### 
### Created by X-TOOL on Mon Sep 10 21:13:15 2018
### 

@<TRIPOS>MOLECULE
4mm5_ligand
   38    40     1     0     0
SMALL
GAST_HUCK


@<TRIPOS>ATOM
      1 CL19      180.4610  -14.3790   96.8770 Cl        1 SRE        -0.0762
      2 C16       181.1120  -15.2920   98.1840 C.ar      1 SRE         0.0471
      3 C15       180.2820  -15.8700   99.0060 C.ar      1 SRE         0.0480
      4 CL20      178.5600  -15.7090   98.7710 Cl        1 SRE        -0.0718
      5 C17       182.4300  -15.3690   98.2930 C.ar      1 SRE        -0.0538
      6 C18       182.9690  -16.1150   99.3640 C.ar      1 SRE        -0.0576
      7 C13       182.0840  -16.7890  100.3340 C.ar      1 SRE        -0.0293
      8 C14       180.7160  -16.5990  100.0350 C.ar      1 SRE        -0.0439
      9 C4        182.6000  -17.6550  101.5270 C.3       1 SRE         0.0238
     10 C5        183.5690  -18.5400  100.9990 C.ar      1 SRE        -0.0215
     11 C6        183.3230  -19.2800   99.6730 C.ar      1 SRE        -0.0644
     12 C7        184.2060  -20.1390   99.1390 C.ar      1 SRE        -0.0751
     13 C8        185.2570  -20.4030   99.6370 C.ar      1 SRE        -0.0751
     14 C9        185.6410  -19.9250  100.6950 C.ar      1 SRE        -0.0611
     15 C10       184.9010  -19.0110  101.4340 C.ar      1 SRE         0.0086
     16 C1        185.3850  -18.3780  102.7580 C.3       1 SRE         0.0091
     17 N11       186.7030  -18.1300  102.6010 N.4       1 SRE         0.2381
     18 C12       186.9020  -16.8280  102.0040 C.3       1 SRE        -0.0434
     19 C2        184.7200  -16.9390  103.0510 C.3       1 SRE         0.0030
     20 C3        183.2190  -16.8190  102.5850 C.3       1 SRE        -0.0251
     21 H1        183.0774  -14.8726   97.5792 H         1 SRE         0.0606
     22 H2        184.0445  -16.1935   99.4749 H         1 SRE         0.0562
     23 H3        179.9802  -17.0709  100.6761 H         1 SRE         0.0566
     24 H4        181.7641  -18.2238  101.9602 H         1 SRE         0.0605
     25 H5        182.3935  -19.0995   99.1452 H         1 SRE         0.0541
     26 H6        183.9490  -20.6198   98.2021 H         1 SRE         0.0542
     27 H7        185.9062  -21.1038   99.1247 H         1 SRE         0.0543
     28 H8        186.6089  -20.2304  101.0758 H         1 SRE         0.0540
     29 H9        185.1964  -19.0645  103.5965 H         1 SRE         0.1001
     30 H10       187.1049  -18.8348  102.0028 H         1 SRE         0.2026
     31 H11       187.1556  -18.1554  103.5013 H         1 SRE         0.2026
     32 H12       187.9792  -16.6410  101.8828 H         1 SRE         0.0777
     33 H13       186.4668  -16.0556  102.6552 H         1 SRE         0.0777
     34 H14       186.4115  -16.7970  101.0199 H         1 SRE         0.0777
     35 H15       185.3078  -16.1727  102.5244 H         1 SRE         0.0344
     36 H16       184.7616  -16.7529  104.1343 H         1 SRE         0.0344
     37 H17       182.6142  -16.9884  103.4880 H         1 SRE         0.0313
     38 H18       183.0951  -15.7784  102.2506 H         1 SRE         0.0313
@<TRIPOS>BOND
     1    1    2 1  
     2    2    3 ar 
     3    2    5 ar 
     4    3    4 1  
     5    3    8 ar 
     6    5    6 ar 
     7    6    7 ar 
     8    7    8 ar 
     9    7    9 1  
    10    9   10 1  
    11    9   20 1  
    12   10   11 ar 
    13   10   15 ar 
    14   11   12 ar 
    15   12   13 ar 
    16   13   14 ar 
    17   14   15 ar 
    18   15   16 1  
    19   16   17 1  
    20   16   19 1  
    21   17   18 1  
    22   19   20 1  
    23    5   21 1  
    24    6   22 1  
    25    8   23 1  
    26    9   24 1  
    27   11   25 1  
    28   12   26 1  
    29   13   27 1  
    30   14   28 1  
    31   16   29 1  
    32   17   30 1  
    33   17   31 1  
    34   18   32 1  
    35   18   33 1  
    36   18   34 1  
    37   19   35 1  
    38   19   36 1  
    39   20   37 1  
    40   20   38 1  
@<TRIPOS>SUBSTRUCTURE
     1 SRE         1

