### 
### Created by X-TOOL on Mon Sep 10 21:13:15 2018
### 

@<TRIPOS>MOLECULE
4mm6_ligand
   41    43     1     0     0
SMALL
GAST_HUCK


@<TRIPOS>ATOM
      1 C         179.0310  -12.1730  183.0910 C.3       1 29E        -0.0449
      2 N         177.9270  -11.2860  183.4050 N.4       1 29E         0.2250
      3 C1        176.7320  -11.2960  182.5720 C.3       1 29E        -0.0290
      4 C2        176.6940  -12.5740  181.7420 C.3       1 29E         0.0303
      5 C3        176.0650  -12.3230  180.3920 C.3       1 29E         0.1330
      6 C14       175.7120  -13.6440  179.8340 C.2       1 29E         0.0461
      7 S         176.0280  -14.1370  178.2160 S.3       1 29E        -0.0413
      8 C17       175.3360  -15.7160  178.4410 C.2       1 29E        -0.0195
      9 C16       174.8920  -15.7860  179.7680 C.2       1 29E        -0.0931
     10 C15       175.0950  -14.6420  180.5620 C.2       1 29E        -0.0788
     11 O         174.8880  -11.5790  180.6630 O.3       1 29E        -0.2950
     12 C4        174.2890  -10.8780  179.6630 C.ar      1 29E         0.1079
     13 C13       172.8070  -10.7990  179.5820 C.ar      1 29E         0.0180
     14 C12       171.9700  -11.4250  180.4950 C.ar      1 29E        -0.0532
     15 C11       170.5930  -11.2900  180.3190 C.ar      1 29E        -0.0633
     16 C10       170.0340  -10.5520  179.2710 C.ar      1 29E        -0.0640
     17 C9        170.8390   -9.9140  178.3350 C.ar      1 29E        -0.0587
     18 C8        172.2170  -10.0180  178.4650 C.ar      1 29E        -0.0261
     19 C7        173.0670   -9.4020  177.5560 C.ar      1 29E        -0.0685
     20 C6        174.4550   -9.5060  177.6780 C.ar      1 29E        -0.0744
     21 C5        175.0630  -10.2270  178.7090 C.ar      1 29E        -0.0337
     22 H1        179.8388  -12.0264  183.8231 H         1 29E         0.0777
     23 H2        179.4060  -11.9486  182.0815 H         1 29E         0.0777
     24 H3        178.6855  -13.2166  183.1303 H         1 29E         0.0777
     25 H4        178.2914  -10.3465  183.3816 H         1 29E         0.2011
     26 H5        177.6312  -11.5084  184.3426 H         1 29E         0.2011
     27 H6        176.7470  -10.4246  181.9008 H         1 29E         0.0816
     28 H7        175.8392  -11.2498  183.2130 H         1 29E         0.0816
     29 H8        176.1056  -13.3336  182.2775 H         1 29E         0.0372
     30 H9        177.7212  -12.9402  181.5979 H         1 29E         0.0372
     31 H10       176.7393  -11.7756  179.7170 H         1 29E         0.0849
     32 H11       175.2617  -16.5026  177.6915 H         1 29E         0.0598
     33 H12       174.4140  -16.6804  180.1649 H         1 29E         0.0371
     34 H13       174.8050  -14.5556  181.6081 H         1 29E         0.0277
     35 H14       172.3740  -12.0012  181.3196 H         1 29E         0.0631
     36 H15       169.9288  -11.7772  181.0236 H         1 29E         0.0591
     37 H16       168.9559  -10.4764  179.1874 H         1 29E         0.0614
     38 H17       170.4005   -9.3476  177.5214 H         1 29E         0.0599
     39 H18       172.6461   -8.8301  176.7370 H         1 29E         0.0493
     40 H19       175.0826   -9.0096  176.9467 H         1 29E         0.0581
     41 H20       176.1443  -10.2791  178.7653 H         1 29E         0.0499
@<TRIPOS>BOND
     1    1    2 1  
     2    2    3 1  
     3    3    4 1  
     4    4    5 1  
     5    5    6 1  
     6    5   11 1  
     7    6    7 1  
     8    6   10 2  
     9    7    8 1  
    10    8    9 2  
    11    9   10 1  
    12   11   12 1  
    13   12   13 ar 
    14   12   21 ar 
    15   13   14 ar 
    16   13   18 ar 
    17   14   15 ar 
    18   15   16 ar 
    19   16   17 ar 
    20   17   18 ar 
    21   18   19 ar 
    22   19   20 ar 
    23   20   21 ar 
    24    1   22 1  
    25    1   23 1  
    26    1   24 1  
    27    2   25 1  
    28    2   26 1  
    29    3   27 1  
    30    3   28 1  
    31    4   29 1  
    32    4   30 1  
    33    5   31 1  
    34    8   32 1  
    35    9   33 1  
    36   10   34 1  
    37   14   35 1  
    38   15   36 1  
    39   16   37 1  
    40   17   38 1  
    41   19   39 1  
    42   20   40 1  
    43   21   41 1  
@<TRIPOS>SUBSTRUCTURE
     1 29E         1

