### 
### Created by X-TOOL on Mon Sep 10 21:13:15 2018
### 

@<TRIPOS>MOLECULE
4mm7_ligand
   45    46     1     0     0
SMALL
GAST_HUCK


@<TRIPOS>ATOM
      1 O1        179.7940  -15.8310  100.4100 O.3       1 29J        -0.3863
      2 C5        180.0480  -16.7060   99.3170 C.3       1 29J         0.0817
      3 C         180.2760  -15.8850   98.0560 C.3       1 29J        -0.0219
      4 C4        178.7980  -17.5500   99.1620 C.3       1 29J        -0.0219
      5 C3        177.5890  -16.6830   98.8480 C.3       1 29J        -0.0503
      6 C2        177.8020  -15.8500   97.5980 C.3       1 29J        -0.0529
      7 C1        179.0680  -15.0290   97.7140 C.3       1 29J        -0.0503
      8 C6        181.3180  -17.5080   99.6450 C.3       1 29J         0.0565
      9 C13       181.5770  -17.5920  101.1410 C.3       1 29J        -0.0187
     10 N         183.0120  -17.4290  101.3240 N.4       1 29J         0.2325
     11 C15       183.5180  -16.3280  102.1180 C.3       1 29J        -0.0432
     12 C14       183.9660  -18.3440  100.7250 C.3       1 29J        -0.0432
     13 C7        181.3420  -18.8850   99.0810 C.ar      1 29J        -0.0429
     14 C12       180.9760  -19.9830   99.8530 C.ar      1 29J        -0.0682
     15 C11       181.0050  -21.2550   99.2990 C.ar      1 29J        -0.0398
     16 C10       181.4170  -21.4410   97.9870 C.ar      1 29J         0.0805
     17 O         181.4480  -22.6940   97.4550 O.3       1 29J        -0.3376
     18 C9        181.7970  -20.3510   97.2190 C.ar      1 29J        -0.0398
     19 C8        181.7610  -19.0810   97.7720 C.ar      1 29J        -0.0682
     20 H1        179.0208  -15.3110  100.2249 H         1 29J         0.2104
     21 H2        180.4770  -16.5683   97.2177 H         1 29J         0.0294
     22 H3        181.1451  -15.2287   98.2107 H         1 29J         0.0294
     23 H4        178.6148  -18.0965  100.0989 H         1 29J         0.0294
     24 H5        178.9482  -18.2678   98.3421 H         1 29J         0.0294
     25 H6        177.4038  -16.0092   99.6975 H         1 29J         0.0266
     26 H7        176.7142  -17.3328   98.6979 H         1 29J         0.0266
     27 H8        176.9443  -15.1746   97.4632 H         1 29J         0.0265
     28 H9        177.8829  -16.5181   96.7279 H         1 29J         0.0265
     29 H10       179.2518  -14.5235   96.7545 H         1 29J         0.0266
     30 H11       178.9313  -14.2765   98.5046 H         1 29J         0.0266
     31 H12       182.1573  -16.9588   99.1933 H         1 29J         0.0521
     32 H13       181.2536  -18.5696  101.5280 H         1 29J         0.0839
     33 H14       181.0341  -16.7921  101.6658 H         1 29J         0.0839
     34 H15       182.9687  -18.0112  102.1457 H         1 29J         0.2029
     35 H16       184.6170  -16.3684  102.1426 H         1 29J         0.0777
     36 H17       183.1253  -16.4040  103.1427 H         1 29J         0.0777
     37 H18       183.1961  -15.3756  101.6716 H         1 29J         0.0777
     38 H19       183.4264  -19.1176  100.1590 H         1 29J         0.0777
     39 H20       184.5648  -18.8191  101.5160 H         1 29J         0.0777
     40 H21       184.6299  -17.7889  100.0459 H         1 29J         0.0777
     41 H22       180.6693  -19.8454  100.8836 H         1 29J         0.0530
     42 H23       180.7039  -22.1089   99.8950 H         1 29J         0.0525
     43 H24       181.7505  -22.6476   96.5557 H         1 29J         0.2458
     44 H25       182.1198  -20.4913   96.1937 H         1 29J         0.0525
     45 H26       182.0641  -18.2289   97.1744 H         1 29J         0.0530
@<TRIPOS>BOND
     1    1    2 1  
     2    2    3 1  
     3    2    4 1  
     4    2    8 1  
     5    3    7 1  
     6    4    5 1  
     7    5    6 1  
     8    6    7 1  
     9    8    9 1  
    10    8   13 1  
    11    9   10 1  
    12   10   11 1  
    13   10   12 1  
    14   13   14 ar 
    15   13   19 ar 
    16   14   15 ar 
    17   15   16 ar 
    18   16   17 1  
    19   16   18 ar 
    20   18   19 ar 
    21    1   20 1  
    22    3   21 1  
    23    3   22 1  
    24    4   23 1  
    25    4   24 1  
    26    5   25 1  
    27    5   26 1  
    28    6   27 1  
    29    6   28 1  
    30    7   29 1  
    31    7   30 1  
    32    8   31 1  
    33    9   32 1  
    34    9   33 1  
    35   10   34 1  
    36   11   35 1  
    37   11   36 1  
    38   11   37 1  
    39   12   38 1  
    40   12   39 1  
    41   12   40 1  
    42   14   41 1  
    43   15   42 1  
    44   17   43 1  
    45   18   44 1  
    46   19   45 1  
@<TRIPOS>SUBSTRUCTURE
     1 29J         1

