### 
### Created by X-TOOL on Mon Sep 10 21:13:15 2018
### 

@<TRIPOS>MOLECULE
4mm8_ligand
   41    42     1     0     0
SMALL
GAST_HUCK


@<TRIPOS>ATOM
      1 F14       -33.3630   14.6240   16.2070 F         1 RFX        -0.2324
      2 C12       -33.3990   13.3420   16.5680 C.3       1 RFX         0.3627
      3 F15       -34.3030   13.1470   17.5440 F         1 RFX        -0.2324
      4 F13       -33.7770   12.5900   15.5180 F         1 RFX        -0.2324
      5 C9        -32.0390   12.9200   17.0450 C.ar      1 RFX         0.0326
      6 C10       -31.9910   11.9500   18.0180 C.ar      1 RFX        -0.0383
      7 C11       -30.7690   11.5240   18.5040 C.ar      1 RFX         0.0018
      8 C6        -29.6240   12.0670   17.9940 C.ar      1 RFX         0.1322
      9 C7        -29.6720   13.0490   17.0000 C.ar      1 RFX         0.0018
     10 C8        -30.8950   13.4670   16.5290 C.ar      1 RFX        -0.0383
     11 O5        -28.3610   11.6230   18.4750 O.3       1 RFX        -0.2772
     12 C3        -28.3840   10.3450   19.0230 C.3       1 RFX         0.1290
     13 C2        -27.1380   10.0390   19.8080 C.3       1 RFX         0.0297
     14 C1        -26.0960   11.1940   19.5470 C.3       1 RFX        -0.0292
     15 N4        -25.5150   11.6870   20.7640 N.4       1 RFX         0.2250
     16 C22       -26.3530   12.6870   21.3780 C.3       1 RFX        -0.0449
     17 C16       -28.5210    9.2430   17.9750 C.ar      1 RFX        -0.0080
     18 C21       -29.6330    8.4150   18.0050 C.ar      1 RFX        -0.0574
     19 C20       -29.7550    7.3870   17.0400 C.ar      1 RFX        -0.0685
     20 C19       -28.7530    7.2100   16.0800 C.ar      1 RFX        -0.0687
     21 C18       -27.6370    8.0300   16.0630 C.ar      1 RFX        -0.0685
     22 C17       -27.5100    9.0600   17.0220 C.ar      1 RFX        -0.0574
     23 H1        -32.9088   11.5204   18.4030 H         1 RFX         0.0825
     24 H2        -30.7200   10.7686   19.2800 H         1 RFX         0.0651
     25 H3        -28.7569   13.4756   16.6054 H         1 RFX         0.0651
     26 H4        -30.9525   14.2238   15.7551 H         1 RFX         0.0825
     27 H5        -29.2494   10.2926   19.7000 H         1 RFX         0.0836
     28 H6        -26.7177    9.0770   19.4796 H         1 RFX         0.0370
     29 H7        -27.3766    9.9880   20.8806 H         1 RFX         0.0370
     30 H8        -26.6075   12.0238   19.0374 H         1 RFX         0.0816
     31 H9        -25.2928   10.8073   18.9026 H         1 RFX         0.0816
     32 H10       -24.6162   12.0938   20.5574 H         1 RFX         0.2011
     33 H11       -25.3966   10.9189   21.4059 H         1 RFX         0.2011
     34 H12       -25.8801   13.0426   22.3053 H         1 RFX         0.0777
     35 H13       -27.3349   12.2495   21.6116 H         1 RFX         0.0777
     36 H14       -26.4833   13.5317   20.6856 H         1 RFX         0.0777
     37 H15       -30.3997    8.5535   18.7587 H         1 RFX         0.0558
     38 H16       -30.6232    6.7380   17.0447 H         1 RFX         0.0599
     39 H17       -28.8511    6.4226   15.3415 H         1 RFX         0.0559
     40 H18       -26.8643    7.8823   15.3172 H         1 RFX         0.0599
     41 H19       -26.6376    9.7034   17.0205 H         1 RFX         0.0558
@<TRIPOS>BOND
     1    1    2 1  
     2    2    3 1  
     3    2    4 1  
     4    2    5 1  
     5    5    6 ar 
     6    5   10 ar 
     7    6    7 ar 
     8    7    8 ar 
     9    8    9 ar 
    10    8   11 1  
    11    9   10 ar 
    12   11   12 1  
    13   12   13 1  
    14   12   17 1  
    15   13   14 1  
    16   14   15 1  
    17   15   16 1  
    18   17   18 ar 
    19   17   22 ar 
    20   18   19 ar 
    21   19   20 ar 
    22   20   21 ar 
    23   21   22 ar 
    24    6   23 1  
    25    7   24 1  
    26    9   25 1  
    27   10   26 1  
    28   12   27 1  
    29   13   28 1  
    30   13   29 1  
    31   14   30 1  
    32   14   31 1  
    33   15   32 1  
    34   15   33 1  
    35   16   34 1  
    36   16   35 1  
    37   16   36 1  
    38   18   37 1  
    39   19   38 1  
    40   20   39 1  
    41   21   40 1  
    42   22   41 1  
@<TRIPOS>SUBSTRUCTURE
     1 RFX         1

