### 
### Created by X-TOOL on Mon Sep 10 21:13:15 2018
### 

@<TRIPOS>MOLECULE
4mm9_ligand
   47    47     1     0     0
SMALL
GAST_HUCK


@<TRIPOS>ATOM
      1 C1        189.5950  -22.0780   97.9380 C.3       1 FVX         0.0364
      2 O2        188.5590  -21.4020   98.5200 O.3       1 FVX        -0.3830
      3 C3        188.2860  -20.0490   97.9390 C.3       1 FVX         0.0473
      4 C4        189.3820  -19.0330   98.4310 C.3       1 FVX        -0.0291
      5 C5        189.6190  -17.7810   97.5020 C.3       1 FVX        -0.0432
      6 C6        190.2900  -16.6000   98.2470 C.3       1 FVX         0.0065
      7 C7        189.4620  -16.2140   99.5300 C.3       1 FVX         0.0565
      8 N8        190.2250  -15.5610  100.5120 N.4       1 FVX         0.4059
      9 O9        189.3480  -15.2270  101.6200 O.3       1 FVX        -0.3211
     10 C10       190.0320  -15.2870  102.8310 C.3       1 FVX         0.1312
     11 C11       191.4840  -15.7420  102.6330 C.3       1 FVX        -0.0061
     12 N12       191.7090  -17.0670  103.1230 N.4       1 FVX         0.2203
     13 C13       188.1190  -15.6290   99.1500 C.ar      1 FVX         0.0373
     14 C14       187.9160  -14.8750   97.9170 C.ar      1 FVX        -0.0228
     15 C15       186.6720  -14.4130   97.6140 C.ar      1 FVX        -0.0370
     16 C16       185.5720  -14.6670   98.4730 C.ar      1 FVX         0.0385
     17 C17       185.7740  -15.4150   99.6640 C.ar      1 FVX        -0.0370
     18 C18       187.0370  -15.8890   99.9760 C.ar      1 FVX        -0.0228
     19 C19       184.2000  -14.1660   98.1330 C.3       1 FVX         0.3684
     20 F20       183.7400  -13.3170   99.0580 F         1 FVX        -0.2274
     21 F21       184.2030  -13.5630   96.9430 F         1 FVX        -0.2274
     22 F22       183.3180  -15.2110   98.0690 F         1 FVX        -0.2274
     23 H1        189.7177  -23.0545   98.4294 H         1 FVX         0.0523
     24 H2        190.5209  -21.4941   98.0465 H         1 FVX         0.0523
     25 H3        189.3800  -22.2295   96.8699 H         1 FVX         0.0523
     26 H4        187.2939  -19.7037   98.2653 H         1 FVX         0.0560
     27 H5        188.3101  -20.1103   96.8410 H         1 FVX         0.0560
     28 H6        190.3343  -19.5771   98.5145 H         1 FVX         0.0287
     29 H7        189.0814  -18.6656   99.4233 H         1 FVX         0.0287
     30 H8        188.6474  -17.4439   97.1116 H         1 FVX         0.0270
     31 H9        190.2661  -18.0818   96.6649 H         1 FVX         0.0270
     32 H10       190.3418  -15.7308   97.5749 H         1 FVX         0.0352
     33 H11       191.3070  -16.8926   98.5472 H         1 FVX         0.0352
     34 H12       189.2075  -17.1745  100.0018 H         1 FVX         0.1104
     35 H13       190.6262  -14.7195  100.1288 H         1 FVX         0.2384
     36 H14       190.9623  -16.1694  100.8318 H         1 FVX         0.2384
     37 H15       189.5213  -15.9996  103.4954 H         1 FVX         0.0670
     38 H16       190.0298  -14.2887  103.2929 H         1 FVX         0.0670
     39 H17       192.1483  -15.0488  103.1697 H         1 FVX         0.0838
     40 H18       191.7191  -15.7174  101.5587 H         1 FVX         0.0838
     41 H19       192.6725  -17.3219  102.9721 H         1 FVX         0.1995
     42 H20       191.1099  -17.7127  102.6329 H         1 FVX         0.1995
     43 H21       191.5032  -17.1000  104.1092 H         1 FVX         0.1995
     44 H22       188.7481  -14.6847   97.2488 H         1 FVX         0.0654
     45 H23       186.5199  -13.8435   96.7043 H         1 FVX         0.0836
     46 H24       184.9403  -15.6143  100.3276 H         1 FVX         0.0836
     47 H25       187.1814  -16.4715  100.8787 H         1 FVX         0.0654
@<TRIPOS>BOND
     1    1    2 1  
     2    2    3 1  
     3    3    4 1  
     4    4    5 1  
     5    5    6 1  
     6    6    7 1  
     7    7    8 1  
     8    7   13 1  
     9    8    9 1  
    10    9   10 1  
    11   10   11 1  
    12   11   12 1  
    13   13   14 ar 
    14   13   18 ar 
    15   14   15 ar 
    16   15   16 ar 
    17   16   17 ar 
    18   16   19 1  
    19   17   18 ar 
    20   19   20 1  
    21   19   21 1  
    22   19   22 1  
    23    1   23 1  
    24    1   24 1  
    25    1   25 1  
    26    3   26 1  
    27    3   27 1  
    28    4   28 1  
    29    4   29 1  
    30    5   30 1  
    31    5   31 1  
    32    6   32 1  
    33    6   33 1  
    34    7   34 1  
    35    8   35 1  
    36    8   36 1  
    37   10   37 1  
    38   10   38 1  
    39   11   39 1  
    40   11   40 1  
    41   12   41 1  
    42   12   42 1  
    43   12   43 1  
    44   14   44 1  
    45   15   45 1  
    46   17   46 1  
    47   18   47 1  
@<TRIPOS>SUBSTRUCTURE
     1 FVX         1

