### 
### Created by X-TOOL on Mon Sep 10 21:13:16 2018
### 

@<TRIPOS>MOLECULE
4mma_ligand
   46    48     1     0     0
SMALL
GAST_HUCK


@<TRIPOS>ATOM
      1 C1        162.2830   -3.4170  341.5260 C.ar      1 CXX        -0.0326
      2 C2        161.4420   -2.4970  340.8580 C.ar      1 CXX         0.0225
      3 C3        161.9170   -1.6410  339.8350 C.ar      1 CXX        -0.0671
      4 C4        163.2620   -1.7130  339.4610 C.ar      1 CXX        -0.0697
      5 C5        165.5620   -2.7290  339.7140 C.3       1 CXX        -0.0136
      6 C6        165.7630   -4.0420  338.9820 C.3       1 CXX        -0.0137
      7 C8        166.6110   -7.5690  339.9960 C.ar      1 CXX        -0.0811
      8 C9        166.0240   -7.7380  341.2540 C.ar      1 CXX        -0.0795
      9 C10       165.3170   -6.6800  341.8500 C.ar      1 CXX        -0.0464
     10 C11       165.1610   -5.4620  341.1770 C.ar      1 CXX         0.0618
     11 C13       164.1180   -2.6300  340.0940 C.ar      1 CXX        -0.0182
     12 C14       163.6130   -3.5310  341.1510 C.ar      1 CXX         0.0624
     13 C17       166.3070   -2.7280  344.3050 C.3       1 CXX        -0.0303
     14 C18       165.9930   -4.2720  346.2800 C.3       1 CXX        -0.0433
     15 C7        166.5000   -6.3600  339.3040 C.ar      1 CXX        -0.0704
     16 C12       165.8130   -5.2820  339.8540 C.ar      1 CXX        -0.0185
     17 C15       164.6950   -4.2900  343.2060 C.3       1 CXX         0.0469
     18 C16       165.8950   -3.3860  343.0030 C.3       1 CXX         0.0107
     19 C19       167.9150   -4.6620  344.6220 C.3       1 CXX        -0.0433
     20 N1        164.4580   -4.4380  341.7990 N.pl3     1 CXX        -0.2667
     21 N2        166.7380   -3.8890  345.0780 N.4       1 CXX         0.2310
     22 CL2       159.7130   -2.4600  341.4430 Cl        1 CXX        -0.0803
     23 H1        161.8894   -4.0307  342.3281 H         1 CXX         0.0511
     24 H2        161.2477   -0.9403  339.3491 H         1 CXX         0.0501
     25 H3        163.6443   -1.0619  338.6832 H         1 CXX         0.0522
     26 H4        165.8339   -1.8896  339.0572 H         1 CXX         0.0422
     27 H5        166.1886   -2.7053  340.6178 H         1 CXX         0.0422
     28 H6        166.7124   -3.9790  338.4300 H         1 CXX         0.0422
     29 H7        164.9326   -4.1627  338.2708 H         1 CXX         0.0422
     30 H8        167.1614   -8.3896  339.5502 H         1 CXX         0.0494
     31 H9        166.1146   -8.6869  341.7702 H         1 CXX         0.0528
     32 H10       164.8893   -6.8076  342.8378 H         1 CXX         0.0506
     33 H11       165.4602   -2.2150  344.7843 H         1 CXX         0.0815
     34 H12       167.1304   -2.0144  344.1544 H         1 CXX         0.0815
     35 H13       166.4565   -5.1620  346.7306 H         1 CXX         0.0777
     36 H14       164.9512   -4.4985  346.0091 H         1 CXX         0.0777
     37 H15       166.0120   -3.4431  347.0029 H         1 CXX         0.0777
     38 H16       166.9553   -6.2605  338.3253 H         1 CXX         0.0521
     39 H17       163.8660   -3.8000  343.7377 H         1 CXX         0.0560
     40 H18       164.9434   -5.2370  343.7074 H         1 CXX         0.0560
     41 H19       166.7352   -3.9843  342.6208 H         1 CXX         0.0340
     42 H20       165.6377   -2.6058  342.2715 H         1 CXX         0.0340
     43 H21       168.3214   -4.2057  343.7073 H         1 CXX         0.0777
     44 H22       167.6138   -5.6988  344.4118 H         1 CXX         0.0777
     45 H23       168.6846   -4.6559  345.4079 H         1 CXX         0.0777
     46 H24       167.3383   -3.3034  345.6372 H         1 CXX         0.2028
@<TRIPOS>BOND
     1    1    2 ar 
     2   12    1 ar 
     3    2    3 ar 
     4    2   22 1  
     5    4    3 ar 
     6   11    4 ar 
     7    5    6 1  
     8   11    5 1  
     9   16    6 1  
    10    8    7 ar 
    11   15    7 ar 
    12    9    8 ar 
    13   10    9 ar 
    14   10   16 ar 
    15   20   10 1  
    16   12   11 ar 
    17   20   12 1  
    18   18   13 1  
    19   13   21 1  
    20   21   14 1  
    21   16   15 ar 
    22   17   18 1  
    23   17   20 1  
    24   21   19 1  
    25    1   23 1  
    26    3   24 1  
    27    4   25 1  
    28    5   26 1  
    29    5   27 1  
    30    6   28 1  
    31    6   29 1  
    32    7   30 1  
    33    8   31 1  
    34    9   32 1  
    35   13   33 1  
    36   13   34 1  
    37   14   35 1  
    38   14   36 1  
    39   14   37 1  
    40   15   38 1  
    41   17   39 1  
    42   17   40 1  
    43   18   41 1  
    44   18   42 1  
    45   19   43 1  
    46   19   44 1  
    47   19   45 1  
    48   21   46 1  
@<TRIPOS>SUBSTRUCTURE
     1 CXX         1

