### 
### Created by X-TOOL on Mon Sep 10 21:13:14 2018
### 

@<TRIPOS>MOLECULE
4mmf_ligand
   34    37     1     0     0
SMALL
GAST_HUCK


@<TRIPOS>ATOM
      1 CL        -60.8440   14.6870   12.1180 Cl        1 29Q        -0.0441
      2 C13       -61.8070   15.5890   10.9050 C.ar      1 29Q         0.0689
      3 C12       -61.5620   15.4260    9.5400 C.ar      1 29Q        -0.0215
      4 C11       -62.3030   16.1460    8.6100 C.ar      1 29Q        -0.0417
      5 C14       -62.7840   16.4610   11.3550 C.ar      1 29Q        -0.0215
      6 C15       -63.5190   17.1770   10.4300 C.ar      1 29Q        -0.0417
      7 C10       -63.2910   17.0080    9.0680 C.ar      1 29Q        -0.0125
      8 C         -64.1070   17.8410    8.1340 C.3       1 29Q         0.1747
      9 O         -65.1890   18.4540    8.8400 O.3       1 29Q        -0.4206
     10 C5        -63.1960   18.8800    7.5220 C.ar      1 29Q         0.0434
     11 C6        -62.3740   19.7980    8.1700 C.ar      1 29Q         0.0010
     12 C7        -61.6140   20.6860    7.4090 C.ar      1 29Q         0.0080
     13 C8        -61.6660   20.6690    6.0130 C.ar      1 29Q         0.0085
     14 C9        -62.4830   19.7570    5.3470 C.ar      1 29Q         0.0279
     15 C4        -63.2240   18.8810    6.1310 C.ar      1 29Q         0.1269
     16 C1        -64.1820   17.7840    5.8690 C.2       1 29Q         0.2309
     17 N         -64.6340   17.2000    6.9210 N.2       1 29Q        -0.3044
     18 C3        -65.5950   16.1430    6.7860 C.3       1 29Q         0.0594
     19 C2        -65.7740   16.2320    5.2500 C.3       1 29Q         0.0678
     20 N1        -64.7390   17.1820    4.7920 N.pl3     1 29Q        -0.2523
     21 H1        -60.7940   14.7380    9.2056 H         1 29Q         0.0698
     22 H2        -62.1134   16.0368    7.5483 H         1 29Q         0.0810
     23 H3        -62.9692   16.5799   12.4164 H         1 29Q         0.0698
     24 H4        -64.2774   17.8742   10.7672 H         1 29Q         0.0810
     25 H5        -65.5997   19.1056    8.2839 H         1 29Q         0.1907
     26 H6        -62.3253   19.8223    9.2526 H         1 29Q         0.1005
     27 H7        -60.9718   21.4018    7.9094 H         1 29Q         0.1076
     28 H8        -61.0666   21.3702    5.4437 H         1 29Q         0.0927
     29 H9        -62.5380   19.7321    4.2647 H         1 29Q         0.1038
     30 H10       -66.5280   16.3526    7.3296 H         1 29Q         0.0570
     31 H11       -65.1951   15.1694    7.1057 H         1 29Q         0.0570
     32 H12       -66.7779   16.6057    4.9999 H         1 29Q         0.0590
     33 H13       -65.6239   15.2457    4.7867 H         1 29Q         0.0590
     34 H14       -64.4824   17.3580    3.8101 H         1 29Q         0.2141
@<TRIPOS>BOND
     1    1    2 1  
     2    2    3 ar 
     3    2    5 ar 
     4    3    4 ar 
     5    4    7 ar 
     6    5    6 ar 
     7    6    7 ar 
     8    7    8 1  
     9    8    9 1  
    10    8   10 1  
    11    8   17 1  
    12   10   11 ar 
    13   10   15 ar 
    14   11   12 ar 
    15   12   13 ar 
    16   13   14 ar 
    17   14   15 ar 
    18   15   16 1  
    19   16   17 2  
    20   16   20 1  
    21   17   18 1  
    22   18   19 1  
    23   19   20 1  
    24    3   21 1  
    25    4   22 1  
    26    5   23 1  
    27    6   24 1  
    28    9   25 1  
    29   11   26 1  
    30   12   27 1  
    31   13   28 1  
    32   14   29 1  
    33   18   30 1  
    34   18   31 1  
    35   19   32 1  
    36   19   33 1  
    37   20   34 1  
@<TRIPOS>SUBSTRUCTURE
     1 29Q         1

