### 
### Created by X-TOOL on Mon Sep 10 21:13:17 2018
### 

@<TRIPOS>MOLECULE
4mmp_ligand
   39    39     1     0     0
SMALL
GAST_HUCK


@<TRIPOS>ATOM
      1 C1         21.4500   30.2640   12.8010 C.2       1 SLB         0.1039
      2 C2         19.9550   30.1270   12.9040 C.3       1 SLB         0.2179
      3 C3         19.5600   28.8940   13.7070 C.3       1 SLB         0.0351
      4 C4         18.0560   28.7140   13.5890 C.3       1 SLB         0.0850
      5 C5         17.6290   28.5850   12.1340 C.3       1 SLB         0.0964
      6 C6         18.1260   29.9150   11.4110 C.3       1 SLB         0.1143
      7 C7         17.9160   29.9690    9.9150 C.3       1 SLB         0.1114
      8 C8         18.4120   31.2880    9.2660 C.3       1 SLB         0.1065
      9 C9         18.1150   31.4290    7.7820 C.3       1 SLB         0.0727
     10 C10        15.6760   27.2480   11.5380 C.2       1 SLB         0.1733
     11 C11        14.1610   27.2530   11.3670 C.3       1 SLB         0.0257
     12 N5         16.1910   28.4220   11.9390 N.am      1 SLB        -0.2790
     13 O1A        22.0060   31.2390   13.3540 O.co2     1 SLB        -0.5426
     14 O1B        22.1090   29.4010   12.1610 O.co2     1 SLB        -0.5426
     15 O2         19.4220   31.3760   13.4870 O.3       1 SLB        -0.3631
     16 O4         17.6180   27.5500   14.2900 O.3       1 SLB        -0.3893
     17 O6         19.5870   30.0530   11.5380 O.3       1 SLB        -0.3385
     18 O7         18.5650   28.8340    9.2540 O.3       1 SLB        -0.3865
     19 O8         17.8390   32.3610    9.9950 O.3       1 SLB        -0.3869
     20 O9         16.6590   31.2090    7.4970 O.3       1 SLB        -0.3924
     21 O10        16.4190   26.2590   11.3270 O.2       1 SLB        -0.3974
     22 H          19.8370   29.0323   14.7625 H         1 SLB         0.0336
     23 H          20.0738   28.0079   13.3061 H         1 SLB         0.0336
     24 H          17.5673   29.5972   14.0261 H         1 SLB         0.0618
     25 H          18.1333   27.7125   11.6931 H         1 SLB         0.0608
     26 H          17.6155   30.7677   11.8825 H         1 SLB         0.0646
     27 H          16.8333   29.8964    9.7348 H         1 SLB         0.0647
     28 H          19.5051   31.3282    9.3824 H         1 SLB         0.0643
     29 H          18.7057   30.6863    7.2257 H         1 SLB         0.0584
     30 H          18.3958   32.4408    7.4544 H         1 SLB         0.0584
     31 H          13.8258   26.2581   11.0387 H         1 SLB         0.0467
     32 H          13.8796   28.0022   10.6123 H         1 SLB         0.0467
     33 H          13.6845   27.5022   12.3266 H         1 SLB         0.0467
     34 H          15.5804   29.1961   12.1065 H         1 SLB         0.1856
     35 H          19.6681   31.4268   14.4031 H         1 SLB         0.2112
     36 H          16.6721   27.4842   14.2323 H         1 SLB         0.2099
     37 H          19.5068   28.9059    9.3558 H         1 SLB         0.2100
     38 H          16.8976   32.3615    9.8681 H         1 SLB         0.2100
     39 H          16.1440   31.8506    7.9720 H         1 SLB         0.2095
@<TRIPOS>BOND
     1    2    1 1  
     2    1   13 ar 
     3    1   14 ar 
     4    3    2 1  
     5    2   15 1  
     6   17    2 1  
     7    4    3 1  
     8    5    4 1  
     9    4   16 1  
    10    5    6 1  
    11   12    5 1  
    12    6    7 1  
    13    6   17 1  
    14    7    8 1  
    15    7   18 1  
    16    8    9 1  
    17    8   19 1  
    18    9   20 1  
    19   10   11 1  
    20   10   12 am 
    21   10   21 2  
    22    3   22 1  
    23    3   23 1  
    24    4   24 1  
    25    5   25 1  
    26    6   26 1  
    27    7   27 1  
    28    8   28 1  
    29    9   29 1  
    30    9   30 1  
    31   11   31 1  
    32   11   32 1  
    33   11   33 1  
    34   12   34 1  
    35   15   35 1  
    36   16   36 1  
    37   18   37 1  
    38   19   38 1  
    39   20   39 1  
@<TRIPOS>SUBSTRUCTURE
     1 SLB         1

