### 
### Created by X-TOOL on Mon Sep 10 21:13:19 2018
### 

@<TRIPOS>MOLECULE
4mnp_ligand
   39    39     1     0     0
SMALL
GAST_HUCK


@<TRIPOS>ATOM
      1 C1         22.4830   28.2630   40.7160 C.2       1 SLB         0.1039
      2 C2         21.8660   26.9580   41.0130 C.3       1 SLB         0.2179
      3 C3         22.8490   25.9460   41.2720 C.3       1 SLB         0.0351
      4 C4         22.3470   24.6090   41.3370 C.3       1 SLB         0.0850
      5 C5         21.5150   24.2590   40.2070 C.3       1 SLB         0.0964
      6 C6         20.3700   25.2270   39.9500 C.3       1 SLB         0.1143
      7 C7         19.7020   24.9790   38.7400 C.3       1 SLB         0.1114
      8 C8         18.6590   26.0860   38.5180 C.3       1 SLB         0.1065
      9 C9         17.7580   25.7190   37.3870 C.3       1 SLB         0.0727
     10 C10        21.4070   21.7770   39.6410 C.2       1 SLB         0.1733
     11 C11        20.8160   20.4460   39.8820 C.3       1 SLB         0.0257
     12 N5         20.9400   22.9220   40.4280 N.am      1 SLB        -0.2790
     13 O1A        23.1500   28.4150   39.6640 O.co2     1 SLB        -0.5426
     14 O1B        22.3410   29.2360   41.5100 O.co2     1 SLB        -0.5426
     15 O2         21.1470   27.1260   42.1850 O.3       1 SLB        -0.3631
     16 O4         23.4400   23.6690   41.4940 O.3       1 SLB        -0.3893
     17 O6         20.9080   26.6230   39.9810 O.3       1 SLB        -0.3385
     18 O7         20.6210   25.0130   37.6790 O.3       1 SLB        -0.3865
     19 O8         17.9270   26.2310   39.6500 O.3       1 SLB        -0.3869
     20 O9         16.9420   24.6160   37.5580 O.3       1 SLB        -0.3924
     21 O10        22.2940   21.9200   38.7780 O.2       1 SLB        -0.3974
     22 H          23.3282   26.1762   42.2350 H         1 SLB         0.0336
     23 H          23.6000   25.9883   40.4693 H         1 SLB         0.0336
     24 H          21.7166   24.5404   42.2358 H         1 SLB         0.0618
     25 H          22.1523   24.2355   39.3107 H         1 SLB         0.0608
     26 H          19.6390   25.1154   40.7643 H         1 SLB         0.0646
     27 H          19.2092   23.9963   38.7784 H         1 SLB         0.0647
     28 H          19.1706   27.0316   38.2853 H         1 SLB         0.0643
     29 H          18.3917   25.5280   36.5084 H         1 SLB         0.0584
     30 H          17.1074   26.5836   37.1889 H         1 SLB         0.0584
     31 H          21.2809   19.7110   39.2085 H         1 SLB         0.0467
     32 H          19.7335   20.4853   39.6906 H         1 SLB         0.0467
     33 H          20.9932   20.1497   40.9264 H         1 SLB         0.0467
     34 H          20.2276   22.7944   41.1181 H         1 SLB         0.1856
     35 H          21.7422   27.3482   42.8913 H         1 SLB         0.2112
     36 H          23.0890   22.7974   41.6337 H         1 SLB         0.2099
     37 H          21.0477   25.8616   37.6581 H         1 SLB         0.2100
     38 H          17.4865   25.4129   39.8479 H         1 SLB         0.2100
     39 H          16.3689   24.7597   38.3019 H         1 SLB         0.2095
@<TRIPOS>BOND
     1    2    1 1  
     2    1   13 ar 
     3    1   14 ar 
     4    3    2 1  
     5    2   15 1  
     6   17    2 1  
     7    4    3 1  
     8    5    4 1  
     9    4   16 1  
    10    5    6 1  
    11   12    5 1  
    12    6    7 1  
    13    6   17 1  
    14    7    8 1  
    15    7   18 1  
    16    8    9 1  
    17    8   19 1  
    18    9   20 1  
    19   10   11 1  
    20   10   12 am 
    21   10   21 2  
    22    3   22 1  
    23    3   23 1  
    24    4   24 1  
    25    5   25 1  
    26    6   26 1  
    27    7   27 1  
    28    8   28 1  
    29    9   29 1  
    30    9   30 1  
    31   11   31 1  
    32   11   32 1  
    33   11   33 1  
    34   12   34 1  
    35   15   35 1  
    36   16   36 1  
    37   18   37 1  
    38   19   38 1  
    39   20   39 1  
@<TRIPOS>SUBSTRUCTURE
     1 SLB         1

