### 
### Created by X-TOOL on Mon Sep 10 21:13:12 2018
### 

@<TRIPOS>MOLECULE
4mo8_ligand
   27    27     1     0     0
SMALL
GAST_HUCK


@<TRIPOS>ATOM
      1 S1         -5.2720    1.0160   16.3920 S.o2      1 2VQ         0.1134
      2 O1         -4.6950    1.3190   17.6640 O.2       1 2VQ        -0.1358
      3 O2         -6.6160    1.4200   16.1170 O.2       1 2VQ        -0.1358
      4 N5         -4.2660    1.7550   15.3610 N.am      1 2VQ        -0.2326
      5 C1         -4.3770    1.4240   13.9240 C.3       1 2VQ         0.0610
      6 C2         -4.7620    2.6430   13.1590 C.3       1 2VQ         0.1289
      7 N3         -3.0370    5.6360   14.2580 N.2       1 2VQ        -0.0565
      8 N4         -1.8430    3.0400   12.0910 N.2       1 2VQ        -0.0250
      9 C3         -2.5170    3.8890   12.9950 C.2       1 2VQ         0.4391
     10 C4         -2.0460    5.0460   13.5560 C.2       1 2VQ         0.2837
     11 C5         -4.0960    4.8550   14.1470 C.2       1 2VQ         0.3158
     12 C6         -5.3780    5.0870   14.8300 C.3       1 2VQ         0.0986
     13 N2         -3.8330    3.7600   13.3880 N.pl3     1 2VQ        -0.0187
     14 O4         -0.6440    3.2610   11.9030 O.2       1 2VQ        -0.4092
     15 O5         -2.4650    2.1620   11.4940 O.2       1 2VQ        -0.4092
     16 N1         -5.1640   -0.5580   16.1400 N.am      1 2VQ        -0.2489
     17 H1         -3.5896    2.4158   15.6863 H         1 2VQ         0.1686
     18 H2         -5.1436    0.6474   13.7853 H         1 2VQ         0.0506
     19 H3         -3.4084    1.0527   13.5579 H         1 2VQ         0.0506
     20 H4         -5.7709    2.9522   13.4698 H         1 2VQ         0.0694
     21 H5         -4.7669    2.4009   12.0860 H         1 2VQ         0.0694
     22 H6         -1.0321    5.4297   13.4523 H         1 2VQ         0.2194
     23 H7         -5.3353    6.0412   15.3756 H         1 2VQ         0.0912
     24 H8         -5.5695    4.2677   15.5386 H         1 2VQ         0.0912
     25 H9         -6.1878    5.1257   14.0866 H         1 2VQ         0.0912
     26 H10        -4.2929   -1.0284   16.2812 H         1 2VQ         0.1648
     27 H11        -5.9675   -1.0728   15.8411 H         1 2VQ         0.1648
@<TRIPOS>BOND
     1    1    2 2  
     2    1    3 2  
     3    4    1 am 
     4    1   16 am 
     5    5    4 1  
     6    6    5 1  
     7   13    6 1  
     8   10    7 1  
     9    7   11 2  
    10    9    8 1  
    11    8   14 2  
    12    8   15 2  
    13    9   10 2  
    14    9   13 1  
    15   11   12 1  
    16   11   13 1  
    17    4   17 1  
    18    5   18 1  
    19    5   19 1  
    20    6   20 1  
    21    6   21 1  
    22   10   22 1  
    23   12   23 1  
    24   12   24 1  
    25   12   25 1  
    26   16   26 1  
    27   16   27 1  
@<TRIPOS>SUBSTRUCTURE
     1 2VQ         1

