### 
### Created by X-TOOL on Mon Sep 10 21:13:14 2018
### 

@<TRIPOS>MOLECULE
4mot_ligand
   51    53     1     0     0
SMALL
GAST_HUCK


@<TRIPOS>ATOM
      1 C1         17.3410   24.7710    7.5040 C.3       1 2B7        -0.0626
      2 C2         16.9490   25.2050    6.0970 C.3       1 2B7        -0.0441
      3 C3         18.0980   25.9330    5.4100 C.3       1 2B7        -0.0626
      4 N6         15.0000   28.2980    7.2210 N.am      1 2B7        -0.1916
      5 C7         13.9380   28.2930    8.0940 C.2       1 2B7         0.2096
      6 C9         12.9760   29.4440    8.0510 C.2       1 2B7         0.0369
      7 C10        13.1740   30.4420    7.1660 C.2       1 2B7        -0.0547
      8 C11        14.2830   30.4150    6.2790 C.2       1 2B7         0.0380
      9 C12        15.1430   29.3640    6.3530 C.2       1 2B7         0.1841
     10 C14        15.7120   31.0180    4.7270 C.2       1 2B7         0.2053
     11 C20        19.1940   32.3240    1.5770 C.2       1 2B7         0.0099
     12 C21        19.8440   33.6390    1.4570 C.2       1 2B7        -0.0971
     13 C22        19.2530   34.7780    1.8210 C.3       1 2B7        -0.0605
     14 C24        11.0080   28.3350    9.0150 C.ar      1 2B7        -0.0471
     15 C4         15.7450   26.1430    6.2170 C.3       1 2B7        -0.0213
     16 C5         15.9630   27.1970    7.2770 C.3       1 2B7         0.0694
     17 O8         13.7930   27.3560    8.8840 O.2       1 2B7        -0.4143
     18 S13        16.4320   29.5110    5.2070 S.3       1 2B7         0.0787
     19 N15        14.6140   31.3610    5.3540 N.2       1 2B7        -0.3279
     20 N16        16.2370   31.8000    3.7270 N.am      1 2B7        -0.1780
     21 C17        17.4640   31.4930    3.1430 C.2       1 2B7         0.3255
     22 O18        18.1330   30.5290    3.5110 O.2       1 2B7        -0.3775
     23 N19        17.8230   32.3620    2.1500 N.am      1 2B7        -0.2296
     24 C23        11.8230   29.4480    8.9690 C.ar      1 2B7        -0.0080
     25 C25         9.9500   28.3670    9.9040 C.ar      1 2B7        -0.0434
     26 C26         9.7670   29.4800   10.6880 C.ar      1 2B7         0.0020
     27 N27        10.5230   30.5890   10.6770 N.ar      1 2B7        -0.3067
     28 C28        11.5360   30.5090    9.7910 C.ar      1 2B7         0.0067
     29 H1         18.2063   24.0939    7.4511 H         1 2B7         0.0232
     30 H2         16.4954   24.2491    7.9757 H         1 2B7         0.0232
     31 H3         17.6044   25.6566    8.1009 H         1 2B7         0.0232
     32 H4         16.6750   24.3210    5.5025 H         1 2B7         0.0296
     33 H5         17.7884   26.2344    4.3984 H         1 2B7         0.0232
     34 H6         18.9683   25.2637    5.3429 H         1 2B7         0.0232
     35 H7         18.3666   26.8265    5.9927 H         1 2B7         0.0232
     36 H8         12.4763   31.2774    7.1310 H         1 2B7         0.0663
     37 H9         19.6784   31.3980    1.2707 H         1 2B7         0.0797
     38 H10        20.8540   33.6841    1.0524 H         1 2B7         0.0209
     39 H11        19.9356   35.6206    1.6362 H         1 2B7         0.0297
     40 H12        19.0038   34.7360    2.8916 H         1 2B7         0.0297
     41 H13        18.3323   34.9168    1.2354 H         1 2B7         0.0297
     42 H14        11.1896   27.4739    8.3820 H         1 2B7         0.0665
     43 H15        14.8562   25.5508    6.4803 H         1 2B7         0.0296
     44 H16        15.5814   26.6392    5.2490 H         1 2B7         0.0296
     45 H17        15.8851   26.7177    8.2640 H         1 2B7         0.0635
     46 H18        16.9734   27.6129    7.1500 H         1 2B7         0.0635
     47 H19        15.7301   32.6028    3.4131 H         1 2B7         0.2397
     48 H20        17.1593   33.0269    1.8074 H         1 2B7         0.2245
     49 H21         9.2729   27.5240    9.9815 H         1 2B7         0.0682
     50 H22         8.9335   29.4609   11.3808 H         1 2B7         0.0747
     51 H23        12.1904   31.3703    9.7207 H         1 2B7         0.0758
@<TRIPOS>BOND
     1    2    1 1  
     2    2    3 1  
     3   15    2 1  
     4    4    5 am 
     5    9    4 1  
     6    4   16 1  
     7    6    5 1  
     8    5   17 2  
     9    7    6 2  
    10    6   24 1  
    11    8    7 1  
    12    8    9 2  
    13   19    8 1  
    14   18    9 1  
    15   10   18 1  
    16   10   19 2  
    17   20   10 1  
    18   11   12 2  
    19   23   11 1  
    20   12   13 1  
    21   24   14 ar 
    22   14   25 ar 
    23   16   15 1  
    24   21   20 am 
    25   21   22 2  
    26   21   23 am 
    27   24   28 ar 
    28   25   26 ar 
    29   26   27 ar 
    30   27   28 ar 
    31    1   29 1  
    32    1   30 1  
    33    1   31 1  
    34    2   32 1  
    35    3   33 1  
    36    3   34 1  
    37    3   35 1  
    38    7   36 1  
    39   11   37 1  
    40   12   38 1  
    41   13   39 1  
    42   13   40 1  
    43   13   41 1  
    44   14   42 1  
    45   15   43 1  
    46   15   44 1  
    47   16   45 1  
    48   16   46 1  
    49   20   47 1  
    50   23   48 1  
    51   25   49 1  
    52   26   50 1  
    53   28   51 1  
@<TRIPOS>SUBSTRUCTURE
     1 2B7         1

