### 
### Created by X-TOOL on Mon Sep 10 21:13:19 2018
### 

@<TRIPOS>MOLECULE
4mp2_ligand
   32    34     1     0     0
SMALL
GAST_HUCK


@<TRIPOS>ATOM
      1 C6         18.9170    1.8330  -38.5440 C.ar      1 PV1        -0.0754
      2 C5         17.8000    2.4780  -38.0080 C.ar      1 PV1        -0.0649
      3 O1         12.4710    0.0320  -38.1640 O.2       1 PV1        -0.3951
      4 C4         16.6290    1.7440  -37.9230 C.ar      1 PV1        -0.0168
      5 C3         16.5870    0.3570  -38.3750 C.ar      1 PV1        -0.0168
      6 O3         10.2290    5.7420  -36.3990 O.3       1 PV1        -0.3305
      7 C2         17.7110   -0.2640  -38.9030 C.ar      1 PV1        -0.0649
      8 O2         11.7500    2.6670  -39.8010 O.3       1 PV1        -0.3285
      9 C1         18.8780    0.4990  -38.9810 C.ar      1 PV1        -0.0754
     10 N1         14.4360    1.0000  -37.7970 N.am      1 PV1        -0.2555
     11 C7         15.2050   -0.1990  -38.1810 C.3       1 PV1         0.0662
     12 C8         15.2720    2.1590  -37.4130 C.3       1 PV1         0.0662
     13 C9         13.1010    1.0170  -37.8230 C.2       1 PV1         0.1982
     14 BR1        11.4030    4.4360  -34.0480 Br        1 PV1        -0.0657
     15 C14        11.5560    3.8060  -35.8180 C.ar      1 PV1         0.0353
     16 C13        10.8860    4.6200  -36.8500 C.ar      1 PV1         0.0944
     17 C12        10.9610    4.2310  -38.1940 C.ar      1 PV1         0.0034
     18 C11        11.6640    3.0750  -38.5130 C.ar      1 PV1         0.1038
     19 C15        12.2630    2.6550  -36.1260 C.ar      1 PV1        -0.0483
     20 C10        12.3510    2.2700  -37.4560 C.ar      1 PV1         0.0705
     21 H          19.8480    2.3822  -38.6256 H         1 PV1         0.0541
     22 H          17.8478    3.5079  -37.6733 H         1 PV1         0.0538
     23 H           9.8339    6.1937  -37.1354 H         1 PV1         0.2511
     24 H          17.6839   -1.2941  -39.2393 H         1 PV1         0.0538
     25 H          10.8773    2.5059  -40.1399 H         1 PV1         0.2516
     26 H          19.7764    0.0502  -39.3891 H         1 PV1         0.0541
     27 H          15.1882   -0.9557  -37.3828 H         1 PV1         0.0671
     28 H          14.8182   -0.6393  -39.1119 H         1 PV1         0.0671
     29 H          14.9257    3.0817  -37.9015 H         1 PV1         0.0671
     30 H          15.2808    2.3024  -36.3224 H         1 PV1         0.0671
     31 H          10.4812    4.8188  -38.9682 H         1 PV1         0.0481
     32 H          12.7362    2.0691  -35.3463 H         1 PV1         0.0646
@<TRIPOS>BOND
     1    2    1 ar 
     2    1    9 ar 
     3    4    2 ar 
     4   13    3 2  
     5    4    5 ar 
     6   12    4 1  
     7    5    7 ar 
     8   11    5 1  
     9   16    6 1  
    10    7    9 ar 
    11   18    8 1  
    12   10   11 1  
    13   10   12 1  
    14   13   10 am 
    15   20   13 1  
    16   15   14 1  
    17   16   15 ar 
    18   15   19 ar 
    19   17   16 ar 
    20   18   17 ar 
    21   18   20 ar 
    22   19   20 ar 
    23    1   21 1  
    24    2   22 1  
    25    6   23 1  
    26    7   24 1  
    27    8   25 1  
    28    9   26 1  
    29   11   27 1  
    30   11   28 1  
    31   12   29 1  
    32   12   30 1  
    33   17   31 1  
    34   19   32 1  
@<TRIPOS>SUBSTRUCTURE
     1 PV1         1

