### 
### Created by X-TOOL on Mon Sep 10 21:13:18 2018
### 

@<TRIPOS>MOLECULE
4mp7_ligand
   30    32     1     0     0
SMALL
GAST_HUCK


@<TRIPOS>ATOM
      1 N1         14.2130    1.1330  -37.3340 N.am      1 PFT        -0.2368
      2 C2         12.7910    1.1240  -37.3500 C.2       1 PFT         0.2931
      3 C3         15.0200    2.2450  -36.9520 C.2       1 PFT         0.0366
      4 C4         15.0280    0.0160  -37.7010 C.2       1 PFT         0.0366
      5 C5         12.0280    2.4020  -36.9590 C.ar      1 PFT         0.0972
      6 O6         12.2090    0.1150  -37.7090 O.2       1 PFT        -0.3311
      7 C7         16.3760    1.8920  -37.4880 C.ar      1 PFT        -0.0309
      8 C8         16.3880    0.6090  -37.9240 C.ar      1 PFT        -0.0309
      9 C9         11.4570    3.0760  -37.9590 C.ar      1 PFT         0.1041
     10 C10        11.9170    2.8530  -35.6000 C.ar      1 PFT        -0.0549
     11 C11        17.5730    2.7120  -37.5880 C.ar      1 PFT        -0.0620
     12 C12        17.5500    0.0370  -38.4840 C.ar      1 PFT        -0.0620
     13 C13        10.7370    4.2380  -37.6930 C.ar      1 PFT         0.0013
     14 O14        11.6170    2.6050  -39.2350 O.3       1 PFT        -0.3300
     15 C15        11.2170    3.9760  -35.3370 C.ar      1 PFT        -0.0373
     16 C16        18.6650    2.1650  -38.1170 C.ar      1 PFT        -0.0620
     17 C17        18.6840    0.8090  -38.5810 C.ar      1 PFT        -0.0620
     18 C18        10.6200    4.6770  -36.3670 C.ar      1 PFT         0.0850
     19 O19         9.9160    5.8340  -36.0960 O.3       1 PFT        -0.3321
     20 H          14.7230    3.1371  -36.4026 H         1 PFT         0.0371
     21 H          14.7294   -1.0269  -37.7967 H         1 PFT         0.0371
     22 H          12.3890    2.2989  -34.7968 H         1 PFT         0.0619
     23 H          17.5757    3.7392  -37.2416 H         1 PFT         0.0615
     24 H          17.5489   -0.9901  -38.8307 H         1 PFT         0.0615
     25 H          10.2739    4.7948  -38.4996 H         1 PFT         0.0476
     26 H          10.7649    2.4217  -39.6129 H         1 PFT         0.2508
     27 H          11.1229    4.3287  -34.3163 H         1 PFT         0.0471
     28 H          19.5659    2.7622  -38.1993 H         1 PFT         0.0617
     29 H          19.5898    0.3931  -39.0072 H         1 PFT         0.0617
     30 H           9.5714    6.1907  -36.9062 H         1 PFT         0.2500
@<TRIPOS>BOND
     1    1    2 am 
     2    1    3 1  
     3    1    4 1  
     4    2    5 1  
     5    2    6 2  
     6    3    7 2  
     7    4    8 2  
     8    5    9 ar 
     9    5   10 ar 
    10    7    8 ar 
    11    7   11 ar 
    12    8   12 ar 
    13    9   13 ar 
    14    9   14 1  
    15   10   15 ar 
    16   11   16 ar 
    17   12   17 ar 
    18   13   18 ar 
    19   15   18 ar 
    20   16   17 ar 
    21   18   19 1  
    22    3   20 1  
    23    4   21 1  
    24   10   22 1  
    25   11   23 1  
    26   12   24 1  
    27   13   25 1  
    28   14   26 1  
    29   15   27 1  
    30   16   28 1  
    31   17   29 1  
    32   19   30 1  
@<TRIPOS>SUBSTRUCTURE
     1 PFT         1

