### 
### Created by X-TOOL on Mon Sep 10 21:13:18 2018
### 

@<TRIPOS>MOLECULE
4mpc_ligand
   31    33     1     0     0
SMALL
GAST_HUCK


@<TRIPOS>ATOM
      1 O2         10.0180    6.0550  -36.3150 O.3       1 PV2        -0.3359
      2 C2         12.0400    2.4430  -36.5460 C.ar      1 PV2         0.1482
      3 C1         11.8740    3.0710  -35.2940 C.ar      1 PV2        -0.0501
      4 C4         10.8270    4.2540  -37.6150 C.ar      1 PV2        -0.0040
      5 C5         10.6820    4.8600  -36.3870 C.ar      1 PV2         0.0790
      6 C6         11.1990    4.2790  -35.2220 C.ar      1 PV2        -0.0426
      7 C3         11.5230    3.0300  -37.6830 C.ar      1 PV2         0.1076
      8 O3         12.2230   -0.1310  -37.3070 O.2       1 PV2        -0.1305
      9 C11        17.4600   -0.0900  -38.9160 C.ar      1 PV2        -0.0622
     10 C12        18.6270    0.6190  -38.9690 C.ar      1 PV2        -0.0620
     11 C13        18.7040    1.8890  -38.4050 C.ar      1 PV2        -0.0620
     12 C14        17.6290    2.5180  -37.7490 C.ar      1 PV2        -0.0622
     13 O4         13.2500    0.4890  -35.3090 O.2       1 PV2        -0.1305
     14 S          12.8940    0.9300  -36.6350 S.o2      1 PV2         0.1217
     15 O1         11.6640    2.4010  -38.9380 O.3       1 PV2        -0.3339
     16 N          14.2530    1.1240  -37.5540 N.am      1 PV2        -0.1733
     17 C10        15.1240    2.1560  -37.0930 C.2       1 PV2         0.0461
     18 C9         16.4410    1.8060  -37.6970 C.ar      1 PV2        -0.0317
     19 C8         16.3660    0.5390  -38.2550 C.ar      1 PV2        -0.0317
     20 C7         14.9860    0.0200  -38.0640 C.2       1 PV2         0.0461
     21 H           9.1302    5.9424  -36.6338 H         1 PV2         0.2478
     22 H          12.2712    2.6125  -34.3956 H         1 PV2         0.0582
     23 H          10.4153    4.7079  -38.5092 H         1 PV2         0.0462
     24 H          11.0713    4.7735  -34.2658 H         1 PV2         0.0451
     25 H          17.3715   -1.0779  -39.3534 H         1 PV2         0.0615
     26 H          19.4971    0.1901  -39.4528 H         1 PV2         0.0617
     27 H          19.6444    2.4237  -38.4748 H         1 PV2         0.0617
     28 H          17.7250    3.5041  -37.3091 H         1 PV2         0.0615
     29 H          12.1507    1.5920  -38.8326 H         1 PV2         0.2479
     30 H          14.8829    3.0014  -36.4503 H         1 PV2         0.0360
     31 H          14.6187   -0.9843  -38.2697 H         1 PV2         0.0360
@<TRIPOS>BOND
     1    5    1 1  
     2    2    3 ar 
     3    2    7 ar 
     4   14    2 1  
     5    3    6 ar 
     6    4    5 ar 
     7    7    4 ar 
     8    6    5 ar 
     9    7   15 1  
    10   14    8 2  
    11   10    9 ar 
    12    9   19 ar 
    13   11   10 ar 
    14   12   11 ar 
    15   18   12 ar 
    16   14   13 2  
    17   16   14 am 
    18   17   16 1  
    19   16   20 1  
    20   17   18 2  
    21   18   19 ar 
    22   19   20 2  
    23    1   21 1  
    24    3   22 1  
    25    4   23 1  
    26    6   24 1  
    27    9   25 1  
    28   10   26 1  
    29   11   27 1  
    30   12   28 1  
    31   15   29 1  
    32   17   30 1  
    33   20   31 1  
@<TRIPOS>SUBSTRUCTURE
     1 PV2         1

