### 
### Created by X-TOOL on Mon Sep 10 21:13:18 2018
### 

@<TRIPOS>MOLECULE
4mpe_ligand
   32    34     1     0     0
SMALL
GAST_HUCK


@<TRIPOS>ATOM
      1 C11        15.0350    2.2380  -37.0670 C.2       1 PV8         0.0404
      2 O01        11.6050    2.4720  -38.9340 O.3       1 PV8        -0.3072
      3 C02        11.4320    3.0810  -37.7410 C.2       1 PV8         0.1373
      4 C03        10.7350    4.3000  -37.6560 C.2       1 PV8        -0.0057
      5 C04        10.5880    4.8910  -36.4020 C.2       1 PV8         0.0741
      6 O05         9.9640    6.0470  -36.3110 O.2       1 PV8        -0.4375
      7 C06        11.1020    4.3400  -35.2390 C.2       1 PV8        -0.0252
      8 C07        11.8030    3.1190  -35.3050 C.2       1 PV8        -0.0116
      9 C08        11.9450    2.5240  -36.5670 C.3       1 PV8         0.2283
     10 S09        12.8290    1.0200  -36.6230 S.o2      1 PV8         0.1335
     11 N10        14.1500    1.2570  -37.6340 N.am      1 PV8        -0.1709
     12 C12        16.3860    1.8950  -37.6350 C.ar      1 PV8        -0.0430
     13 C13        16.3010    0.6250  -38.1810 C.ar      1 PV8        -0.0406
     14 C14        17.3990    0.0300  -38.8020 C.ar      1 PV8        -0.0338
     15 C15        18.5850    0.7450  -38.8440 C.ar      1 PV8         0.0874
     16 O16        19.6670    0.1640  -39.4320 O.3       1 PV8        -0.3331
     17 C17        18.6920    2.0670  -38.2790 C.ar      1 PV8        -0.0336
     18 C18        17.6310    2.6400  -37.6810 C.ar      1 PV8        -0.0711
     19 C19        14.9120    0.1260  -38.0030 C.2       1 PV8         0.0439
     20 O20        12.1000   -0.1590  -37.2620 O.2       1 PV8        -0.1257
     21 O21        13.1960    0.5910  -35.3100 O.2       1 PV8        -0.1257
     22 H          14.7845    3.0464  -36.3816 H         1 PV8         0.0343
     23 H          10.7568    2.2741  -39.3132 H         1 PV8         0.2633
     24 H          10.3209    4.7699  -38.5469 H         1 PV8         0.0235
     25 H          10.9657    4.8452  -34.2839 H         1 PV8         0.0483
     26 H          12.2181    2.6558  -34.4111 H         1 PV8         0.0892
     27 H          10.9988    1.9820  -36.4226 H         1 PV8         0.1106
     28 H          17.3268   -0.9599  -39.2377 H         1 PV8         0.0539
     29 H          20.4060    0.7596  -39.3913 H         1 PV8         0.2481
     30 H          19.6326    2.6028  -38.3361 H         1 PV8         0.0542
     31 H          17.7042    3.6301  -37.2459 H         1 PV8         0.0586
     32 H          14.5569   -0.8956  -38.1302 H         1 PV8         0.0358
@<TRIPOS>BOND
     1   11    1 1  
     2    1   12 2  
     3    3    2 1  
     4    3    4 2  
     5    9    3 1  
     6    4    5 1  
     7    5    6 2  
     8    7    5 1  
     9    8    7 2  
    10    9    8 1  
    11   10    9 1  
    12   10   11 am 
    13   10   20 2  
    14   10   21 2  
    15   11   19 1  
    16   12   13 ar 
    17   12   18 ar 
    18   13   14 ar 
    19   13   19 2  
    20   14   15 ar 
    21   15   16 1  
    22   15   17 ar 
    23   17   18 ar 
    24    1   22 1  
    25    2   23 1  
    26    4   24 1  
    27    7   25 1  
    28    8   26 1  
    29    9   27 1  
    30   14   28 1  
    31   16   29 1  
    32   17   30 1  
    33   18   31 1  
    34   19   32 1  
@<TRIPOS>SUBSTRUCTURE
     1 PV8         1

