### 
### Created by X-TOOL on Mon Sep 10 21:13:18 2018
### 

@<TRIPOS>MOLECULE
4mpn_ligand
   33    35     1     0     0
SMALL
GAST_HUCK


@<TRIPOS>ATOM
      1 C12        16.4750    1.8240  -37.5840 C.ar      1 PV0        -0.0150
      2 C13        16.3120    0.5580  -38.1370 C.ar      1 PV0        -0.0491
      3 O01        11.6470    2.3790  -38.8840 O.3       1 PV0        -0.3339
      4 C02        11.4780    3.0250  -37.6780 C.ar      1 PV0         0.1076
      5 C03        10.7980    4.2320  -37.6030 C.ar      1 PV0        -0.0040
      6 C04        10.6460    4.8540  -36.3670 C.ar      1 PV0         0.0790
      7 O05         9.9800    6.0520  -36.2640 O.3       1 PV0        -0.3359
      8 C06        11.1780    4.2870  -35.2250 C.ar      1 PV0        -0.0426
      9 C07        11.8670    3.0980  -35.2990 C.ar      1 PV0        -0.0501
     10 C08        12.0110    2.4650  -36.5280 C.ar      1 PV0         0.1482
     11 S09        12.8760    0.9530  -36.6190 S.o2      1 PV0         0.1215
     12 N10        14.2410    1.3390  -37.3990 N.am      1 PV0        -0.1762
     13 C11        15.2100    2.2950  -37.0040 C.2       1 PV0         0.0368
     14 C14        14.8710    0.1550  -37.9280 C.2       1 PV0         0.0410
     15 C15        17.4180   -0.0860  -38.7550 C.ar      1 PV0        -0.0449
     16 C16        18.6450    0.5860  -38.7870 C.ar      1 PV0         0.0787
     17 C17        18.7850    1.8590  -38.2250 C.ar      1 PV0        -0.0063
     18 C18        17.7120    2.4780  -37.6220 C.ar      1 PV0         0.0785
     19 O19        17.8050    3.7220  -37.0620 O.3       1 PV0        -0.3362
     20 O20        19.7410    0.0040  -39.3780 O.3       1 PV0        -0.3359
     21 O21        13.1870    0.5400  -35.2580 O.2       1 PV0        -0.1305
     22 O22        12.1930   -0.1290  -37.2970 O.2       1 PV0        -0.1305
     23 H          12.1320    1.5740  -38.7455 H         1 PV0         0.2479
     24 H          10.3890    4.6863  -38.4982 H         1 PV0         0.0462
     25 H           9.0882    5.9449  -36.5733 H         1 PV0         0.2478
     26 H          11.0523    4.7801  -34.2679 H         1 PV0         0.0451
     27 H          12.2944    2.6582  -34.4051 H         1 PV0         0.0582
     28 H          15.0510    3.1872  -36.4002 H         1 PV0         0.0323
     29 H          14.4119   -0.8114  -38.1310 H         1 PV0         0.0356
     30 H          17.3137   -1.0731  -39.1907 H         1 PV0         0.0448
     31 H          19.7444    2.3621  -38.2641 H         1 PV0         0.0461
     32 H          16.9618    3.9694  -36.7009 H         1 PV0         0.2478
     33 H          19.5012   -0.8517  -39.7138 H         1 PV0         0.2478
@<TRIPOS>BOND
     1    1    2 ar 
     2   13    1 2  
     3    1   18 ar 
     4    2   14 2  
     5    2   15 ar 
     6    4    3 1  
     7    4    5 ar 
     8   10    4 ar 
     9    5    6 ar 
    10    6    7 1  
    11    8    6 ar 
    12    9    8 ar 
    13   10    9 ar 
    14   11   10 1  
    15   12   11 am 
    16   11   21 2  
    17   11   22 2  
    18   12   13 1  
    19   12   14 1  
    20   15   16 ar 
    21   16   17 ar 
    22   16   20 1  
    23   17   18 ar 
    24   18   19 1  
    25    3   23 1  
    26    5   24 1  
    27    7   25 1  
    28    8   26 1  
    29    9   27 1  
    30   13   28 1  
    31   14   29 1  
    32   15   30 1  
    33   17   31 1  
    34   19   32 1  
    35   20   33 1  
@<TRIPOS>SUBSTRUCTURE
     1 PV0         1

