### 
### Created by X-TOOL on Mon Sep 10 21:13:19 2018
### 

@<TRIPOS>MOLECULE
4mqu_ligand
   55    57     1     0     0
SMALL
GAST_HUCK


@<TRIPOS>ATOM
      1 C13        44.6490  -20.8770  -15.5030 C.ar      1 MG9        -0.0275
      2 C12        45.3420  -19.6930  -15.7450 C.ar      1 MG9        -0.0145
      3 C11        45.0860  -18.5850  -14.9480 C.ar      1 MG9         0.1086
      4 N4         45.7390  -17.4710  -15.1680 N.pl3     1 MG9        -0.3221
      5 N3         44.1820  -18.6340  -13.9390 N.ar      1 MG9        -0.2837
      6 C10        43.5040  -19.7580  -13.6840 C.ar      1 MG9         0.0225
      7 C9         43.7170  -20.9150  -14.4610 C.ar      1 MG9         0.1218
      8 S1         42.7890  -22.3300  -14.1680 S.o2      1 MG9         0.0708
      9 O1         43.5320  -23.5390  -14.6350 O.2       1 MG9        -0.1507
     10 O2         42.4450  -22.3780  -12.7280 O.2       1 MG9        -0.1507
     11 N2         41.3910  -22.2030  -14.9480 N.am      1 MG9        -0.2292
     12 C3         40.8130  -20.8560  -14.7460 C.3       1 MG9         0.0651
     13 C2         39.3850  -20.7470  -15.3830 C.3       1 MG9         0.1243
     14 C6         38.5120  -21.7560  -14.7390 C.1       1 MG9        -0.0714
     15 C7         37.8150  -22.5870  -14.2360 C.1       1 MG9        -0.1031
     16 C8         36.9700  -23.6170  -13.6350 C.3       1 MG9        -0.0025
     17 C4         41.6320  -22.4280  -16.3730 C.3       1 MG9         0.0511
     18 C1         40.3230  -22.3530  -17.1520 C.3       1 MG9         0.0538
     19 N1         39.4220  -21.2450  -16.7910 N.pl3     1 MG9        -0.2702
     20 C5         38.4060  -20.9920  -17.6790 C.ar      1 MG9         0.0805
     21 C14        37.2650  -20.3540  -17.2750 C.ar      1 MG9        -0.0089
     22 C15        36.2370  -20.1120  -18.1830 C.ar      1 MG9        -0.0463
     23 C18        38.4780  -21.4020  -19.0030 C.ar      1 MG9        -0.0089
     24 C17        37.4630  -21.1300  -19.9090 C.ar      1 MG9        -0.0463
     25 C16        36.3070  -20.4970  -19.5010 C.ar      1 MG9        -0.0246
     26 C19        35.1280  -20.2280  -20.4460 C.3       1 MG9         0.2275
     27 C20        34.7430  -21.5250  -21.1680 C.3       1 MG9         0.3926
     28 F6         33.6850  -21.3160  -21.9530 F         1 MG9        -0.1784
     29 F4         34.4290  -22.4880  -20.2790 F         1 MG9        -0.1784
     30 F5         35.7850  -21.9150  -21.8960 F         1 MG9        -0.1784
     31 C21        35.4130  -19.0930  -21.4320 C.3       1 MG9         0.3926
     32 F3         36.4390  -19.3680  -22.2310 F         1 MG9        -0.1784
     33 F1         35.6320  -17.9700  -20.7720 F         1 MG9        -0.1784
     34 F2         34.3520  -18.8930  -22.1990 F         1 MG9        -0.1784
     35 O3         34.0150  -19.9170  -19.6560 O.3       1 MG9        -0.4221
     36 H          44.8293  -21.7550  -16.1127 H         1 MG9         0.0719
     37 H          46.0715  -19.6373  -16.5449 H         1 MG9         0.0611
     38 H          45.5569  -16.6432  -14.5828 H         1 MG9         0.1766
     39 H          46.4345  -17.4229  -15.9262 H         1 MG9         0.1766
     40 H          42.7848  -19.7798  -12.8733 H         1 MG9         0.0801
     41 H          41.4718  -20.1096  -15.2139 H         1 MG9         0.0512
     42 H          40.7401  -20.6556  -13.6669 H         1 MG9         0.0512
     43 H          38.9893  -19.7236  -15.3052 H         1 MG9         0.0727
     44 H          36.4055  -23.1845  -12.7958 H         1 MG9         0.0362
     45 H          37.6004  -24.4400  -13.2673 H         1 MG9         0.0362
     46 H          36.2680  -24.0017  -14.3895 H         1 MG9         0.0362
     47 H          42.0800  -23.4229  -16.5122 H         1 MG9         0.0499
     48 H          42.3224  -21.6590  -16.7497 H         1 MG9         0.0499
     49 H          39.7797  -23.2956  -16.9897 H         1 MG9         0.0553
     50 H          40.5710  -22.2517  -18.2189 H         1 MG9         0.0553
     51 H          37.1607  -20.0356  -16.2441 H         1 MG9         0.0631
     52 H          35.3465  -19.5999  -17.8369 H         1 MG9         0.0815
     53 H          39.3512  -21.9498  -19.3385 H         1 MG9         0.0631
     54 H          37.5794  -21.4177  -20.9476 H         1 MG9         0.0815
     55 H          33.8533  -20.6266  -19.0453 H         1 MG9         0.1926
@<TRIPOS>BOND
     1    1    2 ar 
     2    1    7 ar 
     3    2    3 ar 
     4    3    4 1  
     5    3    5 ar 
     6    5    6 ar 
     7    6    7 ar 
     8    7    8 1  
     9    8    9 2  
    10    8   10 2  
    11    8   11 am 
    12   11   12 1  
    13   11   17 1  
    14   12   13 1  
    15   13   14 1  
    16   13   19 1  
    17   14   15 3  
    18   15   16 1  
    19   17   18 1  
    20   18   19 1  
    21   19   20 1  
    22   20   21 ar 
    23   20   23 ar 
    24   21   22 ar 
    25   22   25 ar 
    26   23   24 ar 
    27   24   25 ar 
    28   25   26 1  
    29   26   27 1  
    30   26   31 1  
    31   26   35 1  
    32   27   28 1  
    33   27   29 1  
    34   27   30 1  
    35   31   32 1  
    36   31   33 1  
    37   31   34 1  
    38    1   36 1  
    39    2   37 1  
    40    4   38 1  
    41    4   39 1  
    42    6   40 1  
    43   12   41 1  
    44   12   42 1  
    45   13   43 1  
    46   16   44 1  
    47   16   45 1  
    48   16   46 1  
    49   17   47 1  
    50   17   48 1  
    51   18   49 1  
    52   18   50 1  
    53   21   51 1  
    54   22   52 1  
    55   23   53 1  
    56   24   54 1  
    57   35   55 1  
@<TRIPOS>SUBSTRUCTURE
     1 MG9         1

