### 
### Created by X-TOOL on Mon Sep 10 21:13:12 2018
### 

@<TRIPOS>MOLECULE
4mr3_ligand
   42    44     1     0     0
SMALL
GAST_HUCK


@<TRIPOS>ATOM
      1 O1         22.4690   31.5070   20.6270 O.3       1 1K0        -0.3230
      2 C1         23.2390   31.2210   19.4790 C.3       1 1K0         0.0600
      3 C2         22.4540   32.7550   21.1970 C.ar      1 1K0         0.0796
      4 C3         21.5710   33.0200   22.2560 C.ar      1 1K0        -0.0062
      5 C4         21.4970   34.2350   22.8460 C.ar      1 1K0         0.0986
      6 N1         23.0880   37.6200   22.4370 N.am      1 1K0        -0.2048
      7 C5         19.8640   33.4040   24.4470 C.3       1 1K0         0.0607
      8 O2         20.6610   34.4930   23.9260 O.3       1 1K0        -0.3202
      9 C6         22.2900   35.3110   22.4130 C.ar      1 1K0         0.0799
     10 O3         27.1960   41.5700   19.7830 O.3       1 1K0        -0.3344
     11 N2         23.9620   36.0700   20.8360 N.2       1 1K0        -0.3082
     12 C7         22.2460   36.6240   22.9880 C.2       1 1K0         0.2215
     13 C8         23.8980   37.3060   21.3890 C.2       1 1K0         0.1489
     14 O5         21.4940   36.9730   23.9220 O.2       1 1K0        -0.3966
     15 C9         24.7590   38.3670   20.8420 C.ar      1 1K0         0.0219
     16 C18        26.0220   38.1430   20.2540 C.ar      1 1K0        -0.0529
     17 C16        26.8270   39.2150   19.8920 C.ar      1 1K0        -0.0136
     18 C17        28.1800   38.8780   19.3520 C.3       1 1K0        -0.0328
     19 C13        26.3720   40.5500   20.0640 C.ar      1 1K0         0.0999
     20 C11        25.1080   40.7880   20.5860 C.ar      1 1K0        -0.0136
     21 C12        24.6350   42.2030   20.7390 C.3       1 1K0        -0.0328
     22 C10        24.3180   39.7290   20.9730 C.ar      1 1K0        -0.0529
     23 C19        23.1720   35.0130   21.3330 C.ar      1 1K0         0.0024
     24 C20        23.2720   33.7710   20.7290 C.ar      1 1K0        -0.0348
     25 H1         23.1005   30.1666   19.1980 H         1 1K0         0.0579
     26 H2         24.3016   31.4065   19.6946 H         1 1K0         0.0579
     27 H3         22.9149   31.8670   18.6498 H         1 1K0         0.0579
     28 H4         20.9270   32.2243   22.6127 H         1 1K0         0.0420
     29 H5         23.0877   38.5460   22.8144 H         1 1K0         0.2481
     30 H6         19.2602   33.7637   25.2931 H         1 1K0         0.0581
     31 H7         20.5267   32.5947   24.7874 H         1 1K0         0.0581
     32 H8         19.1990   33.0255   23.6567 H         1 1K0         0.0581
     33 H9         27.4529   41.5257   18.8695 H         1 1K0         0.2469
     34 H10        26.3656   37.1290   20.0840 H         1 1K0         0.0544
     35 H11        28.2975   37.7850   19.3134 H         1 1K0         0.0367
     36 H12        28.9532   39.3070   20.0062 H         1 1K0         0.0367
     37 H13        28.2846   39.2939   18.3391 H         1 1K0         0.0367
     38 H14        23.6204   42.2065   21.1640 H         1 1K0         0.0367
     39 H15        24.6218   42.6937   19.7546 H         1 1K0         0.0367
     40 H16        25.3157   42.7466   21.4107 H         1 1K0         0.0367
     41 H17        23.3364   39.9276   21.3879 H         1 1K0         0.0544
     42 H18        23.9680   33.5989   19.9160 H         1 1K0         0.0390
@<TRIPOS>BOND
     1    1    2 1  
     2    3    1 1  
     3    4    3 ar 
     4    3   24 ar 
     5    5    4 ar 
     6    5    8 1  
     7    9    5 ar 
     8    6   12 am 
     9   13    6 1  
    10    8    7 1  
    11   12    9 1  
    12   23    9 ar 
    13   19   10 1  
    14   13   11 2  
    15   11   23 1  
    16   12   14 2  
    17   15   13 1  
    18   16   15 ar 
    19   15   22 ar 
    20   17   16 ar 
    21   17   18 1  
    22   17   19 ar 
    23   19   20 ar 
    24   20   21 1  
    25   20   22 ar 
    26   23   24 ar 
    27    2   25 1  
    28    2   26 1  
    29    2   27 1  
    30    4   28 1  
    31    6   29 1  
    32    7   30 1  
    33    7   31 1  
    34    7   32 1  
    35   10   33 1  
    36   16   34 1  
    37   18   35 1  
    38   18   36 1  
    39   18   37 1  
    40   21   38 1  
    41   21   39 1  
    42   21   40 1  
    43   22   41 1  
    44   24   42 1  
@<TRIPOS>SUBSTRUCTURE
     1 1K0         1

