### 
### Created by X-TOOL on Mon Sep 10 21:13:12 2018
### 

@<TRIPOS>MOLECULE
4mr4_ligand
   49    51     1     0     0
SMALL
GAST_HUCK


@<TRIPOS>ATOM
      1 O1         27.7130   15.8490    0.3550 O.3       1 1K0        -0.3230
      2 C1         26.9460   14.9330   -0.4550 C.3       1 1K0         0.0600
      3 C2         29.0610   15.9900    0.0050 C.ar      1 1K0         0.0796
      4 C3         29.8320   16.9060    0.6910 C.ar      1 1K0        -0.0062
      5 C4         31.1580   17.0890    0.3100 C.ar      1 1K0         0.0986
      6 N1         33.5430   15.7430   -2.2280 N.am      1 1K0        -0.2048
      7 C5         31.3240   19.0110    1.8890 C.3       1 1K0         0.0607
      8 O2         31.9440   18.0110    0.9710 O.3       1 1K0        -0.3202
      9 C6         31.7270   16.3490   -0.7280 C.ar      1 1K0         0.0799
     10 O3         35.0830   11.3140   -6.5850 O.3       1 1K0        -0.3170
     11 N2         31.4230   14.6230   -2.4990 N.2       1 1K0        -0.3082
     12 C7         33.1270   16.5650   -1.1180 C.2       1 1K0         0.2215
     13 C8         32.6930   14.8440   -2.8610 C.2       1 1K0         0.1489
     14 O4         36.6090    8.9220   -7.3050 O.3       1 1K0        -0.3924
     15 O5         33.9610   17.3340   -0.6190 O.2       1 1K0        -0.3966
     16 C9         33.2740   13.9980   -3.9810 C.ar      1 1K0         0.0219
     17 C18        34.6570   13.9550   -4.1220 C.ar      1 1K0        -0.0529
     18 C16        35.2530   13.0860   -5.0440 C.ar      1 1K0        -0.0134
     19 C17        36.7620   13.0610   -5.1530 C.3       1 1K0        -0.0328
     20 C13        34.4550   12.2610   -5.7850 C.ar      1 1K0         0.1035
     21 C14        35.1730   10.0580   -5.8760 C.3       1 1K0         0.0925
     22 C15        36.6450    9.6070   -6.0750 C.3       1 1K0         0.0718
     23 C11        33.0440   12.2600   -5.6830 C.ar      1 1K0        -0.0134
     24 C12        32.2090   11.2790   -6.4740 C.3       1 1K0        -0.0328
     25 C10        32.4370   13.1600   -4.7740 C.ar      1 1K0        -0.0529
     26 C19        30.9500   15.3960   -1.4110 C.ar      1 1K0         0.0024
     27 C20        29.6000   15.1900   -1.0460 C.ar      1 1K0        -0.0348
     28 H1         25.9083   14.9025   -0.0913 H         1 1K0         0.0579
     29 H2         27.3872   13.9275   -0.3892 H         1 1K0         0.0579
     30 H3         26.9578   15.2709   -1.5017 H         1 1K0         0.0579
     31 H4         29.4117   17.4738    1.5132 H         1 1K0         0.0420
     32 H5         34.4841   15.8236   -2.5564 H         1 1K0         0.2481
     33 H6         32.1088   19.6524    2.3164 H         1 1K0         0.0581
     34 H7         30.7968   18.4870    2.6999 H         1 1K0         0.0581
     35 H8         30.6094   19.6307    1.3275 H         1 1K0         0.0581
     36 H9         36.3144    9.5138   -7.9872 H         1 1K0         0.2095
     37 H10        35.2792   14.6002   -3.5124 H         1 1K0         0.0544
     38 H11        37.1915   13.8062   -4.4673 H         1 1K0         0.0367
     39 H12        37.0591   13.2984   -6.1852 H         1 1K0         0.0367
     40 H13        37.1324   12.0603   -4.8857 H         1 1K0         0.0367
     41 H14        34.4786    9.3194   -6.3028 H         1 1K0         0.0636
     42 H15        34.9495   10.1970   -4.8080 H         1 1K0         0.0636
     43 H16        37.3196   10.4743   -6.1263 H         1 1K0         0.0584
     44 H17        36.9664    8.9400   -5.2615 H         1 1K0         0.0584
     45 H18        31.1438   11.4431   -6.2538 H         1 1K0         0.0367
     46 H19        32.4871   10.2520   -6.1947 H         1 1K0         0.0367
     47 H20        32.3884   11.4280   -7.5490 H         1 1K0         0.0367
     48 H21        31.3580   13.2107   -4.6830 H         1 1K0         0.0544
     49 H22        28.9926   14.4466   -1.5495 H         1 1K0         0.0390
@<TRIPOS>BOND
     1    1    2 1  
     2    3    1 1  
     3    4    3 ar 
     4    3   27 ar 
     5    5    4 ar 
     6    5    8 1  
     7    9    5 ar 
     8    6   12 am 
     9   13    6 1  
    10    8    7 1  
    11   12    9 1  
    12   26    9 ar 
    13   10   20 1  
    14   21   10 1  
    15   13   11 2  
    16   11   26 1  
    17   12   15 2  
    18   16   13 1  
    19   22   14 1  
    20   17   16 ar 
    21   16   25 ar 
    22   18   17 ar 
    23   18   19 1  
    24   20   18 ar 
    25   20   23 ar 
    26   21   22 1  
    27   23   24 1  
    28   23   25 ar 
    29   26   27 ar 
    30    2   28 1  
    31    2   29 1  
    32    2   30 1  
    33    4   31 1  
    34    6   32 1  
    35    7   33 1  
    36    7   34 1  
    37    7   35 1  
    38   14   36 1  
    39   17   37 1  
    40   19   38 1  
    41   19   39 1  
    42   19   40 1  
    43   21   41 1  
    44   21   42 1  
    45   22   43 1  
    46   22   44 1  
    47   24   45 1  
    48   24   46 1  
    49   24   47 1  
    50   25   48 1  
    51   27   49 1  
@<TRIPOS>SUBSTRUCTURE
     1 1K0         1

