### 
### Created by X-TOOL on Mon Sep 10 21:13:12 2018
### 

@<TRIPOS>MOLECULE
4mr5_ligand
   42    44     1     0     0
SMALL
GAST_HUCK


@<TRIPOS>ATOM
      1 O1         45.4380   -2.5670   23.6400 O.3       1 1K0        -0.3233
      2 C1         46.6550   -2.6470   24.3800 C.3       1 1K0         0.0601
      3 C2         44.5800   -3.6360   23.5850 C.ar      1 1K0         0.0794
      4 C3         43.4290   -3.5670   22.7700 C.ar      1 1K0        -0.0087
      5 C4         42.5890   -4.6620   22.6940 C.ar      1 1K0         0.0964
      6 N1         42.2620   -8.0980   24.1540 N.2       1 1K0        -0.2677
      7 C5         41.0200   -3.2670   21.3990 C.3       1 1K0         0.0607
      8 O2         41.4180   -4.5550   21.9460 O.3       1 1K0        -0.3207
      9 C6         42.8410   -5.8080   23.3630 C.ar      1 1K0         0.0790
     10 O3         44.5610  -12.7230   27.9070 O.3       1 1K0        -0.3335
     11 N2         44.1720   -6.9620   25.0050 N.pl3     1 1K0        -0.2402
     12 C7         41.9800   -6.9660   23.2970 C.2       1 1K0         0.1489
     13 C8         43.3310   -8.0530   24.9630 C.2       1 1K0         0.1461
     14 O5         40.9500   -7.0450   22.5100 O.2       1 1K0        -0.4112
     15 C9         43.6740   -9.2490   25.8090 C.ar      1 1K0         0.0251
     16 C18        44.9680   -9.3960   26.3570 C.ar      1 1K0        -0.0509
     17 C16        45.2670  -10.5500   27.0150 C.ar      1 1K0        -0.0122
     18 C17        46.6980  -10.6470   27.5200 C.3       1 1K0        -0.0325
     19 C13        44.3010  -11.5680   27.1630 C.ar      1 1K0         0.1014
     20 C11        43.0270  -11.4470   26.6120 C.ar      1 1K0        -0.0122
     21 C12        42.0550  -12.5190   26.6950 C.3       1 1K0        -0.0325
     22 C10        42.7210  -10.2400   25.9320 C.ar      1 1K0        -0.0509
     23 C19        43.9620   -5.8330   24.2000 C.ar      1 1K0         0.0765
     24 C20        44.8460   -4.7270   24.3150 C.ar      1 1K0        -0.0127
     25 H1         47.1967   -1.6931   24.2990 H         1 1K0         0.0580
     26 H2         47.2780   -3.4579   23.9747 H         1 1K0         0.0580
     27 H3         46.4288   -2.8516   25.4369 H         1 1K0         0.0580
     28 H4         43.2067   -2.6656   22.2104 H         1 1K0         0.0397
     29 H5         40.0773   -3.3801   20.8435 H         1 1K0         0.0581
     30 H6         41.8036   -2.8989   20.7204 H         1 1K0         0.0581
     31 H7         40.8781   -2.5482   22.2195 H         1 1K0         0.0581
     32 H8         43.7966  -13.2870   27.8916 H         1 1K0         0.2473
     33 H9         44.9780   -6.9762   25.6461 H         1 1K0         0.2296
     34 H10        45.7057   -8.6082   26.2559 H         1 1K0         0.0557
     35 H11        47.2368   -9.7198   27.2753 H         1 1K0         0.0368
     36 H12        47.1994  -11.5001   27.0395 H         1 1K0         0.0368
     37 H13        46.6930  -10.7912   28.6105 H         1 1K0         0.0368
     38 H14        41.1244  -12.2095   26.1969 H         1 1K0         0.0368
     39 H15        41.8477  -12.7451   27.7514 H         1 1K0         0.0368
     40 H16        42.4551  -13.4160   26.1997 H         1 1K0         0.0368
     41 H17        41.7343  -10.0954   25.5071 H         1 1K0         0.0557
     42 H18        45.7075   -4.7648   24.9719 H         1 1K0         0.0387
@<TRIPOS>BOND
     1    1    2 1  
     2    3    1 1  
     3    4    3 ar 
     4    3   24 ar 
     5    5    4 ar 
     6    5    8 1  
     7    9    5 ar 
     8    6   12 1  
     9   13    6 2  
    10    8    7 1  
    11   12    9 1  
    12   23    9 ar 
    13   19   10 1  
    14   13   11 1  
    15   11   23 1  
    16   12   14 2  
    17   15   13 1  
    18   16   15 ar 
    19   15   22 ar 
    20   17   16 ar 
    21   17   18 1  
    22   17   19 ar 
    23   19   20 ar 
    24   20   21 1  
    25   20   22 ar 
    26   23   24 ar 
    27    2   25 1  
    28    2   26 1  
    29    2   27 1  
    30    4   28 1  
    31    7   29 1  
    32    7   30 1  
    33    7   31 1  
    34   10   32 1  
    35   11   33 1  
    36   16   34 1  
    37   18   35 1  
    38   18   36 1  
    39   18   37 1  
    40   21   38 1  
    41   21   39 1  
    42   21   40 1  
    43   22   41 1  
    44   24   42 1  
@<TRIPOS>SUBSTRUCTURE
     1 1K0         1

