### 
### Created by X-TOOL on Mon Sep 10 21:13:12 2018
### 

@<TRIPOS>MOLECULE
4mr6_ligand
   49    51     1     0     0
SMALL
GAST_HUCK


@<TRIPOS>ATOM
      1 O1         -7.5970   45.7380   38.6640 O.3       1 1K0        -0.3230
      2 C1         -8.3790   46.9340   38.7580 C.3       1 1K0         0.0600
      3 C2         -7.5560   44.8380   39.7210 C.ar      1 1K0         0.0796
      4 C3         -6.7870   43.7010   39.6000 C.ar      1 1K0        -0.0062
      5 C4         -6.6870   42.8180   40.7080 C.ar      1 1K0         0.0986
      6 N1         -8.1000   42.6380   44.1230 N.am      1 1K0        -0.2048
      7 C5         -5.4150   41.2530   39.3210 C.3       1 1K0         0.0607
      8 O2         -5.9360   41.7010   40.6110 O.3       1 1K0        -0.3202
      9 C6         -7.3830   43.1060   41.8930 C.ar      1 1K0         0.0799
     10 O3        -11.6250   45.0390   48.9500 O.3       1 1K0        -0.3170
     11 N2         -8.9760   44.5320   43.0780 N.2       1 1K0        -0.3082
     12 C7         -7.2840   42.2630   43.0750 C.2       1 1K0         0.2215
     13 C8         -8.8960   43.7270   44.0950 C.2       1 1K0         0.1489
     14 O4        -12.8400   44.6750   51.3310 O.3       1 1K0        -0.3924
     15 O5         -6.5360   41.3030   43.2840 O.2       1 1K0        -0.3966
     16 C9         -9.6670   44.0170   45.3480 C.ar      1 1K0         0.0219
     17 C18        -9.8750   43.0640   46.3510 C.ar      1 1K0        -0.0529
     18 C16       -10.5510   43.3820   47.5480 C.ar      1 1K0        -0.0134
     19 C17       -10.6660   42.3180   48.6060 C.3       1 1K0        -0.0328
     20 C13       -11.0100   44.6780   47.7190 C.ar      1 1K0         0.1035
     21 C14       -12.9430   44.6260   48.9530 C.3       1 1K0         0.0925
     22 C15       -13.5370   45.2960   50.2470 C.3       1 1K0         0.0718
     23 C11       -10.8160   45.6350   46.7450 C.ar      1 1K0        -0.0134
     24 C12       -11.2540   47.0750   46.9670 C.3       1 1K0        -0.0328
     25 C10       -10.1450   45.3170   45.5490 C.ar      1 1K0        -0.0529
     26 C19        -8.1970   44.2640   41.9580 C.ar      1 1K0         0.0024
     27 C20        -8.2790   45.1540   40.8750 C.ar      1 1K0        -0.0348
     28 H1         -8.2813   47.5101   37.8260 H         1 1K0         0.0579
     29 H2         -8.0214   47.5405   39.6031 H         1 1K0         0.0579
     30 H3         -9.4350   46.6701   38.9169 H         1 1K0         0.0579
     31 H4         -6.2667   43.4840   38.6741 H         1 1K0         0.0420
     32 H5         -8.1013   42.0721   44.9475 H         1 1K0         0.2481
     33 H6         -4.8332   40.3301   39.4611 H         1 1K0         0.0581
     34 H7         -4.7672   42.0338   38.8960 H         1 1K0         0.0581
     35 H8         -6.2525   41.0579   38.6351 H         1 1K0         0.0581
     36 H9        -11.9087   44.8406   51.2435 H         1 1K0         0.2095
     37 H10        -9.5072   42.0549   46.2047 H         1 1K0         0.0544
     38 H11       -10.2308   41.3798   48.2313 H         1 1K0         0.0367
     39 H12       -11.7263   42.1580   48.8514 H         1 1K0         0.0367
     40 H13       -10.1250   42.6384   49.5086 H         1 1K0         0.0367
     41 H14       -13.0111   43.5297   49.0117 H         1 1K0         0.0636
     42 H15       -13.4671   44.9782   48.0523 H         1 1K0         0.0636
     43 H16       -13.3555   46.3809   50.2401 H         1 1K0         0.0584
     44 H17       -14.6178   45.1054   50.3210 H         1 1K0         0.0584
     45 H18       -11.0110   47.6735   46.0766 H         1 1K0         0.0367
     46 H19       -10.7284   47.4876   47.8407 H         1 1K0         0.0367
     47 H20       -12.3392   47.1050   47.1440 H         1 1K0         0.0367
     48 H21        -9.9993   46.0749   44.7878 H         1 1K0         0.0544
     49 H22        -8.8812   46.0536   40.9317 H         1 1K0         0.0390
@<TRIPOS>BOND
     1    1    2 1  
     2    3    1 1  
     3    4    3 ar 
     4    3   27 ar 
     5    5    4 ar 
     6    5    8 1  
     7    9    5 ar 
     8    6   12 am 
     9   13    6 1  
    10    8    7 1  
    11   12    9 1  
    12   26    9 ar 
    13   10   20 1  
    14   21   10 1  
    15   13   11 2  
    16   11   26 1  
    17   12   15 2  
    18   16   13 1  
    19   22   14 1  
    20   17   16 ar 
    21   16   25 ar 
    22   18   17 ar 
    23   18   19 1  
    24   20   18 ar 
    25   20   23 ar 
    26   21   22 1  
    27   23   24 1  
    28   23   25 ar 
    29   26   27 ar 
    30    2   28 1  
    31    2   29 1  
    32    2   30 1  
    33    4   31 1  
    34    6   32 1  
    35    7   33 1  
    36    7   34 1  
    37    7   35 1  
    38   14   36 1  
    39   17   37 1  
    40   19   38 1  
    41   19   39 1  
    42   19   40 1  
    43   21   41 1  
    44   21   42 1  
    45   22   43 1  
    46   22   44 1  
    47   24   45 1  
    48   24   46 1  
    49   24   47 1  
    50   25   48 1  
    51   27   49 1  
@<TRIPOS>SUBSTRUCTURE
     1 1K0         1

