### 
### Created by X-TOOL on Mon Sep 10 21:13:18 2018
### 

@<TRIPOS>MOLECULE
4mra_ligand
   32    34     1     0     0
SMALL
GAST_HUCK


@<TRIPOS>ATOM
      1 C1          8.2080   23.7750   29.5360 C.ar      1 QUE        -0.0094
      2 C2          7.6880   25.0600   29.6380 C.ar      1 QUE         0.0929
      3 C3          7.0900   25.4800   30.9310 C.ar      1 QUE         0.0812
      4 C4          7.0720   24.5580   32.0960 C.ar      1 QUE         0.1206
      5 C5          7.6340   23.2910   31.8990 C.ar      1 QUE        -0.0055
      6 C6          8.1830   22.9150   30.6560 C.ar      1 QUE         0.0766
      7 C9          6.5140   26.8220   31.0970 C.2       1 QUE         0.1453
      8 C10         5.9370   27.1990   32.4220 C.2       1 QUE         0.1600
      9 C11         5.9770   26.2150   33.5280 C.2       1 QUE         0.1531
     10 C14         5.3890   26.6070   34.8410 C.ar      1 QUE        -0.0055
     11 C15         6.0050   27.6070   35.6280 C.ar      1 QUE        -0.0720
     12 C16         5.4480   27.9890   36.8640 C.ar      1 QUE        -0.0408
     13 C17         4.2680   27.3690   37.3240 C.ar      1 QUE         0.1166
     14 C18         3.6210   26.3240   36.4900 C.ar      1 QUE         0.1158
     15 C19         4.2040   25.9720   35.2630 C.ar      1 QUE        -0.0332
     16 O12         6.5350   24.9630   33.3200 O.3       1 QUE        -0.2591
     17 O13         6.5350   27.5860   30.1060 O.2       1 QUE        -0.4153
     18 O23         2.4780   25.7360   36.9340 O.3       1 QUE        -0.3371
     19 O24         3.6960   27.6730   38.5180 O.3       1 QUE        -0.3363
     20 O27         5.3710   28.4160   32.6410 O.3       1 QUE        -0.3400
     21 O29         8.7220   21.6550   30.5680 O.3       1 QUE        -0.3353
     22 O30         7.6850   25.9150   28.5810 O.3       1 QUE        -0.3327
     23 H           8.6319   23.4336   28.5986 H         1 QUE         0.0396
     24 H           7.6474   22.5835   32.7202 H         1 QUE         0.0393
     25 H           6.9133   28.0836   35.2774 H         1 QUE         0.0495
     26 H           5.9255   28.7580   37.4604 H         1 QUE         0.0514
     27 H           3.7436   25.2130   34.6410 H         1 QUE         0.0495
     28 H           2.2410   26.1036   37.7774 H         1 QUE         0.2442
     29 H           4.2042   28.3507   38.9479 H         1 QUE         0.2450
     30 H           5.4191   28.9340   31.8462 H         1 QUE         0.2421
     31 H           9.0582   21.5162   29.6904 H         1 QUE         0.2494
     32 H           8.1015   25.4975   27.8362 H         1 QUE         0.2504
@<TRIPOS>BOND
     1    1    2 ar 
     2    1    6 ar 
     3    2    3 ar 
     4    2   22 1  
     5    3    4 ar 
     6    3    7 1  
     7    4    5 ar 
     8    4   16 1  
     9    5    6 ar 
    10    6   21 1  
    11    7    8 1  
    12    7   17 2  
    13    8    9 2  
    14    8   20 1  
    15    9   10 1  
    16    9   16 1  
    17   10   11 ar 
    18   10   15 ar 
    19   11   12 ar 
    20   12   13 ar 
    21   13   14 ar 
    22   13   19 1  
    23   14   15 ar 
    24   14   18 1  
    25    1   23 1  
    26    5   24 1  
    27   11   25 1  
    28   12   26 1  
    29   15   27 1  
    30   18   28 1  
    31   19   29 1  
    32   20   30 1  
    33   21   31 1  
    34   22   32 1  
@<TRIPOS>SUBSTRUCTURE
     1 QUE         1

