### 
### Created by X-TOOL on Mon Sep 10 21:13:18 2018
### 

@<TRIPOS>MOLECULE
4mrd_ligand
   94    97     1     0     0
SMALL
GAST_HUCK


@<TRIPOS>ATOM
      1 C1         10.3020  -11.9610    8.0710 C.3       1 BDP         0.1903
      2 C2         10.5090  -10.6100    7.4070 C.3       1 BDP         0.1344
      3 C3         10.5840  -10.7530    5.8860 C.3       1 BDP         0.1156
      4 C4         11.5810  -11.8260    5.4490 C.3       1 BDP         0.1214
      5 C5         11.4370  -13.0980    6.2880 C.3       1 BDP         0.1420
      6 C6         12.6030  -14.0080    5.9880 C.2       1 BDP         0.0663
      7 O2          9.4140   -9.7830    7.7820 O.3       1 BDP        -0.3841
      8 O3         10.9360   -9.5120    5.2520 O.3       1 BDP        -0.3863
      9 O4         11.3330  -12.1290    4.0640 O.3       1 BDP        -0.3848
     10 O5         11.3820  -12.8180    7.6970 O.3       1 BDP        -0.3285
     11 O6A        13.6370  -13.8810    6.6980 O.co2     1 BDP        -0.5662
     12 O1         10.2840  -11.7000    9.4840 O.3       1 NAG        -0.3402
     13 O6B        12.4850  -14.8550    5.0540 O.co2     1 BDP        -0.5662
     14 C1          8.7330  -13.4200   12.4220 C.3       1 NAG         0.1855
     15 C2          8.9440  -12.3410   11.3710 C.3       1 NAG         0.1213
     16 C3          9.9850  -12.7880   10.3500 C.3       1 NAG         0.1176
     17 C4         11.2700  -13.2490   11.0350 C.3       1 NAG         0.1120
     18 C5         10.9530  -14.2250   12.1780 C.3       1 NAG         0.1130
     19 C6         12.2280  -14.6650   12.9100 C.3       1 NAG         0.0730
     20 C7          6.8810  -11.2870   10.5840 C.2       1 NAG         0.1733
     21 C8          5.6890  -11.4800    9.6980 C.3       1 NAG         0.0257
     22 N2          7.7190  -12.3170   10.6020 N.am      1 NAG        -0.2766
     23 O4         12.0950  -13.8710   10.0350 O.3       1 NAG        -0.3865
     24 O5          9.9880  -13.6500   13.0760 O.3       1 NAG        -0.3408
     25 O6         12.0430  -14.6200   14.3310 O.3       1 NAG        -0.3924
     26 O7          7.0510  -10.2640   11.2210 O.2       1 NAG        -0.3974
     27 C1          5.1530  -14.5370   16.2930 C.3       1 BDP         0.1903
     28 C2          6.6660  -14.5940   16.5750 C.3       1 BDP         0.1344
     29 C3          7.5020  -13.8180   15.5660 C.3       1 BDP         0.1159
     30 C4          7.0930  -14.0250   14.1050 C.3       1 BDP         0.1279
     31 C5          5.5580  -13.9700   13.9570 C.3       1 BDP         0.1424
     32 C6          5.1160  -14.4150   12.5910 C.2       1 BDP         0.0664
     33 O2          6.9860  -14.0710   17.8680 O.3       1 BDP        -0.3841
     34 O3          8.8900  -14.1190   15.7650 O.3       1 BDP        -0.3863
     35 O4          7.7130  -12.9830   13.3210 O.3       1 BDP        -0.3387
     36 O5          4.8650  -14.7860   14.9090 O.3       1 BDP        -0.3285
     37 O6A         5.4710  -15.5370   12.1600 O.co2     1 BDP        -0.5662
     38 O1          4.5290  -15.6200   17.0010 O.3       1 NAG        -0.3403
     39 O6B         4.3940  -13.6280   11.9360 O.co2     1 BDP        -0.5662
     40 C1          1.6570  -16.0710   19.3140 C.3       1 NAG         0.0737
     41 C2          3.0490  -16.3010   18.7350 C.3       1 NAG         0.0939
     42 C3          3.2000  -15.4250   17.4890 C.3       1 NAG         0.1150
     43 C4          2.1660  -15.8770   16.4490 C.3       1 NAG         0.1118
     44 C5          0.7550  -16.0650   17.0190 C.3       1 NAG         0.1100
     45 C6          0.0030  -17.0350   16.1170 C.3       1 NAG         0.0729
     46 C7          5.0810  -16.4900   20.1950 C.2       1 NAG         0.1733
     47 C8          5.8600  -15.7410   21.2300 C.3       1 NAG         0.0257
     48 N2          4.0080  -15.8250   19.7390 N.am      1 NAG        -0.2793
     49 O4          2.0920  -14.9430   15.3600 O.3       1 NAG        -0.3865
     50 O5          0.6880  -16.5490   18.3790 O.3       1 NAG        -0.3693
     51 O6         -1.3680  -17.0210   16.5090 O.3       1 NAG        -0.3924
     52 O7          5.4220  -17.6080   19.8300 O.2       1 NAG        -0.3974
     53 H           9.3485  -12.4105    7.7568 H         1 BDP         0.0939
     54 H          11.4474  -10.1637    7.7678 H         1 BDP         0.0671
     55 H           9.5857  -11.0496    5.5319 H         1 BDP         0.0649
     56 H          12.6038  -11.4377    5.5635 H         1 BDP         0.0665
     57 H          10.5038  -13.6040    5.9998 H         1 BDP         0.0794
     58 H           8.6046  -10.1702    7.4695 H         1 BDP         0.2101
     59 H          10.9030   -9.6191    4.3086 H         1 BDP         0.2100
     60 H          11.9604  -12.7769    3.7655 H         1 BDP         0.2102
     61 H           8.4054  -14.3524   11.9390 H         1 BDP         0.0935
     62 H           9.1942  -11.3705   11.8243 H         1 BDP         0.0633
     63 H           9.5743  -13.6217    9.7616 H         1 BDP         0.0649
     64 H          11.7965  -12.3773   11.4507 H         1 BDP         0.0647
     65 H          10.5007  -15.1244   11.7347 H         1 BDP         0.0647
     66 H          13.0529  -13.9923   12.6327 H         1 BDP         0.0584
     67 H          12.4778  -15.6939   12.6117 H         1 BDP         0.0584
     68 H           5.0509  -10.5850    9.7417 H         1 BDP         0.0467
     69 H           5.1166  -12.3553   10.0388 H         1 BDP         0.0467
     70 H           6.0239  -11.6413    8.6627 H         1 BDP         0.0467
     71 H           7.4904  -13.1211   10.0532 H         1 BDP         0.1857
     72 H          12.2753  -13.2469    9.3418 H         1 BDP         0.2100
     73 H          11.8303  -13.7321   14.5936 H         1 BDP         0.2095
     74 H           4.7462  -13.5642   16.6062 H         1 BDP         0.0939
     75 H           6.9686  -15.6509   16.5366 H         1 BDP         0.0671
     76 H           7.3582  -12.7495   15.7843 H         1 BDP         0.0649
     77 H           7.4502  -15.0064   13.7597 H         1 BDP         0.0669
     78 H           5.2487  -12.9249   14.1056 H         1 BDP         0.0794
     79 H           7.9135  -14.1899   18.0358 H         1 BDP         0.2101
     80 H           9.4181  -13.5487   15.2186 H         1 BDP         0.2100
     81 H           1.5023  -14.9964   19.4907 H         1 BDP         0.0584
     82 H           1.5560  -16.6170   20.2636 H         1 BDP         0.0584
     83 H           3.2123  -17.3620   18.4953 H         1 BDP         0.0605
     84 H           3.0398  -14.3657   17.7386 H         1 BDP         0.0648
     85 H           2.5016  -16.8469   16.0531 H         1 BDP         0.0647
     86 H           0.2522  -15.0871   16.9911 H         1 BDP         0.0646
     87 H           0.4147  -18.0486   16.2318 H         1 BDP         0.0584
     88 H           0.0954  -16.7184   15.0676 H         1 BDP         0.0584
     89 H           6.7190  -16.3477   21.5526 H         1 BDP         0.0467
     90 H           5.2136  -15.5315   22.0950 H         1 BDP         0.0467
     91 H           6.2201  -14.7933   20.8033 H         1 BDP         0.0467
     92 H           3.8459  -14.9152   20.1211 H         1 BDP         0.1856
     93 H           2.9595  -14.8149   14.9947 H         1 BDP         0.2100
     94 H          -1.7153  -16.1422   16.4110 H         1 BDP         0.2095
@<TRIPOS>BOND
     1    1    2 1  
     2    1   10 1  
     3   12    1 1  
     4    2    3 1  
     5    2    7 1  
     6    3    4 1  
     7    3    8 1  
     8    5    4 1  
     9    4    9 1  
    10    5    6 1  
    11   10    5 1  
    12    6   11 ar 
    13    6   13 ar 
    14   16   12 1  
    15   14   15 1  
    16   14   24 1  
    17   35   14 1  
    18   15   16 1  
    19   15   22 1  
    20   16   17 1  
    21   18   17 1  
    22   17   23 1  
    23   18   19 1  
    24   24   18 1  
    25   19   25 1  
    26   20   21 1  
    27   22   20 am 
    28   20   26 2  
    29   27   28 1  
    30   27   36 1  
    31   38   27 1  
    32   28   29 1  
    33   28   33 1  
    34   29   30 1  
    35   29   34 1  
    36   31   30 1  
    37   30   35 1  
    38   31   32 1  
    39   36   31 1  
    40   32   37 ar 
    41   32   39 ar 
    42   42   38 1  
    43   41   40 1  
    44   40   50 1  
    45   41   42 1  
    46   48   41 1  
    47   42   43 1  
    48   43   44 1  
    49   43   49 1  
    50   44   45 1  
    51   50   44 1  
    52   45   51 1  
    53   46   47 1  
    54   46   48 am 
    55   46   52 2  
    56    1   53 1  
    57    2   54 1  
    58    3   55 1  
    59    4   56 1  
    60    5   57 1  
    61    7   58 1  
    62    8   59 1  
    63    9   60 1  
    64   14   61 1  
    65   15   62 1  
    66   16   63 1  
    67   17   64 1  
    68   18   65 1  
    69   19   66 1  
    70   19   67 1  
    71   21   68 1  
    72   21   69 1  
    73   21   70 1  
    74   22   71 1  
    75   23   72 1  
    76   25   73 1  
    77   27   74 1  
    78   28   75 1  
    79   29   76 1  
    80   30   77 1  
    81   31   78 1  
    82   33   79 1  
    83   34   80 1  
    84   40   81 1  
    85   40   82 1  
    86   41   83 1  
    87   42   84 1  
    88   43   85 1  
    89   44   86 1  
    90   45   87 1  
    91   45   88 1  
    92   47   89 1  
    93   47   90 1  
    94   47   91 1  
    95   48   92 1  
    96   49   93 1  
    97   51   94 1  
@<TRIPOS>SUBSTRUCTURE
     1 BDP         1

