### 
### Created by X-TOOL on Mon Sep 10 21:13:18 2018
### 

@<TRIPOS>MOLECULE
4mre_ligand
   19    19     1     0     0
SMALL
GAST_HUCK


@<TRIPOS>ATOM
      1 CAA        12.4070   -5.0500    0.6870 C.3       1 2C9        -0.0381
      2 CAG        11.7010   -4.4870   -0.3910 C.ar      1 2C9        -0.0392
      3 CAE        12.3080   -3.5770   -1.2700 C.ar      1 2C9        -0.0851
      4 CAD        11.5980   -3.0100   -2.3350 C.ar      1 2C9        -0.0933
      5 CAF        10.2430   -3.3430   -2.5600 C.ar      1 2C9        -0.0624
      6 CAH         9.6450   -4.2510   -1.6690 C.ar      1 2C9         0.0477
      7 NAB         8.3510   -4.6140   -1.7990 N.pl3     1 2C9        -0.3434
      8 CAI        10.3610   -4.8130   -0.6150 C.ar      1 2C9         0.0557
      9 NAC         9.7410   -5.6790    0.2350 N.pl3     1 2C9        -0.3454
     10 H          13.4387   -4.6684    0.6889 H         1 2C9         0.0359
     11 H          12.4213   -6.1451    0.5841 H         1 2C9         0.0359
     12 H          11.9134   -4.7768    1.6313 H         1 2C9         0.0359
     13 H          13.3474   -3.3077   -1.1214 H         1 2C9         0.0414
     14 H          12.0934   -2.3071   -2.9950 H         1 2C9         0.0456
     15 H           9.6872   -2.9153   -3.3866 H         1 2C9         0.0422
     16 H           7.7812   -4.2245   -2.5635 H         1 2C9         0.1677
     17 H           7.9337   -5.2804   -1.1337 H         1 2C9         0.1677
     18 H          10.2654   -6.0978    1.0164 H         1 2C9         0.1656
     19 H           8.7480   -5.9147    0.0961 H         1 2C9         0.1656
@<TRIPOS>BOND
     1    1    2 1  
     2    2    3 ar 
     3    2    8 ar 
     4    3    4 ar 
     5    4    5 ar 
     6    5    6 ar 
     7    6    7 1  
     8    6    8 ar 
     9    8    9 1  
    10    1   10 1  
    11    1   11 1  
    12    1   12 1  
    13    3   13 1  
    14    4   14 1  
    15    5   15 1  
    16    7   16 1  
    17    7   17 1  
    18    9   18 1  
    19    9   19 1  
@<TRIPOS>SUBSTRUCTURE
     1 2C9         1

