### 
### Created by X-TOOL on Mon Sep 10 21:13:18 2018
### 

@<TRIPOS>MOLECULE
4mrf_ligand
   22    23     1     0     0
SMALL
GAST_HUCK


@<TRIPOS>ATOM
      1 CAE         9.9300   -6.4600    0.8730 C.3       1 2CK        -0.0238
      2 CAF         9.1740   -5.6590   -0.2140 C.3       1 2CK         0.0189
      3 CAI        10.0040   -4.7680   -0.9380 C.ar      1 2CK        -0.0309
      4 CAC         9.4230   -4.0700   -1.9850 C.ar      1 2CK        -0.0665
      5 CAA        10.1550   -3.1700   -2.7610 C.ar      1 2CK        -0.0755
      6 CAB        11.5080   -2.9530   -2.4790 C.ar      1 2CK        -0.0753
      7 CAD        12.1180   -3.6630   -1.4320 C.ar      1 2CK        -0.0618
      8 CAJ        11.3680   -4.5660   -0.6490 C.ar      1 2CK         0.0035
      9 CAG        11.9980   -5.2760    0.4040 C.3       1 2CK        -0.0020
     10 NAH        11.0540   -5.7150    1.4520 N.4       1 2CK         0.2394
     11 H          10.3174   -7.3853    0.4217 H         1 2CK         0.0836
     12 H           9.2241   -6.7123    1.6780 H         1 2CK         0.0836
     13 H           8.3784   -5.0760    0.2730 H         1 2CK         0.0463
     14 H           8.7256   -6.3709   -0.9226 H         1 2CK         0.0463
     15 H           8.3736   -4.2270   -2.2068 H         1 2CK         0.0537
     16 H           9.6775   -2.6417   -3.5783 H         1 2CK         0.0541
     17 H          12.0809   -2.2426   -3.0639 H         1 2CK         0.0541
     18 H          13.1717   -3.5164   -1.2241 H         1 2CK         0.0539
     19 H          12.7532   -4.6222    0.8646 H         1 2CK         0.0964
     20 H          12.4905   -6.1644   -0.0181 H         1 2CK         0.0964
     21 H          11.5405   -6.3086    2.1054 H         1 2CK         0.2028
     22 H          10.6981   -4.9048    1.9346 H         1 2CK         0.2028
@<TRIPOS>BOND
     1    1    2 1  
     2    1   10 1  
     3    2    3 1  
     4    3    4 ar 
     5    3    8 ar 
     6    4    5 ar 
     7    5    6 ar 
     8    6    7 ar 
     9    7    8 ar 
    10    8    9 1  
    11    9   10 1  
    12    1   11 1  
    13    1   12 1  
    14    2   13 1  
    15    2   14 1  
    16    4   15 1  
    17    5   16 1  
    18    6   17 1  
    19    7   18 1  
    20    9   19 1  
    21    9   20 1  
    22   10   21 1  
    23   10   22 1  
@<TRIPOS>SUBSTRUCTURE
     1 2CK         1

