### 
### Created by X-TOOL on Mon Sep 10 21:13:17 2018
### 

@<TRIPOS>MOLECULE
4mrg_ligand
   24    25     1     0     0
SMALL
GAST_HUCK


@<TRIPOS>ATOM
      1 CAG        12.3240   -4.9690    0.7350 C.3       1 24W        -0.0052
      2 NAH        11.4020   -5.5960    1.7340 N.4       1 24W         0.2390
      3 CAE        10.3820   -6.3890    1.0260 C.3       1 24W        -0.0258
      4 CAF         9.5190   -5.4860    0.1490 C.3       1 24W         0.0151
      5 CAK        10.3150   -4.6470   -0.7080 C.ar      1 24W        -0.0137
      6 CAJ        11.6710   -4.3780   -0.4030 C.ar      1 24W        -0.0080
      7 CAD        12.3800   -3.5280   -1.2740 C.ar      1 24W        -0.0749
      8 CAB        11.7760   -2.9490   -2.4010 C.ar      1 24W        -0.0867
      9 CAC        10.4120   -3.1900   -2.6860 C.ar      1 24W        -0.0578
     10 CAI         9.7170   -4.0430   -1.8330 C.ar      1 24W         0.0312
     11 NAA         8.3870   -4.3150   -2.0830 N.pl3     1 24W        -0.3415
     12 H          13.0114   -5.7460    0.3693 H         1 24W         0.0961
     13 H          12.8983   -4.1824    1.2463 H         1 24W         0.0961
     14 H          10.9516   -4.8748    2.2753 H         1 24W         0.2028
     15 H          11.9293   -6.1971    2.3478 H         1 24W         0.2028
     16 H           9.7424   -6.8971    1.7627 H         1 24W         0.0833
     17 H          10.8803   -7.1388    0.3940 H         1 24W         0.0833
     18 H           8.9009   -4.8471    0.7969 H         1 24W         0.0435
     19 H           8.8673   -6.1148   -0.4754 H         1 24W         0.0435
     20 H          13.4227   -3.3147   -1.0679 H         1 24W         0.0432
     21 H          12.3590   -2.3129   -3.0572 H         1 24W         0.0510
     22 H           9.9255   -2.7276   -3.5372 H         1 24W         0.0440
     23 H           7.8638   -4.9447   -1.4580 H         1 24W         0.1695
     24 H           7.9178   -3.8882   -2.8945 H         1 24W         0.1695
@<TRIPOS>BOND
     1    1    2 1  
     2    1    6 1  
     3    2    3 1  
     4    3    4 1  
     5    4    5 1  
     6    5    6 ar 
     7    5   10 ar 
     8    6    7 ar 
     9    7    8 ar 
    10    8    9 ar 
    11    9   10 ar 
    12   10   11 1  
    13    1   12 1  
    14    1   13 1  
    15    2   14 1  
    16    2   15 1  
    17    3   16 1  
    18    3   17 1  
    19    4   18 1  
    20    4   19 1  
    21    7   20 1  
    22    8   21 1  
    23    9   22 1  
    24   11   23 1  
    25   11   24 1  
@<TRIPOS>SUBSTRUCTURE
     1 24W         1

