### 
### Created by X-TOOL on Mon Sep 10 21:13:17 2018
### 

@<TRIPOS>MOLECULE
4mrh_ligand
   19    19     1     0     0
SMALL
GAST_HUCK


@<TRIPOS>ATOM
      1 NAB         2.5940    4.5330  -11.1050 N.pl3     1 2CQ        -0.3426
      2 CAH         1.8070    4.1300  -10.1030 C.ar      1 2CQ         0.0486
      3 CAE         1.3590    4.9950   -9.0800 C.ar      1 2CQ        -0.0534
      4 CAG         0.5530    4.5210   -8.0170 C.ar      1 2CQ        -0.0567
      5 CAA         0.0670    5.3960   -6.9750 C.3       1 2CQ        -0.0395
      6 CAJ         0.2380    3.1510   -8.0030 C.ar      1 2CQ         0.0153
      7 CL         -0.7030    2.4790   -6.7070 Cl        1 2CQ        -0.0926
      8 CAF         0.6950    2.2840   -9.0050 C.ar      1 2CQ        -0.0484
      9 CAI         1.4800    2.7590  -10.0570 C.ar      1 2CQ         0.0482
     10 NAC         1.9260    1.9390  -11.0410 N.pl3     1 2CQ        -0.3453
     11 H           2.8616    5.5246  -11.1828 H         1 2CQ         0.1682
     12 H           2.9330    3.8520  -11.7995 H         1 2CQ         0.1682
     13 H           1.6378    6.0421   -9.1095 H         1 2CQ         0.0417
     14 H           0.4189    6.4210   -7.1632 H         1 2CQ         0.0367
     15 H           0.4450    5.0517   -6.0011 H         1 2CQ         0.0367
     16 H          -1.0329    5.3816   -6.9674 H         1 2CQ         0.0367
     17 H           0.4358    1.2323   -8.9625 H         1 2CQ         0.0462
     18 H           2.5038    2.3180  -11.8048 H         1 2CQ         0.1660
     19 H           1.6869    0.9373  -11.0244 H         1 2CQ         0.1660
@<TRIPOS>BOND
     1    1    2 1  
     2    2    3 ar 
     3    2    9 ar 
     4    3    4 ar 
     5    4    5 1  
     6    4    6 ar 
     7    6    7 1  
     8    6    8 ar 
     9    8    9 ar 
    10    9   10 1  
    11    1   11 1  
    12    1   12 1  
    13    3   13 1  
    14    5   14 1  
    15    5   15 1  
    16    5   16 1  
    17    8   17 1  
    18   10   18 1  
    19   10   19 1  
@<TRIPOS>SUBSTRUCTURE
     1 2CQ         1

