### 
### Created by X-TOOL on Mon Sep 10 21:13:20 2018
### 

@<TRIPOS>MOLECULE
4mro_ligand
   50    52     1     0     0
SMALL
GAST_HUCK


@<TRIPOS>ATOM
      1 C18        -4.2430   49.0180  -15.5330 C.ar      1 MG0        -0.0275
      2 C17        -5.5930   49.0640  -15.7530 C.ar      1 MG0        -0.0145
      3 C16        -6.4310   48.3470  -14.9050 C.ar      1 MG0         0.1086
      4 N4         -7.7340   48.3890  -15.1060 N.pl3     1 MG0        -0.3221
      5 N3         -5.9280   47.6110  -13.8810 N.ar      1 MG0        -0.2837
      6 C15        -4.6140   47.5390  -13.6680 C.ar      1 MG0         0.0225
      7 C14        -3.7340   48.2620  -14.4800 C.ar      1 MG0         0.1218
      8 S1         -2.0070   48.1350  -14.2670 S.o2      1 MG0         0.0708
      9 O2         -1.3750   49.4250  -14.7010 O.2       1 MG0        -0.1507
     10 O3         -1.7010   47.7240  -12.8970 O.2       1 MG0        -0.1507
     11 N2         -1.4510   46.9390  -15.1840 N.am      1 MG0        -0.2305
     12 C11        -1.5740   47.2530  -16.5720 C.3       1 MG0         0.0510
     13 C10        -0.8940   46.1530  -17.3650 C.3       1 MG0         0.0526
     14 C12        -2.2820   45.7640  -14.9010 C.3       1 MG0         0.0510
     15 C13        -1.8420   44.4990  -15.7050 C.3       1 MG0         0.0526
     16 N1         -1.3470   44.8010  -17.0420 N.pl3     1 MG0        -0.2844
     17 C5         -1.0410   43.7840  -17.9440 C.ar      1 MG0         0.0795
     18 C4         -0.6370   44.0690  -19.2640 C.ar      1 MG0        -0.0089
     19 C3         -0.3430   43.0780  -20.1980 C.ar      1 MG0        -0.0463
     20 C6         -1.0970   42.4780  -17.5920 C.ar      1 MG0        -0.0089
     21 C1         -0.7750   41.4570  -18.5050 C.ar      1 MG0        -0.0463
     22 C2         -0.3940   41.7450  -19.8170 C.ar      1 MG0        -0.0246
     23 C7         -0.0150   40.6090  -20.7570 C.3       1 MG0         0.2275
     24 C8          1.3080   40.8580  -21.4430 C.3       1 MG0         0.3926
     25 F6          1.6660   39.7490  -22.1410 F         1 MG0        -0.1784
     26 F4          2.1890   41.1710  -20.4930 F         1 MG0        -0.1784
     27 F5          1.1920   41.8820  -22.2720 F         1 MG0        -0.1784
     28 C9         -1.1050   40.3370  -21.7640 C.3       1 MG0         0.3926
     29 F3         -2.2040   40.0290  -21.0850 F         1 MG0        -0.1784
     30 F1         -1.2180   41.4270  -22.5740 F         1 MG0        -0.1784
     31 F2         -0.7960   39.2620  -22.4760 F         1 MG0        -0.1784
     32 O1          0.2350   39.4820  -19.9870 O.3       1 MG0        -0.4221
     33 H          -3.5697   49.5702  -16.1786 H         1 MG0         0.0719
     34 H          -6.0008   49.6469  -16.5709 H         1 MG0         0.0611
     35 H          -8.3678   47.8637  -14.4869 H         1 MG0         0.1766
     36 H          -8.1177   48.9471  -15.8820 H         1 MG0         0.1766
     37 H          -4.2277   46.9205  -12.8659 H         1 MG0         0.0801
     38 H          -1.0887   48.2178  -16.7807 H         1 MG0         0.0499
     39 H          -2.6371   47.3098  -16.8489 H         1 MG0         0.0499
     40 H           0.1873   46.2081  -17.1707 H         1 MG0         0.0552
     41 H          -1.0842   46.3325  -18.4335 H         1 MG0         0.0552
     42 H          -3.3242   46.0004  -15.1618 H         1 MG0         0.0499
     43 H          -2.2151   45.5376  -13.8267 H         1 MG0         0.0499
     44 H          -2.7082   43.8274  -15.7983 H         1 MG0         0.0552
     45 H          -1.0430   43.9913  -15.1448 H         1 MG0         0.0552
     46 H          -0.5512   45.1065  -19.5661 H         1 MG0         0.0631
     47 H          -0.0766   43.3462  -21.2140 H         1 MG0         0.0815
     48 H          -1.3965   42.2130  -16.5845 H         1 MG0         0.0631
     49 H          -0.8238   40.4233  -18.1824 H         1 MG0         0.0815
     50 H           0.9347   39.6688  -19.3721 H         1 MG0         0.1926
@<TRIPOS>BOND
     1    1    2 ar 
     2    1    7 ar 
     3    2    3 ar 
     4    3    4 1  
     5    3    5 ar 
     6    5    6 ar 
     7    6    7 ar 
     8    7    8 1  
     9    8    9 2  
    10    8   10 2  
    11    8   11 am 
    12   11   12 1  
    13   11   14 1  
    14   12   13 1  
    15   13   16 1  
    16   14   15 1  
    17   15   16 1  
    18   16   17 1  
    19   17   18 ar 
    20   17   20 ar 
    21   18   19 ar 
    22   19   22 ar 
    23   20   21 ar 
    24   21   22 ar 
    25   22   23 1  
    26   23   24 1  
    27   23   28 1  
    28   23   32 1  
    29   24   25 1  
    30   24   26 1  
    31   24   27 1  
    32   28   29 1  
    33   28   30 1  
    34   28   31 1  
    35    1   33 1  
    36    2   34 1  
    37    4   35 1  
    38    4   36 1  
    39    6   37 1  
    40   12   38 1  
    41   12   39 1  
    42   13   40 1  
    43   13   41 1  
    44   14   42 1  
    45   14   43 1  
    46   15   44 1  
    47   15   45 1  
    48   18   46 1  
    49   19   47 1  
    50   20   48 1  
    51   21   49 1  
    52   32   50 1  
@<TRIPOS>SUBSTRUCTURE
     1 MG0         1

