### 
### Created by X-TOOL on Mon Sep 10 21:13:20 2018
### 

@<TRIPOS>MOLECULE
4mrw_ligand
   18    19     1     0     0
SMALL
GAST_HUCK


@<TRIPOS>ATOM
      1 O1          3.0590  -26.2230  -35.8960 O.3       1 MRW        -0.3159
      2 C2          3.8100  -27.2400  -35.5050 C.ar      1 MRW         0.1217
      3 C3          4.3810  -28.0580  -36.4690 C.ar      1 MRW        -0.0052
      4 C4          5.1610  -29.1270  -36.0570 C.ar      1 MRW        -0.0060
      5 N5          5.3710  -29.3800  -34.7470 N.ar      1 MRW        -0.3165
      6 C6          4.8270  -28.5970  -33.7950 C.ar      1 MRW         0.0357
      7 C7          5.0690  -28.8900  -32.4550 C.ar      1 MRW        -0.0306
      8 C8          4.5090  -28.0830  -31.4670 C.ar      1 MRW         0.0437
      9 CL9         4.8160  -28.4480  -29.7940 Cl        1 MRW        -0.0671
     10 C10         3.7160  -26.9890  -31.8230 C.ar      1 MRW        -0.0443
     11 C11         3.4740  -26.6950  -33.1610 C.ar      1 MRW        -0.0449
     12 C12         4.0310  -27.5010  -34.1540 C.ar      1 MRW         0.0419
     13 H           2.7384  -25.7559  -35.1334 H         1 MRW         0.2578
     14 H           4.2203  -27.8649  -37.5235 H         1 MRW         0.0578
     15 H           5.6118  -29.7733  -36.8014 H         1 MRW         0.0815
     16 H           5.6873  -29.7380  -32.1834 H         1 MRW         0.0624
     17 H           3.2854  -26.3636  -31.0494 H         1 MRW         0.0619
     18 H           2.8568  -25.8454  -33.4301 H         1 MRW         0.0660
@<TRIPOS>BOND
     1    1    2 1  
     2    2    3 ar 
     3    2   12 ar 
     4    3    4 ar 
     5    4    5 ar 
     6    5    6 ar 
     7    6    7 ar 
     8    6   12 ar 
     9    7    8 ar 
    10    8    9 1  
    11    8   10 ar 
    12   10   11 ar 
    13   11   12 ar 
    14    1   13 1  
    15    3   14 1  
    16    4   15 1  
    17    7   16 1  
    18   10   17 1  
    19   11   18 1  
@<TRIPOS>SUBSTRUCTURE
     1 MRW         1

