### 
### Created by X-TOOL on Mon Sep 10 21:13:19 2018
### 

@<TRIPOS>MOLECULE
4mrz_ligand
   18    18     1     0     0
SMALL
GAST_HUCK


@<TRIPOS>ATOM
      1 C1          5.2330  -30.3280  -34.7940 C.3       1 2ZV        -0.0213
      2 C2          4.6130  -28.9480  -34.8860 C.ar      1 2ZV         0.0056
      3 C3          4.4580  -28.4010  -36.1570 C.ar      1 2ZV        -0.0384
      4 C4          3.8930  -27.1380  -36.2930 C.ar      1 2ZV        -0.0063
      5 N5          3.4920  -26.4490  -35.1970 N.ar      1 2ZV        -0.2856
      6 C6          3.6190  -26.9480  -33.9510 C.ar      1 2ZV         0.1462
      7 N7          3.1760  -26.2220  -32.9090 N.pl3     1 2ZV        -0.3173
      8 C8          4.1780  -28.2240  -33.7570 C.ar      1 2ZV         0.2440
      9 N9          4.3170  -28.7110  -32.5000 N.2       1 2ZV         0.3090
     10 O10         5.2490  -29.4710  -32.2600 O.2       1 2ZV         0.1702
     11 O11         3.5820  -28.3930  -31.5700 O.2       1 2ZV         0.1702
     12 H           5.4888  -30.6830  -35.8032 H         1 2ZV         0.0430
     13 H           4.5157  -31.0222  -34.3320 H         1 2ZV         0.0430
     14 H           6.1445  -30.2803  -34.1802 H         1 2ZV         0.0430
     15 H           4.7751  -28.9552  -37.0330 H         1 2ZV         0.0555
     16 H           3.7728  -26.7030  -37.2786 H         1 2ZV         0.0802
     17 H           3.2655  -26.5887  -31.9507 H         1 2ZV         0.1796
     18 H           2.7473  -25.2993  -33.0694 H         1 2ZV         0.1796
@<TRIPOS>BOND
     1    1    2 1  
     2    2    3 ar 
     3    2    8 ar 
     4    3    4 ar 
     5    4    5 ar 
     6    5    6 ar 
     7    6    7 1  
     8    6    8 ar 
     9    8    9 1  
    10    9   10 2  
    11    9   11 2  
    12    1   12 1  
    13    1   13 1  
    14    1   14 1  
    15    3   15 1  
    16    4   16 1  
    17    7   17 1  
    18    7   18 1  
@<TRIPOS>SUBSTRUCTURE
     1 2ZV         1

