### 
### Created by X-TOOL on Mon Sep 10 21:13:20 2018
### 

@<TRIPOS>MOLECULE
4ms0_ligand
   14    14     1     0     0
SMALL
GAST_HUCK


@<TRIPOS>ATOM
      1 N1         -5.7460  -30.2280   32.8310 N.pl3     1 2ZX        -0.3186
      2 C2         -5.0960  -29.1490   33.2910 C.ar      1 2ZX         0.1074
      3 C3         -5.0930  -28.8550   34.6520 C.ar      1 2ZX         0.0080
      4 C4         -4.3760  -27.7160   35.0620 C.ar      1 2ZX         0.1059
      5 CL5        -4.3510  -27.2720   36.7300 Cl        1 2ZX        -0.0371
      6 N6         -3.7220  -26.9290   34.1750 N.ar      1 2ZX        -0.2585
      7 C7         -3.7350  -27.2510   32.8650 C.ar      1 2ZX         0.1671
      8 N8         -3.0860  -26.4830   31.9960 N.pl3     1 2ZX        -0.3070
      9 N9         -4.4110  -28.3460   32.4310 N.ar      1 2ZX        -0.2469
     10 H          -6.2637  -30.8343   33.4832 H         1 2ZX         0.1804
     11 H          -5.7276  -30.4505   31.8255 H         1 2ZX         0.1804
     12 H          -5.6208  -29.4774   35.3655 H         1 2ZX         0.0543
     13 H          -2.5733  -25.6525   32.3252 H         1 2ZX         0.1823
     14 H          -3.0957  -26.7182   30.9933 H         1 2ZX         0.1823
@<TRIPOS>BOND
     1    1    2 1  
     2    2    3 ar 
     3    2    9 ar 
     4    3    4 ar 
     5    4    5 1  
     6    4    6 ar 
     7    6    7 ar 
     8    7    8 1  
     9    7    9 ar 
    10    1   10 1  
    11    1   11 1  
    12    3   12 1  
    13    8   13 1  
    14    8   14 1  
@<TRIPOS>SUBSTRUCTURE
     1 2ZX         1

