### 
### Created by X-TOOL on Mon Sep 10 21:13:18 2018
### 

@<TRIPOS>MOLECULE
4msa_ligand
   17    18     1     0     0
SMALL
GAST_HUCK


@<TRIPOS>ATOM
      1 O1          4.3230  -28.0040  -29.5820 O.2       1 2ZM         0.1753
      2 N2          4.4260  -28.7140  -30.5750 N.2       1 2ZM         0.3080
      3 O3          4.7490  -29.8880  -30.4320 O.2       1 2ZM         0.1753
      4 C4          4.1990  -28.1950  -31.8000 C.ar      1 2ZM         0.1871
      5 C5          3.5090  -26.9820  -31.9110 C.ar      1 2ZM        -0.0338
      6 C6          3.2530  -26.3850  -33.1400 C.ar      1 2ZM        -0.0539
      7 C7          3.7240  -27.0680  -34.2600 C.ar      1 2ZM         0.0388
      8 N8          3.6270  -26.7620  -35.5670 N.2       1 2ZM        -0.3020
      9 C9          4.2320  -27.7480  -36.2680 C.2       1 2ZM         0.1059
     10 N10         4.7160  -28.6800  -35.4210 N.pl3     1 2ZM        -0.2483
     11 C11         4.4080  -28.2860  -34.1640 C.ar      1 2ZM         0.0921
     12 C12         4.6710  -28.8830  -32.9280 C.ar      1 2ZM         0.0044
     13 H           3.1627  -26.4918  -31.0083 H         1 2ZM         0.0590
     14 H           2.7193  -25.4451  -33.2224 H         1 2ZM         0.0568
     15 H           4.3158  -27.7841  -37.3532 H         1 2ZM         0.1370
     16 H           5.2266  -29.5351  -35.6834 H         1 2ZM         0.2349
     17 H           5.2075  -29.8213  -32.8458 H         1 2ZM         0.0634
@<TRIPOS>BOND
     1    1    2 2  
     2    2    3 2  
     3    2    4 1  
     4    4    5 ar 
     5    4   12 ar 
     6    5    6 ar 
     7    6    7 ar 
     8    7    8 1  
     9    7   11 ar 
    10    8    9 2  
    11    9   10 1  
    12   10   11 1  
    13   11   12 ar 
    14    5   13 1  
    15    6   14 1  
    16    9   15 1  
    17   10   16 1  
    18   12   17 1  
@<TRIPOS>SUBSTRUCTURE
     1 2ZM         1

