### 
### Created by X-TOOL on Mon Sep 10 21:13:20 2018
### 

@<TRIPOS>MOLECULE
4msc_ligand
   36    39     1     0     0
SMALL
GAST_HUCK


@<TRIPOS>ATOM
      1 C1          4.2690   19.7590   36.9560 C.ar      1 2ZT        -0.0435
      2 C2          4.3040   20.3580   35.7010 C.ar      1 2ZT        -0.0585
      3 C3          3.7140   19.7150   34.6130 C.ar      1 2ZT        -0.0581
      4 C4          3.0790   18.4810   34.7750 C.ar      1 2ZT        -0.0488
      5 C5          3.0410   17.8860   36.0320 C.ar      1 2ZT         0.0021
      6 C6          2.4320   16.6470   36.2190 C.ar      1 2ZT        -0.0375
      7 C7          2.4150   16.0710   37.4890 C.ar      1 2ZT        -0.0251
      8 C8          3.0100   16.7390   38.5600 C.ar      1 2ZT         0.0575
      9 C9          3.0010   16.1450   39.9560 C.3       1 2ZT         0.1225
     10 O10         3.0050   14.6890   39.9410 O.3       1 2ZT        -0.2981
     11 C11         3.4690   13.8600   40.8810 C.ar      1 2ZT         0.1015
     12 C12         3.5130   14.2210   42.2260 C.ar      1 2ZT        -0.0141
     13 C13         3.9970   13.3430   43.2000 C.ar      1 2ZT         0.0354
     14 N14         4.0380   13.7210   44.5060 N.ar      1 2ZT        -0.3031
     15 C15         4.5060   12.8730   45.4630 C.ar      1 2ZT         0.0056
     16 C16         4.9600   11.6060   45.1040 C.ar      1 2ZT        -0.0355
     17 C17         4.9270   11.2020   43.7830 C.ar      1 2ZT        -0.0390
     18 C18         4.4450   12.0810   42.8280 C.ar      1 2ZT         0.0002
     19 C19         4.4030   11.7170   41.4840 C.ar      1 2ZT        -0.0480
     20 C20         3.9150   12.6010   40.5290 C.ar      1 2ZT        -0.0216
     21 N21         3.5980   17.9320   38.3440 N.ar      1 2ZT        -0.2978
     22 C22         3.6310   18.5220   37.1230 C.ar      1 2ZT         0.0363
     23 H           4.7346   20.2482   37.8039 H         1 2ZT         0.0623
     24 H           4.7872   21.3194   35.5693 H         1 2ZT         0.0645
     25 H           3.7484   20.1768   33.6329 H         1 2ZT         0.0622
     26 H           2.6183   17.9897   33.9256 H         1 2ZT         0.0649
     27 H           1.9737   16.1333   35.3816 H         1 2ZT         0.0764
     28 H           1.9415   15.1082   37.6436 H         1 2ZT         0.0661
     29 H           2.0979   16.4901   40.4807 H         1 2ZT         0.0827
     30 H           3.8942   16.4949   40.4943 H         1 2ZT         0.0827
     31 H           3.1645   15.2035   42.5233 H         1 2ZT         0.0517
     32 H           4.5252   13.1831   46.5015 H         1 2ZT         0.0852
     33 H           5.3409   10.9339   45.8644 H         1 2ZT         0.0662
     34 H           5.2724   10.2144   43.4994 H         1 2ZT         0.0764
     35 H           4.7535   10.7371   41.1808 H         1 2ZT         0.0649
     36 H           3.8838   12.2969   39.4890 H         1 2ZT         0.0615
@<TRIPOS>BOND
     1    1    2 ar 
     2    1   22 ar 
     3    2    3 ar 
     4    3    4 ar 
     5    4    5 ar 
     6    5    6 ar 
     7    5   22 ar 
     8    6    7 ar 
     9    7    8 ar 
    10    8    9 1  
    11    8   21 ar 
    12    9   10 1  
    13   10   11 1  
    14   11   12 ar 
    15   11   20 ar 
    16   12   13 ar 
    17   13   14 ar 
    18   13   18 ar 
    19   14   15 ar 
    20   15   16 ar 
    21   16   17 ar 
    22   17   18 ar 
    23   18   19 ar 
    24   19   20 ar 
    25   21   22 ar 
    26    1   23 1  
    27    2   24 1  
    28    3   25 1  
    29    4   26 1  
    30    6   27 1  
    31    7   28 1  
    32    9   29 1  
    33    9   30 1  
    34   12   31 1  
    35   15   32 1  
    36   16   33 1  
    37   17   34 1  
    38   19   35 1  
    39   20   36 1  
@<TRIPOS>SUBSTRUCTURE
     1 2ZT         1

