### 
### Created by X-TOOL on Mon Sep 10 21:13:20 2018
### 

@<TRIPOS>MOLECULE
4mse_ligand
   36    39     1     0     0
SMALL
GAST_HUCK


@<TRIPOS>ATOM
      1 C1          5.0940   12.7490   46.9810 C.3       1 2ZU         0.0104
      2 C2          4.8140   12.7920   45.4970 C.2       1 2ZU         0.0922
      3 N3          4.2220   13.7040   44.7080 N.2       1 2ZU        -0.3118
      4 C4          4.1030   13.4750   43.3920 C.ar      1 2ZU         0.0129
      5 C5          3.5120   14.3350   42.4750 C.ar      1 2ZU        -0.0314
      6 C6          3.4880   13.9200   41.1470 C.ar      1 2ZU         0.0828
      7 C7          4.0070   12.7100   40.6950 C.ar      1 2ZU        -0.0421
      8 C8          4.6020   11.8330   41.6000 C.ar      1 2ZU        -0.0573
      9 C9          4.6180   12.2720   42.9210 C.ar      1 2ZU         0.0425
     10 S10         5.2350   11.5580   44.3630 S.3       1 2ZU         0.0005
     11 O11         2.9320   14.7330   40.2590 O.3       1 2ZU        -0.3073
     12 C12         3.4450   16.0840   40.1120 C.3       1 2ZU         0.1197
     13 C13         3.2110   16.6450   38.7280 C.ar      1 2ZU         0.0570
     14 C14         2.4150   15.9700   37.8070 C.ar      1 2ZU        -0.0251
     15 C15         2.2140   16.5020   36.5360 C.ar      1 2ZU        -0.0375
     16 C16         2.8190   17.7090   36.2060 C.ar      1 2ZU         0.0021
     17 C17         2.6350   18.2670   34.9460 C.ar      1 2ZU        -0.0488
     18 C18         3.2540   19.4770   34.6380 C.ar      1 2ZU        -0.0581
     19 C19         4.0510   20.1270   35.5810 C.ar      1 2ZU        -0.0585
     20 C20         4.2280   19.5660   36.8440 C.ar      1 2ZU        -0.0435
     21 C21         3.6130   18.3550   37.1610 C.ar      1 2ZU         0.0363
     22 N22         3.7890   17.8190   38.3890 N.ar      1 2ZU        -0.2978
     23 H           4.7155   13.6680   47.4523 H         1 2ZU         0.0507
     24 H           6.1786   12.6715   47.1474 H         1 2ZU         0.0507
     25 H           4.5918   11.8762   47.4238 H         1 2ZU         0.0507
     26 H           3.0891   15.2854   42.7798 H         1 2ZU         0.0467
     27 H           3.9486   12.4511   39.6440 H         1 2ZU         0.0490
     28 H           5.0211   10.8800   41.2978 H         1 2ZU         0.0543
     29 H           4.5269   16.0740   40.3102 H         1 2ZU         0.0821
     30 H           2.9439   16.7333   40.8451 H         1 2ZU         0.0821
     31 H           1.9510   15.0290   38.0796 H         1 2ZU         0.0661
     32 H           1.5945   15.9822   35.8142 H         1 2ZU         0.0764
     33 H           2.0162   17.7659   34.2105 H         1 2ZU         0.0649
     34 H           3.1151   19.9171   33.6571 H         1 2ZU         0.0622
     35 H           4.5313   21.0662   35.3315 H         1 2ZU         0.0645
     36 H           4.8435   20.0706   37.5800 H         1 2ZU         0.0623
@<TRIPOS>BOND
     1    1    2 1  
     2    2    3 2  
     3    2   10 1  
     4    3    4 1  
     5    4    5 ar 
     6    4    9 ar 
     7    5    6 ar 
     8    6    7 ar 
     9    6   11 1  
    10    7    8 ar 
    11    8    9 ar 
    12    9   10 1  
    13   11   12 1  
    14   12   13 1  
    15   13   14 ar 
    16   13   22 ar 
    17   14   15 ar 
    18   15   16 ar 
    19   16   17 ar 
    20   16   21 ar 
    21   17   18 ar 
    22   18   19 ar 
    23   19   20 ar 
    24   20   21 ar 
    25   21   22 ar 
    26    1   23 1  
    27    1   24 1  
    28    1   25 1  
    29    5   26 1  
    30    7   27 1  
    31    8   28 1  
    32   12   29 1  
    33   12   30 1  
    34   14   31 1  
    35   15   32 1  
    36   17   33 1  
    37   18   34 1  
    38   19   35 1  
    39   20   36 1  
@<TRIPOS>SUBSTRUCTURE
     1 2ZU         1

