### 
### Created by X-TOOL on Mon Sep 10 21:13:15 2018
### 

@<TRIPOS>MOLECULE
4msg_ligand
   59    63     1     0     0
SMALL
GAST_HUCK


@<TRIPOS>ATOM
      1 N1         -1.0390   43.0350   29.9750 N.am      1 2C6        -0.1845
      2 C9          0.2560   42.5600   29.9240 C.2       1 2C6         0.2364
      3 O1          0.6090   41.5870   30.5720 O.2       1 2C6        -0.3858
      4 C10         1.2140   43.2590   29.0930 C.ar      1 2C6         0.0598
      5 C11         2.5980   42.8490   28.9060 C.ar      1 2C6        -0.0503
      6 C15         3.4770   43.6060   28.0040 C.ar      1 2C6        -0.0653
      7 C16         2.9580   44.7800   27.2680 C.ar      1 2C6        -0.0665
      8 C17         1.5680   45.1970   27.4470 C.ar      1 2C6        -0.0538
      9 C7          0.6690   44.4460   28.3320 C.ar      1 2C6         0.0134
     10 N2         -0.6740   44.8030   28.4930 N.2       1 2C6        -0.2981
     11 C8         -1.5040   44.1180   29.2620 C.2       1 2C6         0.2082
     12 S1         -3.2330   44.5000   29.3940 S.3       1 2C6        -0.0204
     13 C18        -9.0150   39.7620   27.1020 C.2       1 2C6         0.2033
     14 N4         -8.5640   38.6090   26.6270 N.2       1 2C6        -0.2471
     15 N5         -9.4470   37.5810   26.7760 N.2       1 2C6        -0.2460
     16 C19       -10.5060   38.2180   27.3980 C.2       1 2C6         0.2176
     17 C20       -11.7980   37.6180   27.8540 C.ar      1 2C6         0.0418
     18 O2        -10.2280   39.5490   27.5890 O.3       1 2C6        -0.1906
     19 C21       -12.0530   36.1700   27.7070 C.ar      1 2C6        -0.0459
     20 C22       -13.3030   35.5800   28.1640 C.ar      1 2C6        -0.0587
     21 C23       -14.3270   36.4160   28.7710 C.ar      1 2C6        -0.0597
     22 C24       -14.1070   37.8550   28.9320 C.ar      1 2C6        -0.0587
     23 C25       -12.8430   38.4540   28.4720 C.ar      1 2C6        -0.0459
     24 C1         -6.2900   42.2440   28.0430 C.3       1 2C6        -0.0271
     25 C2         -5.9600   42.7010   26.6210 C.3       1 2C6         0.0424
     26 C3         -7.1830   42.7890   25.7050 C.3       1 2C6        -0.0271
     27 C4         -8.0140   41.5100   25.7160 C.3       1 2C6        -0.0297
     28 C5         -8.3720   41.0640   27.1340 C.3       1 2C6         0.0526
     29 C6         -7.1840   40.9900   28.0960 C.3       1 2C6        -0.0297
     30 C12        -3.5030   45.7990   28.1460 C.3       1 2C6         0.0359
     31 C13        -3.3040   45.3060   26.6810 C.3       1 2C6         0.0495
     32 C14        -3.9920   43.9550   26.5370 C.2       1 2C6         0.1772
     33 O3         -3.3210   42.9470   26.3530 O.2       1 2C6        -0.3970
     34 N3         -5.3360   43.9980   26.6640 N.am      1 2C6        -0.2839
     35 H1         -1.6853   42.5593   30.5717 H         1 2C6         0.2541
     36 H2          2.9813   41.9830   29.4335 H         1 2C6         0.0643
     37 H3          4.5101   43.3031   27.8773 H         1 2C6         0.0553
     38 H4          3.6075   45.3303   26.5969 H         1 2C6         0.0627
     39 H5          1.1976   46.0694   26.9210 H         1 2C6         0.0554
     40 H6        -11.2986   35.5381   27.2524 H         1 2C6         0.0647
     41 H7        -13.4711   34.5150   28.0517 H         1 2C6         0.0623
     42 H8        -15.2574   35.9718   29.1058 H         1 2C6         0.0635
     43 H9        -14.8704   38.4756   29.3872 H         1 2C6         0.0623
     44 H10       -12.6795   39.5192   28.5889 H         1 2C6         0.0647
     45 H11        -6.8101   43.0639   28.5599 H         1 2C6         0.0289
     46 H12        -5.3473   42.0213   28.5643 H         1 2C6         0.0289
     47 H13        -5.2551   41.9770   26.1863 H         1 2C6         0.0556
     48 H14        -6.8409   42.9785   24.6769 H         1 2C6         0.0289
     49 H15        -7.8159   43.6237   26.0406 H         1 2C6         0.0289
     50 H16        -7.4384   40.7097   25.2280 H         1 2C6         0.0299
     51 H17        -8.9437   41.6871   25.1554 H         1 2C6         0.0299
     52 H18        -9.0850   41.7975   27.5385 H         1 2C6         0.0571
     53 H19        -7.5685   40.8762   29.1203 H         1 2C6         0.0299
     54 H20        -6.5742   40.1129   27.8336 H         1 2C6         0.0299
     55 H21        -2.7938   46.6178   28.3369 H         1 2C6         0.0440
     56 H22        -4.5320   46.1734   28.2504 H         1 2C6         0.0440
     57 H23        -2.2303   45.2021   26.4655 H         1 2C6         0.0513
     58 H24        -3.7503   46.0278   25.9811 H         1 2C6         0.0513
     59 H25        -5.8487   44.8491   26.7771 H         1 2C6         0.1854
@<TRIPOS>BOND
     1    1    2 am 
     2   11    1 1  
     3    2    3 2  
     4    2    4 1  
     5    4    5 ar 
     6    9    4 ar 
     7    5    6 ar 
     8    7    6 ar 
     9    8    7 ar 
    10    9    8 ar 
    11   10    9 1  
    12   11   10 2  
    13   12   11 1  
    14   30   12 1  
    15   13   14 2  
    16   13   18 1  
    17   28   13 1  
    18   14   15 1  
    19   16   15 2  
    20   16   17 1  
    21   18   16 1  
    22   17   19 ar 
    23   17   23 ar 
    24   19   20 ar 
    25   20   21 ar 
    26   22   21 ar 
    27   23   22 ar 
    28   25   24 1  
    29   24   29 1  
    30   25   26 1  
    31   34   25 1  
    32   26   27 1  
    33   27   28 1  
    34   29   28 1  
    35   31   30 1  
    36   32   31 1  
    37   32   33 2  
    38   32   34 am 
    39    1   35 1  
    40    5   36 1  
    41    6   37 1  
    42    7   38 1  
    43    8   39 1  
    44   19   40 1  
    45   20   41 1  
    46   21   42 1  
    47   22   43 1  
    48   23   44 1  
    49   24   45 1  
    50   24   46 1  
    51   25   47 1  
    52   26   48 1  
    53   26   49 1  
    54   27   50 1  
    55   27   51 1  
    56   28   52 1  
    57   29   53 1  
    58   29   54 1  
    59   30   55 1  
    60   30   56 1  
    61   31   57 1  
    62   31   58 1  
    63   34   59 1  
@<TRIPOS>SUBSTRUCTURE
     1 2C6         1

