### 
### Created by X-TOOL on Mon Sep 10 21:13:15 2018
### 

@<TRIPOS>MOLECULE
4msk_ligand
   52    56     1     0     0
SMALL
GAST_HUCK


@<TRIPOS>ATOM
      1 N1         35.4340   26.0950   18.0090 N.am      1 2C8        -0.1938
      2 C1         35.5710   25.8260   16.6640 C.2       1 2C8         0.2358
      3 O1         36.3730   24.9410   16.2830 O.2       1 2C8        -0.3858
      4 C2         34.9430   26.6300   15.6510 C.ar      1 2C8         0.0597
      5 C3         34.9550   26.4210   14.1850 C.ar      1 2C8        -0.0503
      6 C4         34.2470   27.3690   13.3090 C.ar      1 2C8        -0.0653
      7 C5         33.5310   28.5200   13.8650 C.ar      1 2C8        -0.0665
      8 C6         33.5050   28.7150   15.3070 C.ar      1 2C8        -0.0538
      9 C7         34.1790   27.7840   16.1920 C.ar      1 2C8         0.0126
     10 N2         34.1240   27.9580   17.5500 N.2       1 2C8        -0.3081
     11 C8         34.7090   27.1590   18.4620 C.2       1 2C8         0.1451
     12 C9         34.6050   27.5490   19.9000 C.3       1 2C8         0.0558
     13 C10        33.1690   27.5080   20.3130 C.3       1 2C8         0.0637
     14 C11        32.7430   26.1500   20.5780 C.2       1 2C8         0.2093
     15 O2         32.2230   25.4870   19.6920 O.2       1 2C8        -0.3832
     16 N3         33.0220   25.7760   21.8580 N.am      1 2C8        -0.2298
     17 C12        32.6720   24.6570   22.5540 C.ar      1 2C8         0.0728
     18 C13        33.1530   24.5160   23.9200 C.ar      1 2C8        -0.0347
     19 C14        32.8370   23.3090   24.6530 C.ar      1 2C8        -0.0562
     20 C15        31.8780   23.6120   21.9370 C.ar      1 2C8        -0.0347
     21 C16        31.5630   22.4200   22.6560 C.ar      1 2C8        -0.0562
     22 C18        31.7560   20.9830   24.7440 C.2       1 2C8         0.2105
     23 C17        32.0460   22.2600   24.0130 C.ar      1 2C8         0.0312
     24 N4         31.0930   19.8620   24.3260 N.2       1 2C8        -0.2387
     25 N5         31.0580   18.9490   25.3660 N.2       1 2C8        -0.2352
     26 C19        31.7100   19.5390   26.4180 C.2       1 2C8         0.2192
     27 C20        31.9370   19.0020   27.8100 C.ar      1 2C8         0.0440
     28 O3         32.1310   20.7790   26.0150 O.3       1 2C8        -0.1966
     29 C21        31.5520   17.6290   28.1630 C.ar      1 2C8        -0.0450
     30 C22        31.7640   17.1200   29.5170 C.ar      1 2C8        -0.0581
     31 C23        32.3700   17.9570   30.5560 C.ar      1 2C8        -0.0592
     32 C24        32.7510   19.3110   30.2150 C.ar      1 2C8        -0.0581
     33 C25        32.5450   19.8420   28.8690 C.ar      1 2C8        -0.0450
     34 H1         35.8788   25.4930   18.6722 H         1 2C8         0.2533
     35 H2         35.4821   25.5748   13.7593 H         1 2C8         0.0643
     36 H3         34.2556   27.2131   12.2363 H         1 2C8         0.0553
     37 H4         33.0256   29.2194   13.2088 H         1 2C8         0.0627
     38 H5         32.9766   29.5647   15.7240 H         1 2C8         0.0554
     39 H6         34.9986   28.5672   20.0353 H         1 2C8         0.0590
     40 H7         35.1859   26.8464   20.5156 H         1 2C8         0.0590
     41 H8         32.5506   27.9277   19.5059 H         1 2C8         0.0543
     42 H9         33.0398   28.1097   21.2247 H         1 2C8         0.0543
     43 H10        33.5754   26.4310   22.3725 H         1 2C8         0.2291
     44 H11        33.7389   25.3028   24.3813 H         1 2C8         0.0521
     45 H12        33.1853   23.1835   25.6718 H         1 2C8         0.0623
     46 H13        31.5208   23.7373   20.9212 H         1 2C8         0.0521
     47 H14        30.9682   21.6418   22.1915 H         1 2C8         0.0623
     48 H15        31.1062   16.9868   27.4120 H         1 2C8         0.0652
     49 H16        31.4676   16.1052   29.7567 H         1 2C8         0.0625
     50 H17        32.5292   17.5712   31.5564 H         1 2C8         0.0639
     51 H18        33.1981   19.9439   30.9730 H         1 2C8         0.0625
     52 H19        32.8398   20.8604   28.6430 H         1 2C8         0.0652
@<TRIPOS>BOND
     1    1    2 am 
     2    1   11 1  
     3    2    3 2  
     4    2    4 1  
     5    4    5 ar 
     6    4    9 ar 
     7    5    6 ar 
     8    6    7 ar 
     9    7    8 ar 
    10    8    9 ar 
    11    9   10 1  
    12   10   11 2  
    13   11   12 1  
    14   12   13 1  
    15   13   14 1  
    16   14   15 2  
    17   14   16 am 
    18   16   17 1  
    19   17   18 ar 
    20   17   20 ar 
    21   18   19 ar 
    22   19   23 ar 
    23   20   21 ar 
    24   21   23 ar 
    25   23   22 1  
    26   22   24 2  
    27   22   28 1  
    28   24   25 1  
    29   25   26 2  
    30   26   27 1  
    31   26   28 1  
    32   27   29 ar 
    33   27   33 ar 
    34   29   30 ar 
    35   30   31 ar 
    36   31   32 ar 
    37   32   33 ar 
    38    1   34 1  
    39    5   35 1  
    40    6   36 1  
    41    7   37 1  
    42    8   38 1  
    43   12   39 1  
    44   12   40 1  
    45   13   41 1  
    46   13   42 1  
    47   16   43 1  
    48   18   44 1  
    49   19   45 1  
    50   20   46 1  
    51   21   47 1  
    52   29   48 1  
    53   30   49 1  
    54   31   50 1  
    55   32   51 1  
    56   33   52 1  
@<TRIPOS>SUBSTRUCTURE
     1 2C8         1

