### 
### Created by X-TOOL on Mon Sep 10 21:13:19 2018
### 

@<TRIPOS>MOLECULE
4msl_ligand
   44    45     1     0     0
SMALL
GAST_HUCK


@<TRIPOS>ATOM
      1 C10       -32.9190   38.5640   15.8490 C.3       1 2ET         0.0003
      2 C15       -32.4500   34.5860   17.5840 C.ar      1 2ET        -0.0658
      3 C17       -33.8860   36.3900   16.8000 C.ar      1 2ET         0.1420
      4 C21       -36.2430   34.8880   17.5020 C.2       1 2ET         0.0064
      5 C22       -34.9620   34.3210   17.7060 C.2       1 2ET        -0.0329
      6 O01       -34.3890   39.3790   13.4310 O.co2     1 2ET        -0.5643
      7 C02       -33.6450   40.3830   13.6010 C.2       1 2ET         0.0845
      8 O03       -34.0230   41.5210   13.2100 O.co2     1 2ET        -0.5643
      9 C04       -32.3380   40.2280   14.2510 C.3       1 2ET         0.0313
     10 C05       -31.2460   40.6040   13.2690 C.3       1 2ET         0.0048
     11 C06       -29.8870   41.0400   13.8510 C.3       1 2ET        -0.0400
     12 C07       -28.7120   40.7440   12.9720 C.3       1 2ET        -0.0624
     13 C08       -29.6910   40.6290   15.2510 C.3       1 2ET        -0.0624
     14 N09       -32.1740   38.8570   14.6630 N.4       1 2ET         0.2499
     15 C11       -32.7520   37.1470   16.4670 C.ar      1 2ET         0.0721
     16 C12       -31.4680   36.6270   16.6910 C.ar      1 2ET         0.0948
     17 O13       -30.3660   37.3570   16.3690 O.3       1 2ET        -0.3349
     18 C14       -31.3220   35.3440   17.2500 C.ar      1 2ET        -0.0411
     19 C16       -33.7460   35.1010   17.3620 C.ar      1 2ET         0.0170
     20 O18       -35.2170   36.9530   16.5580 O.3       1 2ET        -0.2203
     21 C19       -36.3720   36.2430   16.9520 C.2       1 2ET         0.2428
     22 O20       -37.4660   36.7510   16.8370 O.2       1 2ET        -0.3886
     23 C23       -34.8850   32.9250   18.2730 C.3       1 2ET        -0.0254
     24 H         -33.9846   38.6964   15.6105 H         1 2ET         0.0932
     25 H         -32.6211   39.2952   16.6149 H         1 2ET         0.0932
     26 H         -32.3283   33.5989   18.0151 H         1 2ET         0.0560
     27 H         -37.1356   34.3172   17.7539 H         1 2ET         0.0411
     28 H         -32.2826   40.8852   15.1313 H         1 2ET         0.1025
     29 H         -31.6248   41.4359   12.6571 H         1 2ET         0.0341
     30 H         -31.0644   39.7295   12.6269 H         1 2ET         0.0341
     31 H         -29.9387   42.1383   13.8848 H         1 2ET         0.0298
     32 H         -27.7901   41.0872   13.4643 H         1 2ET         0.0232
     33 H         -28.8314   41.2671   12.0117 H         1 2ET         0.0232
     34 H         -28.6509   39.6602   12.7941 H         1 2ET         0.0232
     35 H         -30.5899   40.8761   15.8349 H         1 2ET         0.0232
     36 H         -28.8237   41.1595   15.6709 H         1 2ET         0.0232
     37 H         -29.5131   39.5443   15.2933 H         1 2ET         0.0232
     38 H         -32.4919   38.2534   13.9209 H         1 2ET         0.2040
     39 H         -31.1969   38.6848   14.8409 H         1 2ET         0.2040
     40 H         -29.5850   36.8608   16.5839 H         1 2ET         0.2479
     41 H         -30.3308   34.9407   17.4228 H         1 2ET         0.0476
     42 H         -35.9018   32.5445   18.4499 H         1 2ET         0.0432
     43 H         -34.3306   32.9451   19.2229 H         1 2ET         0.0432
     44 H         -34.3665   32.2675   17.5596 H         1 2ET         0.0432
@<TRIPOS>BOND
     1   14    1 1  
     2    1   15 1  
     3    2   18 ar 
     4   19    2 ar 
     5   15    3 ar 
     6    3   19 ar 
     7    3   20 1  
     8    5    4 2  
     9    4   21 1  
    10   19    5 1  
    11    5   23 1  
    12    7    6 ar 
    13    7    8 ar 
    14    9    7 1  
    15    9   10 1  
    16    9   14 1  
    17   10   11 1  
    18   11   12 1  
    19   11   13 1  
    20   15   16 ar 
    21   16   17 1  
    22   16   18 ar 
    23   20   21 1  
    24   21   22 2  
    25    1   24 1  
    26    1   25 1  
    27    2   26 1  
    28    4   27 1  
    29    9   28 1  
    30   10   29 1  
    31   10   30 1  
    32   11   31 1  
    33   12   32 1  
    34   12   33 1  
    35   12   34 1  
    36   13   35 1  
    37   13   36 1  
    38   13   37 1  
    39   14   38 1  
    40   14   39 1  
    41   17   40 1  
    42   18   41 1  
    43   23   42 1  
    44   23   43 1  
    45   23   44 1  
@<TRIPOS>SUBSTRUCTURE
     1 2ET         1

