### 
### Created by X-TOOL on Mon Sep 10 21:13:20 2018
### 

@<TRIPOS>MOLECULE
4msn_ligand
   19    20     1     0     0
SMALL
GAST_HUCK


@<TRIPOS>ATOM
      1 C1          3.8080  -27.7220  -34.9920 C.ar      1 2ZQ         0.1671
      2 C2          4.2670  -28.7340  -34.1400 C.ar      1 2ZQ         0.0921
      3 C3          3.9700  -27.8490  -36.3750 C.ar      1 2ZQ         0.2326
      4 C4          4.8850  -29.8740  -34.6450 C.ar      1 2ZQ         0.0287
      5 C5          4.5930  -28.9970  -36.8740 C.ar      1 2ZQ         0.0533
      6 C6          5.0480  -30.0030  -36.0220 C.ar      1 2ZQ         0.0235
      7 C7          3.0390  -26.4750  -33.1350 C.ar      1 2ZQ         0.0706
      8 C8          3.4790  -27.4590  -32.2510 C.ar      1 2ZQ         0.0235
      9 N9          3.2080  -26.6220  -34.4750 N.ar      1 2ZQ        -0.2194
     10 C10         4.0980  -28.6010  -32.7610 C.ar      1 2ZQ         0.0233
     11 N11         3.5390  -26.8930  -37.2200 N.2       1 2ZQ         0.0953
     12 O12         2.8230  -27.1890  -38.1660 O.2       1 2ZQ        -0.1237
     13 O13         3.8440  -25.7190  -37.0770 O.2       1 2ZQ        -0.1237
     14 H           5.2349  -30.6513  -33.9754 H         1 2ZQ         0.1278
     15 H           4.7249  -29.1073  -37.9443 H         1 2ZQ         0.1051
     16 H           5.5281  -30.8845  -36.4312 H         1 2ZQ         0.0987
     17 H           2.5573  -25.5838  -32.7494 H         1 2ZQ         0.1078
     18 H           3.3422  -27.3388  -31.1824 H         1 2ZQ         0.0991
     19 H           4.4451  -29.3792  -32.0909 H         1 2ZQ         0.1183
@<TRIPOS>BOND
     1    1    2 ar 
     2    1    3 ar 
     3    9    1 ar 
     4    2    4 ar 
     5    2   10 ar 
     6    3    5 ar 
     7    3   11 1  
     8    4    6 ar 
     9    5    6 ar 
    10    7    8 ar 
    11    7    9 ar 
    12    8   10 ar 
    13   11   12 2  
    14   11   13 2  
    15    4   14 1  
    16    5   15 1  
    17    6   16 1  
    18    7   17 1  
    19    8   18 1  
    20   10   19 1  
@<TRIPOS>SUBSTRUCTURE
     1 2ZQ         1

