### 
### Created by X-TOOL on Mon Sep 10 21:13:12 2018
### 

@<TRIPOS>MOLECULE
4mss_ligand
   31    31     1     0     0
SMALL
GAST_HUCK


@<TRIPOS>ATOM
      1 N1         68.3050   -9.2640    2.7750 N.4       1 2CZ         0.2306
      2 C2         67.5930   -8.0090    2.6690 C.3       1 2CZ        -0.0075
      3 N2         69.0590   -6.3810    3.6610 N.am      1 2CZ        -0.2764
      4 C3         67.7830   -7.0440    3.7880 C.3       1 2CZ         0.1098
      5 C4         67.7990   -7.6970    5.1730 C.3       1 2CZ         0.1114
      6 O4         67.6650   -6.7080    6.1710 O.3       1 2CZ        -0.3866
      7 C5         66.6520   -8.6420    5.4080 C.3       1 2CZ         0.1141
      8 O5         66.6590   -8.8410    6.8250 O.3       1 2CZ        -0.3864
      9 C6         66.6470   -9.9680    4.6480 C.3       1 2CZ         0.1229
     10 O6         65.5510   -9.9890    3.7230 O.3       1 2CZ        -0.3838
     11 C7         67.8130  -10.2660    3.7420 C.3       1 2CZ        -0.0044
     12 C8         69.1680   -4.9520    3.5580 C.2       1 2CZ         0.1734
     13 O8         68.1730   -4.2590    3.5090 O.2       1 2CZ        -0.3974
     14 C9         70.5500   -4.3200    3.4630 C.3       1 2CZ         0.0257
     15 H1         69.2566   -9.0474    3.0272 H         1 2CZ         0.2015
     16 H2         68.2886   -9.6948    1.8639 H         1 2CZ         0.2015
     17 H3         66.5191   -8.2378    2.6030 H         1 2CZ         0.0837
     18 H4         67.9205   -7.5155    1.7421 H         1 2CZ         0.0837
     19 H5         69.8926   -6.9332    3.6442 H         1 2CZ         0.1857
     20 H6         66.9701   -6.3041    3.7469 H         1 2CZ         0.0636
     21 H7         68.7501   -8.2360    5.2950 H         1 2CZ         0.0645
     22 H8         68.3864   -6.0934    6.1051 H         1 2CZ         0.2100
     23 H9         65.7255   -8.1216    5.1237 H         1 2CZ         0.0648
     24 H10        65.9561   -9.4338    7.0639 H         1 2CZ         0.2100
     25 H11        66.5505  -10.7757    5.3885 H         1 2CZ         0.0674
     26 H12        64.7344   -9.8946    4.1991 H         1 2CZ         0.2101
     27 H13        68.6622  -10.5108    4.3969 H         1 2CZ         0.0840
     28 H14        67.5337  -11.1541    3.1561 H         1 2CZ         0.0840
     29 H15        70.4492   -3.2270    3.3910 H         1 2CZ         0.0467
     30 H16        71.0664   -4.7002    2.5693 H         1 2CZ         0.0467
     31 H17        71.1328   -4.5761    4.3600 H         1 2CZ         0.0467
@<TRIPOS>BOND
     1    1    2 1  
     2    1   11 1  
     3    2    4 1  
     4    4    3 1  
     5    3   12 am 
     6    4    5 1  
     7    5    6 1  
     8    5    7 1  
     9    7    8 1  
    10    7    9 1  
    11    9   10 1  
    12    9   11 1  
    13   12   13 2  
    14   12   14 1  
    15    1   15 1  
    16    1   16 1  
    17    2   17 1  
    18    2   18 1  
    19    3   19 1  
    20    4   20 1  
    21    5   21 1  
    22    6   22 1  
    23    7   23 1  
    24    8   24 1  
    25    9   25 1  
    26   10   26 1  
    27   11   27 1  
    28   11   28 1  
    29   14   29 1  
    30   14   30 1  
    31   14   31 1  
@<TRIPOS>SUBSTRUCTURE
     1 2CZ         1

