### 
### Created by X-TOOL on Mon Sep 10 21:13:19 2018
### 

@<TRIPOS>MOLECULE
4msu_ligand
   46    48     1     0     0
SMALL
GAST_HUCK


@<TRIPOS>ATOM
      1 N1         39.3910  -24.6130   15.2360 N.am      1 2EU        -0.2296
      2 C4         34.0840  -20.7900   21.8960 C.3       1 2EU         0.3926
      3 C5         37.9300  -24.7940   15.1780 C.3       1 2EU         0.0511
      4 C6         39.7820  -24.6280   16.6520 C.3       1 2EU         0.0511
      5 C7         35.6050  -20.8660   19.8700 C.ar      1 2EU        -0.0246
      6 C8         36.9650  -22.4900   18.0070 C.ar      1 2EU         0.0795
      7 C10        37.1290  -23.6200   15.8000 C.3       1 2EU         0.0526
      8 C13        39.8230  -29.0660   16.6750 C.2       1 2EU        -0.0774
      9 C15        36.8320  -21.3990   20.1870 C.ar      1 2EU        -0.0463
     10 C17        37.5020  -22.1970   19.2620 C.ar      1 2EU        -0.0089
     11 C9         40.3720  -27.9010   16.3550 C.2       1 2EU        -0.0523
     12 C12        38.8460  -29.5900   15.8880 C.2       1 2EU        -0.0067
     13 S2         38.6270  -28.4390   14.6720 S.3       1 2EU        -0.0178
     14 C2         39.8000  -27.3910   15.2660 C.2       1 2EU         0.1604
     15 S1         40.2040  -25.8840   14.5010 S.o2      1 2EU         0.0792
     16 O1         39.8170  -26.0310   13.0640 O.2       1 2EU        -0.1497
     17 O2         41.6780  -25.7580   14.7280 O.2       1 2EU        -0.1497
     18 C11        39.0650  -23.6020   17.4930 C.3       1 2EU         0.0526
     19 N2         37.6670  -23.2890   17.1010 N.pl3     1 2EU        -0.2844
     20 C16        35.7320  -21.9740   17.7240 C.ar      1 2EU        -0.0089
     21 C14        35.0580  -21.1700   18.6460 C.ar      1 2EU        -0.0463
     22 C1         34.8400  -19.9810   20.8270 C.3       1 2EU         0.2275
     23 C3         35.7520  -18.9790   21.4760 C.3       1 2EU         0.3926
     24 F2         34.9630  -18.1090   22.0840 F         1 2EU        -0.1784
     25 F3         36.4700  -19.6010   22.3420 F         1 2EU        -0.1784
     26 F1         36.5380  -18.3460   20.5910 F         1 2EU        -0.1784
     27 F5         34.8790  -21.6450   22.5660 F         1 2EU        -0.1784
     28 F6         33.0590  -21.4380   21.3950 F         1 2EU        -0.1784
     29 F4         33.5650  -19.9050   22.6890 F         1 2EU        -0.1784
     30 O3         33.9430  -19.1710   20.1090 O.3       1 2EU        -0.4221
     31 H          37.6728  -25.7155   15.7209 H         1 2EU         0.0499
     32 H          37.6345  -24.8951   14.1233 H         1 2EU         0.0499
     33 H          40.8629  -24.4340   16.7153 H         1 2EU         0.0499
     34 H          39.5639  -25.6254   17.0614 H         1 2EU         0.0499
     35 H          36.0744  -23.9142   15.9060 H         1 2EU         0.0552
     36 H          37.2002  -22.7414   15.1421 H         1 2EU         0.0552
     37 H          40.1537  -29.6002   17.5645 H         1 2EU         0.0404
     38 H          37.2774  -21.1988   21.1548 H         1 2EU         0.0815
     39 H          38.4718  -22.6036   19.5253 H         1 2EU         0.0631
     40 H          41.1810  -27.4262   16.9082 H         1 2EU         0.0423
     41 H          38.3233  -30.5371   16.0134 H         1 2EU         0.0711
     42 H          39.6431  -22.6674   17.4463 H         1 2EU         0.0552
     43 H          39.0476  -23.9711   18.5291 H         1 2EU         0.0552
     44 H          35.2693  -22.1922   16.7683 H         1 2EU         0.0631
     45 H          34.0808  -20.7765   18.3905 H         1 2EU         0.0815
     46 H          34.4274  -18.6294   19.4971 H         1 2EU         0.1926
@<TRIPOS>BOND
     1    1    3 1  
     2    1    4 1  
     3   15    1 am 
     4   22    2 1  
     5    2   27 1  
     6    2   28 1  
     7    2   29 1  
     8    3    7 1  
     9    4   18 1  
    10    9    5 ar 
    11    5   21 ar 
    12    5   22 1  
    13    6   10 ar 
    14   19    6 1  
    15    6   20 ar 
    16    7   19 1  
    17   11    8 1  
    18   12    8 2  
    19   10    9 ar 
    20   14   11 2  
    21   13   12 1  
    22   14   13 1  
    23   14   15 1  
    24   15   16 2  
    25   15   17 2  
    26   18   19 1  
    27   20   21 ar 
    28   22   23 1  
    29   22   30 1  
    30   23   24 1  
    31   23   25 1  
    32   23   26 1  
    33    3   31 1  
    34    3   32 1  
    35    4   33 1  
    36    4   34 1  
    37    7   35 1  
    38    7   36 1  
    39    8   37 1  
    40    9   38 1  
    41   10   39 1  
    42   11   40 1  
    43   12   41 1  
    44   18   42 1  
    45   18   43 1  
    46   20   44 1  
    47   21   45 1  
    48   30   46 1  
@<TRIPOS>SUBSTRUCTURE
     1 2EU         1

