### 
### Created by X-TOOL on Mon Sep 10 21:13:15 2018
### 

@<TRIPOS>MOLECULE
4mt9_ligand
   56    59     1     0     0
SMALL
GAST_HUCK


@<TRIPOS>ATOM
      1 N4         -5.9950   42.9850   26.9670 N.am      1 2D6        -0.2839
      2 C8         -4.6320   43.0540   26.7700 C.2       1 2D6         0.1772
      3 O2         -3.9340   42.0640   26.5000 O.2       1 2D6        -0.3970
      4 C9         -3.9740   44.4450   26.8100 C.3       1 2D6         0.0495
      5 C10        -3.9340   45.1290   28.1240 C.3       1 2D6         0.0359
      6 S1         -3.5250   44.0140   29.6050 S.3       1 2D6        -0.0204
      7 C11        -1.7980   43.7370   29.4390 C.2       1 2D6         0.2082
      8 N2         -1.2540   42.6780   30.1310 N.am      1 2D6        -0.1845
      9 C12         0.0650   42.2940   30.0490 C.2       1 2D6         0.2364
     10 O3          0.5240   41.3490   30.6960 O.2       1 2D6        -0.3858
     11 N3         -1.0340   44.4970   28.6340 N.2       1 2D6        -0.2981
     12 C13         0.2940   44.2250   28.4670 C.ar      1 2D6         0.0134
     13 C14         0.9540   43.0600   29.1870 C.ar      1 2D6         0.0598
     14 C15         2.3660   42.7820   28.9940 C.ar      1 2D6        -0.0503
     15 C16         3.1600   43.6510   28.1100 C.ar      1 2D6        -0.0653
     16 C17         2.5320   44.7920   27.4200 C.ar      1 2D6        -0.0665
     17 C18         1.1020   45.0760   27.6050 C.ar      1 2D6        -0.0538
     18 C19        -8.4820   40.1880   26.0880 C.3       1 2D6        -0.0197
     19 C20        -7.5190   41.3310   25.8930 C.3       1 2D6        -0.0272
     20 C21        -6.5700   41.6220   27.1060 C.3       1 2D6         0.0422
     21 C22        -7.2740   41.4650   28.4860 C.3       1 2D6        -0.0272
     22 C23        -8.2140   40.2930   28.5830 C.3       1 2D6        -0.0197
     23 C24        -9.2430   40.2080   27.4390 C.3       1 2D6         0.0839
     24 O1        -10.0800   38.9950   27.6030 O.3       1 2D6        -0.3079
     25 C1        -11.3760   39.2000   28.2570 C.ar      1 2D6         0.1024
     26 C2        -11.7510   40.5450   28.6880 C.ar      1 2D6        -0.0208
     27 C3        -13.0150   40.7570   29.3120 C.ar      1 2D6        -0.0352
     28 C4        -13.8510   39.6470   29.4940 C.ar      1 2D6         0.0840
     29 C5        -13.5040   38.2700   29.0820 C.ar      1 2D6        -0.0352
     30 C6        -12.2470   38.0460   28.4510 C.ar      1 2D6        -0.0208
     31 C7        -15.0750   40.1440   30.1170 C.1       1 2D6         0.0889
     32 N1        -16.0060   40.6200   30.6070 N.1       1 2D6        -0.3372
     33 H1         -6.5643   43.8058   27.0137 H         1 2D6         0.1854
     34 H2         -4.5257   45.0940   26.1140 H         1 2D6         0.0513
     35 H3         -2.9366   44.3323   26.4621 H         1 2D6         0.0513
     36 H4         -4.9204   45.5822   28.3017 H         1 2D6         0.0440
     37 H5         -3.1710   45.9197   28.0727 H         1 2D6         0.0440
     38 H6         -1.8568   42.1537   30.7324 H         1 2D6         0.2541
     39 H7          2.8314   41.9418   29.4965 H         1 2D6         0.0643
     40 H8          4.2153   43.4501   27.9653 H         1 2D6         0.0553
     41 H9          3.1281   45.4250   26.7727 H         1 2D6         0.0627
     42 H10         0.6481   45.9203   27.0989 H         1 2D6         0.0554
     43 H11        -7.9148   39.2474   26.0277 H         1 2D6         0.0295
     44 H12        -9.2234   40.2218   25.2762 H         1 2D6         0.0295
     45 H13        -8.1061   42.2400   25.6952 H         1 2D6         0.0288
     46 H14        -6.8922   41.1018   25.0186 H         1 2D6         0.0288
     47 H15        -5.7460   40.8943   27.0695 H         1 2D6         0.0556
     48 H16        -7.8483   42.3820   28.6840 H         1 2D6         0.0288
     49 H17        -6.4970   41.3456   29.2554 H         1 2D6         0.0288
     50 H18        -8.7618   40.3687   29.5339 H         1 2D6         0.0295
     51 H19        -7.6155   39.3701   28.5770 H         1 2D6         0.0295
     52 H20        -9.8944   41.0939   27.4699 H         1 2D6         0.0655
     53 H21       -11.0723   41.3762   28.5342 H         1 2D6         0.0571
     54 H22       -13.3200   41.7456   29.6356 H         1 2D6         0.0692
     55 H23       -14.1908   37.4496   29.2563 H         1 2D6         0.0692
     56 H24       -11.9488   37.0554   28.1271 H         1 2D6         0.0571
@<TRIPOS>BOND
     1    1    2 am 
     2   20    1 1  
     3    2    3 2  
     4    2    4 1  
     5    4    5 1  
     6    5    6 1  
     7    6    7 1  
     8    7    8 1  
     9    7   11 2  
    10    8    9 am 
    11    9   10 2  
    12    9   13 1  
    13   11   12 1  
    14   12   13 ar 
    15   12   17 ar 
    16   13   14 ar 
    17   14   15 ar 
    18   16   15 ar 
    19   17   16 ar 
    20   19   18 1  
    21   18   23 1  
    22   19   20 1  
    23   20   21 1  
    24   21   22 1  
    25   22   23 1  
    26   23   24 1  
    27   24   25 1  
    28   25   26 ar 
    29   25   30 ar 
    30   26   27 ar 
    31   27   28 ar 
    32   28   29 ar 
    33   28   31 1  
    34   29   30 ar 
    35   31   32 3  
    36    1   33 1  
    37    4   34 1  
    38    4   35 1  
    39    5   36 1  
    40    5   37 1  
    41    8   38 1  
    42   14   39 1  
    43   15   40 1  
    44   16   41 1  
    45   17   42 1  
    46   18   43 1  
    47   18   44 1  
    48   19   45 1  
    49   19   46 1  
    50   20   47 1  
    51   21   48 1  
    52   21   49 1  
    53   22   50 1  
    54   22   51 1  
    55   23   52 1  
    56   26   53 1  
    57   27   54 1  
    58   29   55 1  
    59   30   56 1  
@<TRIPOS>SUBSTRUCTURE
     1 2D6         1

