### 
### Created by X-TOOL on Mon Sep 10 21:13:14 2018
### 

@<TRIPOS>MOLECULE
4mti_ligand
   86    90     1     0     0
SMALL
GAST_HUCK


@<TRIPOS>ATOM
      1 C1          3.3340   24.1630   21.8830 C.3       1 2DX        -0.0580
      2 C2          2.8570   24.9610   20.6640 C.3       1 2DX         0.0051
      3 C3          3.8120   26.1170   20.3000 C.3       1 2DX         0.0663
      4 N5          3.1210   26.9710   19.2990 N.4       1 2DX         0.2439
      5 C6          3.8100   28.2460   18.9720 C.3       1 2DX        -0.0428
      6 C7          5.1170   25.5310   19.7870 C.2       1 2DX         0.2268
      7 O8          5.2040   25.1190   18.6410 O.2       1 2DX        -0.3907
      8 N9          6.1830   25.4720   20.6300 N.am      1 2DX        -0.2607
      9 C10         7.4950   24.9170   20.2430 C.3       1 2DX         0.1341
     10 C12         8.5730   26.0350   20.1620 C.3       1 2DX        -0.0006
     11 C13         8.1190   27.1630   19.2100 C.3       1 2DX        -0.0460
     12 C14         9.2360   28.2090   19.0420 C.3       1 2DX        -0.0526
     13 C15         9.6350   28.8070   20.4130 C.3       1 2DX        -0.0530
     14 C16        10.0470   27.6970   21.4050 C.3       1 2DX        -0.0526
     15 C17         8.9290   26.6380   21.5420 C.3       1 2DX        -0.0460
     16 C18         7.8730   23.8270   21.2410 C.2       1 2DX         0.2070
     17 O19         7.3150   23.7990   22.3270 O.2       1 2DX        -0.3942
     18 N20         8.8010   22.8750   20.9710 N.am      1 2DX        -0.2395
     19 C21         9.5350   22.8650   19.6710 C.3       1 2DX         0.0797
     20 C22         9.9590   21.4520   19.2800 C.3       1 2DX         0.0005
     21 C24        11.0380   21.4060   18.1850 C.3       1 2DX        -0.0030
     22 C25        11.8790   20.1500   18.5340 C.3       1 2DX        -0.0074
     23 C26        11.2450   19.6030   19.8450 C.3       1 2DX        -0.0311
     24 N27        10.6080   20.8010   20.4480 N.4       1 2DX         0.2422
     25 C28         9.6370   20.5240   21.5000 C.3       1 2DX         0.0097
     26 C29         9.0850   21.8850   22.0350 C.3       1 2DX         0.1734
     27 C31        10.0900   22.4700   23.0100 C.2       1 2DX         0.2090
     28 O32        10.7950   23.3930   22.6720 O.2       1 2DX        -0.3942
     29 N33        10.1880   21.9670   24.2600 N.am      1 2DX        -0.2722
     30 C34        11.1390   22.4660   25.2470 C.3       1 2DX         0.0763
     31 C35        12.4220   21.6720   24.9950 C.3       1 2DX         0.0061
     32 C36        13.3100   21.6610   26.2490 C.3       1 2DX         0.0724
     33 O37        12.5860   21.0510   27.3170 O.3       1 2DX        -0.3214
     34 C38        11.3610   21.5360   27.6060 C.ar      1 2DX         0.0950
     35 C39        10.8660   21.3070   28.8950 C.ar      1 2DX        -0.0395
     36 C40         9.6060   21.7870   29.2120 C.ar      1 2DX        -0.0776
     37 C41         8.8590   22.4860   28.2590 C.ar      1 2DX        -0.0796
     38 C42         9.3570   22.7050   26.9860 C.ar      1 2DX        -0.0666
     39 C43        10.6090   22.2160   26.6440 C.ar      1 2DX         0.0114
     40 H1          2.6180   23.3555   22.0956 H         1 2DX         0.0233
     41 H2          3.4029   24.8308   22.7544 H         1 2DX         0.0233
     42 H3          4.3233   23.7301   21.6737 H         1 2DX         0.0233
     43 H4          1.8642   25.3804   20.8841 H         1 2DX         0.0343
     44 H5          2.7847   24.2798   19.8034 H         1 2DX         0.0343
     45 H6          4.0251   26.7194   21.1953 H         1 2DX         0.1099
     46 H7          2.2060   27.1942   19.6581 H         1 2DX         0.2032
     47 H8          3.0274   26.4399   18.4474 H         1 2DX         0.2032
     48 H9          3.2208   28.8005   18.2267 H         1 2DX         0.0777
     49 H10         4.8078   28.0292   18.5630 H         1 2DX         0.0777
     50 H11         3.9114   28.8524   19.8841 H         1 2DX         0.0777
     51 H12         6.0721   25.8227   21.5599 H         1 2DX         0.1885
     52 H13         7.4041   24.4605   19.2463 H         1 2DX         0.0803
     53 H14         9.4867   25.5833   19.7484 H         1 2DX         0.0348
     54 H15         7.2258   27.6511   19.6271 H         1 2DX         0.0270
     55 H16         7.8762   26.7318   18.2276 H         1 2DX         0.0270
     56 H17         8.8791   29.0165   18.3858 H         1 2DX         0.0265
     57 H18        10.1152   27.7289   18.5877 H         1 2DX         0.0265
     58 H19         8.7785   29.3591   20.8272 H         1 2DX         0.0265
     59 H20        10.4815   29.4952   20.2722 H         1 2DX         0.0265
     60 H21        10.2394   28.1473   22.3900 H         1 2DX         0.0265
     61 H22        10.9627   27.2090   21.0397 H         1 2DX         0.0265
     62 H23         9.2733   25.8341   22.2092 H         1 2DX         0.0270
     63 H24         8.0336   27.1119   21.9706 H         1 2DX         0.0270
     64 H25        10.4320   23.4952   19.7619 H         1 2DX         0.0580
     65 H26         8.8792   23.2714   18.8869 H         1 2DX         0.0580
     66 H27         9.0714   20.8881   18.9572 H         1 2DX         0.0871
     67 H28        11.6606   22.3125   18.2121 H         1 2DX         0.0322
     68 H29        10.5803   21.3051   17.1899 H         1 2DX         0.0322
     69 H30        12.9326   20.4213   18.6963 H         1 2DX         0.0319
     70 H31        11.8125   19.4026   17.7296 H         1 2DX         0.0319
     71 H32        12.0160   19.1899   20.5121 H         1 2DX         0.0814
     72 H33        10.4960   18.8278   19.6259 H         1 2DX         0.0814
     73 H34        11.3195   21.4019   20.8336 H         1 2DX         0.2039
     74 H35        10.1234   19.9733   22.3185 H         1 2DX         0.0864
     75 H36         8.8107   19.9224   21.0935 H         1 2DX         0.0864
     76 H37         8.1449   21.6841   22.5697 H         1 2DX         0.0857
     77 H38         9.5799   21.2172   24.5209 H         1 2DX         0.1878
     78 H39        11.3176   23.5424   25.1079 H         1 2DX         0.0696
     79 H40        12.9757   22.1347   24.1648 H         1 2DX         0.0333
     80 H41        12.1598   20.6373   24.7293 H         1 2DX         0.0333
     81 H42        13.5756   22.6925   26.5236 H         1 2DX         0.0613
     82 H43        14.2269   21.0874   26.0483 H         1 2DX         0.0613
     83 H44        11.4547   20.7669   29.6277 H         1 2DX         0.0521
     84 H45         9.1977   21.6202   30.2022 H         1 2DX         0.0531
     85 H46         7.8764   22.8616   28.5205 H         1 2DX         0.0505
     86 H47         8.7709   23.2563   26.2596 H         1 2DX         0.0526
@<TRIPOS>BOND
     1    1    2 1  
     2    2    3 1  
     3    3    4 1  
     4    3    6 1  
     5    4    5 1  
     6    6    7 2  
     7    6    8 am 
     8    8    9 1  
     9    9   10 1  
    10    9   16 1  
    11   10   11 1  
    12   10   15 1  
    13   11   12 1  
    14   12   13 1  
    15   13   14 1  
    16   14   15 1  
    17   16   17 2  
    18   16   18 am 
    19   18   19 1  
    20   18   26 1  
    21   19   20 1  
    22   20   21 1  
    23   20   24 1  
    24   21   22 1  
    25   22   23 1  
    26   23   24 1  
    27   24   25 1  
    28   25   26 1  
    29   26   27 1  
    30   27   28 2  
    31   27   29 am 
    32   29   30 1  
    33   30   31 1  
    34   30   39 1  
    35   31   32 1  
    36   32   33 1  
    37   33   34 1  
    38   34   35 ar 
    39   34   39 ar 
    40   35   36 ar 
    41   36   37 ar 
    42   37   38 ar 
    43   38   39 ar 
    44    1   40 1  
    45    1   41 1  
    46    1   42 1  
    47    2   43 1  
    48    2   44 1  
    49    3   45 1  
    50    4   46 1  
    51    4   47 1  
    52    5   48 1  
    53    5   49 1  
    54    5   50 1  
    55    8   51 1  
    56    9   52 1  
    57   10   53 1  
    58   11   54 1  
    59   11   55 1  
    60   12   56 1  
    61   12   57 1  
    62   13   58 1  
    63   13   59 1  
    64   14   60 1  
    65   14   61 1  
    66   15   62 1  
    67   15   63 1  
    68   19   64 1  
    69   19   65 1  
    70   20   66 1  
    71   21   67 1  
    72   21   68 1  
    73   22   69 1  
    74   22   70 1  
    75   23   71 1  
    76   23   72 1  
    77   24   73 1  
    78   25   74 1  
    79   25   75 1  
    80   26   76 1  
    81   29   77 1  
    82   30   78 1  
    83   31   79 1  
    84   31   80 1  
    85   32   81 1  
    86   32   82 1  
    87   35   83 1  
    88   36   84 1  
    89   37   85 1  
    90   38   86 1  
@<TRIPOS>SUBSTRUCTURE
     1 2DX         1

