### 
### Created by X-TOOL on Mon Sep 10 21:13:13 2018
### 

@<TRIPOS>MOLECULE
4mu7_ligand
   89    94     1     0     0
SMALL
GAST_HUCK


@<TRIPOS>ATOM
      1 C1         21.1780   -7.4570  -11.6630 C.3       1 2DY        -0.0580
      2 C2         22.2530   -6.4700  -11.2070 C.3       1 2DY         0.0051
      3 C3         23.6290   -7.1350  -11.3000 C.3       1 2DY         0.0663
      4 N5         24.6210   -6.1870  -10.7490 N.4       1 2DY         0.2439
      5 C6         25.9820   -6.7730  -10.5920 C.3       1 2DY        -0.0428
      6 C7         23.9330   -7.4680  -12.7270 C.2       1 2DY         0.2268
      7 O8         24.3830   -6.6060  -13.4440 O.2       1 2DY        -0.3907
      8 N9         23.6920   -8.7040  -13.1720 N.am      1 2DY        -0.2607
      9 C10        23.9680   -9.1880  -14.5150 C.3       1 2DY         0.1341
     10 C12        25.1540  -10.0870  -14.0860 C.3       1 2DY        -0.0006
     11 C13        25.0410  -11.5640  -14.4760 C.3       1 2DY        -0.0460
     12 C14        26.2260  -12.3830  -13.9210 C.3       1 2DY        -0.0526
     13 C15        27.3180  -11.5190  -13.2540 C.3       1 2DY        -0.0530
     14 C16        27.6930  -10.3160  -14.1360 C.3       1 2DY        -0.0526
     15 C17        26.4810   -9.4360  -14.4880 C.3       1 2DY        -0.0460
     16 C18        22.7930   -9.9280  -15.1080 C.2       1 2DY         0.2068
     17 O19        21.9810  -10.3970  -14.3310 O.2       1 2DY        -0.3942
     18 N20        22.6320  -10.1000  -16.4560 N.am      1 2DY        -0.2456
     19 C21        23.6310   -9.5550  -17.4260 C.3       1 2DY         0.0606
     20 C22        23.5950  -10.4270  -18.6850 C.3       1 2DY         0.0651
     21 C24        24.5280   -9.8970  -19.8060 C.3       1 2DY         0.0016
     22 C25        23.5970   -9.6040  -20.9720 C.ar      1 2DY        -0.0223
     23 C26        23.8930   -9.2240  -22.2720 C.ar      1 2DY        -0.0717
     24 C27        22.8170   -9.0100  -23.1430 C.ar      1 2DY        -0.0819
     25 C28        21.5000   -9.1590  -22.7340 C.ar      1 2DY        -0.0807
     26 C29        21.1850   -9.5400  -21.4320 C.ar      1 2DY        -0.0507
     27 C30        22.2550   -9.7880  -20.5500 C.ar      1 2DY         0.0434
     28 N31        22.2450  -10.1100  -19.2040 N.pl3     1 2DY        -0.3010
     29 C32        21.0950  -10.5840  -18.4610 C.3       1 2DY         0.0663
     30 C33        21.4700  -10.8400  -16.9600 C.3       1 2DY         0.1529
     31 C35        21.7270  -12.3150  -16.7610 C.2       1 2DY         0.2057
     32 O36        22.8750  -12.7380  -16.6340 O.2       1 2DY        -0.3943
     33 N37        20.6560  -13.1350  -16.7420 N.am      1 2DY        -0.2723
     34 C38        20.7660  -14.5860  -16.5360 C.3       1 2DY         0.0763
     35 C40        20.9850  -15.2850  -17.8860 C.3       1 2DY         0.0061
     36 C41        19.6500  -15.6730  -18.5300 C.3       1 2DY         0.0724
     37 O42        18.9890  -16.5530  -17.6240 O.3       1 2DY        -0.3214
     38 C43        18.7150  -16.0660  -16.3820 C.ar      1 2DY         0.0950
     39 C44        17.5910  -16.5420  -15.7020 C.ar      1 2DY        -0.0395
     40 C45        17.3030  -16.0450  -14.4360 C.ar      1 2DY        -0.0776
     41 C46        18.1200  -15.0790  -13.8710 C.ar      1 2DY        -0.0796
     42 C47        19.2400  -14.6130  -14.5490 C.ar      1 2DY        -0.0666
     43 C48        19.5370  -15.1000  -15.8130 C.ar      1 2DY         0.0114
     44 H1         20.1895   -6.9792  -11.5962 H         1 2DY         0.0233
     45 H2         21.1995   -8.3470  -11.0169 H         1 2DY         0.0233
     46 H3         21.3716   -7.7549  -12.7040 H         1 2DY         0.0233
     47 H4         22.0594   -6.1721  -10.1660 H         1 2DY         0.0343
     48 H5         22.2315   -5.5800  -11.8531 H         1 2DY         0.0343
     49 H6         23.6364   -8.0606  -10.7057 H         1 2DY         0.1099
     50 H7         24.3000   -5.8797   -9.8443 H         1 2DY         0.2032
     51 H8         24.6845   -5.3954  -11.3698 H         1 2DY         0.2032
     52 H9         26.6627   -6.0138  -10.1794 H         1 2DY         0.0777
     53 H10        26.3538   -7.1046  -11.5727 H         1 2DY         0.0777
     54 H11        25.9342   -7.6331   -9.9080 H         1 2DY         0.0777
     55 H12        23.2873   -9.3517  -12.5265 H         1 2DY         0.1885
     56 H13        24.2754   -8.3889  -15.2055 H         1 2DY         0.0803
     57 H14        25.1407  -10.0860  -12.9861 H         1 2DY         0.0348
     58 H15        25.0319  -11.6453  -15.5729 H         1 2DY         0.0270
     59 H16        24.1030  -11.9710  -14.0703 H         1 2DY         0.0270
     60 H17        26.6831  -12.9399  -14.7522 H         1 2DY         0.0265
     61 H18        25.8390  -13.0915  -13.1739 H         1 2DY         0.0265
     62 H19        28.2135  -12.1364  -13.0902 H         1 2DY         0.0265
     63 H20        26.9438  -11.1518  -12.2870 H         1 2DY         0.0265
     64 H21        28.1392  -10.6897  -15.0694 H         1 2DY         0.0265
     65 H22        28.4295   -9.7013  -13.5978 H         1 2DY         0.0265
     66 H23        26.5772   -8.4747  -13.9620 H         1 2DY         0.0270
     67 H24        26.4745   -9.2608  -15.5739 H         1 2DY         0.0270
     68 H25        24.6367   -9.5834  -16.9813 H         1 2DY         0.0548
     69 H26        23.3731   -8.5172  -17.6836 H         1 2DY         0.0548
     70 H27        23.7670  -11.4916  -18.4682 H         1 2DY         0.0587
     71 H28        25.2718  -10.6580  -20.0846 H         1 2DY         0.0422
     72 H29        25.0441   -8.9814  -19.4814 H         1 2DY         0.0422
     73 H30        24.9178   -9.0973  -22.6018 H         1 2DY         0.0519
     74 H31        23.0197   -8.7192  -24.1674 H         1 2DY         0.0487
     75 H32        20.6999   -8.9752  -23.4419 H         1 2DY         0.0525
     76 H33        20.1551   -9.6419  -21.1094 H         1 2DY         0.0493
     77 H34        20.7381  -11.5231  -18.9089 H         1 2DY         0.0560
     78 H35        20.2974   -9.8281  -18.5097 H         1 2DY         0.0560
     79 H36        20.6022  -10.5458  -16.3514 H         1 2DY         0.0822
     80 H37        19.7476  -12.7382  -16.8738 H         1 2DY         0.1878
     81 H38        21.6426  -14.7848  -15.9019 H         1 2DY         0.0696
     82 H39        21.5844  -16.1935  -17.7270 H         1 2DY         0.0333
     83 H40        21.5242  -14.6032  -18.5601 H         1 2DY         0.0333
     84 H41        19.8272  -16.1819  -19.4890 H         1 2DY         0.0613
     85 H42        19.0373  -14.7752  -18.6990 H         1 2DY         0.0613
     86 H43        16.9512  -17.2899  -16.1562 H         1 2DY         0.0521
     87 H44        16.4406  -16.4126  -13.8917 H         1 2DY         0.0531
     88 H45        17.8831  -14.6828  -12.8902 H         1 2DY         0.0505
     89 H46        19.8812  -13.8692  -14.0900 H         1 2DY         0.0526
@<TRIPOS>BOND
     1    1    2 1  
     2    2    3 1  
     3    3    4 1  
     4    3    6 1  
     5    4    5 1  
     6    6    7 2  
     7    6    8 am 
     8    8    9 1  
     9    9   10 1  
    10    9   16 1  
    11   10   11 1  
    12   10   15 1  
    13   11   12 1  
    14   12   13 1  
    15   13   14 1  
    16   14   15 1  
    17   16   17 2  
    18   16   18 am 
    19   18   19 1  
    20   18   30 1  
    21   19   20 1  
    22   20   21 1  
    23   20   28 1  
    24   21   22 1  
    25   22   23 ar 
    26   22   27 ar 
    27   23   24 ar 
    28   24   25 ar 
    29   25   26 ar 
    30   26   27 ar 
    31   27   28 1  
    32   28   29 1  
    33   29   30 1  
    34   30   31 1  
    35   31   32 2  
    36   31   33 am 
    37   33   34 1  
    38   34   35 1  
    39   34   43 1  
    40   35   36 1  
    41   36   37 1  
    42   37   38 1  
    43   38   39 ar 
    44   38   43 ar 
    45   39   40 ar 
    46   40   41 ar 
    47   41   42 ar 
    48   42   43 ar 
    49    1   44 1  
    50    1   45 1  
    51    1   46 1  
    52    2   47 1  
    53    2   48 1  
    54    3   49 1  
    55    4   50 1  
    56    4   51 1  
    57    5   52 1  
    58    5   53 1  
    59    5   54 1  
    60    8   55 1  
    61    9   56 1  
    62   10   57 1  
    63   11   58 1  
    64   11   59 1  
    65   12   60 1  
    66   12   61 1  
    67   13   62 1  
    68   13   63 1  
    69   14   64 1  
    70   14   65 1  
    71   15   66 1  
    72   15   67 1  
    73   19   68 1  
    74   19   69 1  
    75   20   70 1  
    76   21   71 1  
    77   21   72 1  
    78   23   73 1  
    79   24   74 1  
    80   25   75 1  
    81   26   76 1  
    82   29   77 1  
    83   29   78 1  
    84   30   79 1  
    85   33   80 1  
    86   34   81 1  
    87   35   82 1  
    88   35   83 1  
    89   36   84 1  
    90   36   85 1  
    91   39   86 1  
    92   40   87 1  
    93   41   88 1  
    94   42   89 1  
@<TRIPOS>SUBSTRUCTURE
     1 2DY         1

