### 
### Created by X-TOOL on Mon Sep 10 21:13:17 2018
### 

@<TRIPOS>MOLECULE
4mue_ligand
   45    47     1     0     0
SMALL
GAST_HUCK


@<TRIPOS>ATOM
      1 O          19.3210   10.6360   -0.9330 O.co2     1 2DH        -0.5663
      2 C          18.2080   11.1240   -1.0300 C.2       1 2DH         0.0636
      3 OXT        17.8770   12.3410   -0.9020 O.co2     1 2DH        -0.5663
      4 CA         17.2260   10.1290   -1.5470 C.3       1 2DH         0.1030
      5 N          15.7740   10.3490   -1.3840 N.pl3     1 2DH        -0.2447
      6 CBB        15.0200   10.2570   -2.4860 C.ar      1 2DH         0.0630
      7 CAO        15.4100   10.0530   -3.7630 C.ar      1 2DH        -0.0452
      8 CAN        14.4480    9.9660   -4.7660 C.ar      1 2DH        -0.0427
      9 CAW        13.1040   10.1520   -4.4420 C.ar      1 2DH         0.0753
     10 OAT        12.2330   10.0510   -5.4740 O.3       1 2DH        -0.3292
     11 CAA        10.8780    9.8070   -5.0040 C.3       1 2DH         0.0569
     12 CAP        12.7200   10.3730   -3.0710 C.ar      1 2DH        -0.0452
     13 CBA        13.7140   10.4310   -2.1290 C.ar      1 2DH        -0.0272
     14 CAQ        13.7050   10.6370   -0.7870 C.2       1 2DH        -0.0430
     15 CAZ        14.9670   10.5660   -0.3210 C.2       1 2DH         0.1352
     16 CAV        15.4640   10.7200    0.9530 C.2       1 2DH         0.2468
     17 OAC        16.4530   10.0750    1.3220 O.2       1 2DH        -0.3825
     18 NAS        14.8810   11.6280    1.7610 N.am      1 2DH        -0.1490
     19 SBE        15.5890   11.9910    3.1300 S.o2      1 2DH         0.1026
     20 OAD        16.9340   11.5830    3.4550 O.2       1 2DH        -0.1420
     21 OAE        15.1630   13.2900    3.7590 O.2       1 2DH        -0.1420
     22 CAY        14.9910   10.6900    4.1970 C.ar      1 2DH         0.1411
     23 CAL        13.6420   10.4400    4.4250 C.ar      1 2DH        -0.0049
     24 CAJ        13.3000    9.4390    5.3620 C.ar      1 2DH        -0.0296
     25 CAX        14.2490    8.6630    6.0730 C.ar      1 2DH         0.0483
     26 CBD        13.7950    7.7180    7.0560 C.3       1 2DH         0.3771
     27 FAH        14.6520    7.5510    8.0790 F         1 2DH        -0.2199
     28 FAI        12.6770    8.3490    7.6760 F         1 2DH        -0.2199
     29 FAG        13.4280    6.5500    6.6270 F         1 2DH        -0.2199
     30 CAK        15.5930    8.9230    5.8210 C.ar      1 2DH        -0.0296
     31 CAM        15.9420    9.9320    4.8910 C.ar      1 2DH        -0.0049
     32 H1         17.4566    9.1736   -1.0530 H         1 2DH         0.0768
     33 H2         17.4107   10.0371   -2.6275 H         1 2DH         0.0768
     34 H3         16.4624    9.9579   -4.0049 H         1 2DH         0.0535
     35 H4         14.7406    9.7558   -5.7884 H         1 2DH         0.0503
     36 H5         10.1991    9.7307   -5.8661 H         1 2DH         0.0573
     37 H6         10.5586   10.6382   -4.3583 H         1 2DH         0.0573
     38 H7         10.8517    8.8676   -4.4324 H         1 2DH         0.0573
     39 H8         11.6786   10.4896   -2.7935 H         1 2DH         0.0449
     40 H9         12.8190   10.8290   -0.1836 H         1 2DH         0.0386
     41 H10        14.0191   12.0634    1.5011 H         1 2DH         0.2139
     42 H11        12.8750   10.9970    3.8991 H         1 2DH         0.0718
     43 H12        12.2483    9.2535    5.5481 H         1 2DH         0.0853
     44 H13        16.3648    8.3586    6.3317 H         1 2DH         0.0853
     45 H14        16.9926   10.1264    4.7081 H         1 2DH         0.0718
@<TRIPOS>BOND
     1    1    2 ar 
     2    2    3 ar 
     3    2    4 1  
     4    4    5 1  
     5    5    6 1  
     6    5   15 1  
     7    6    7 ar 
     8    6   13 ar 
     9    7    8 ar 
    10    8    9 ar 
    11    9   10 1  
    12    9   12 ar 
    13   10   11 1  
    14   12   13 ar 
    15   13   14 1  
    16   14   15 2  
    17   15   16 1  
    18   16   17 2  
    19   16   18 am 
    20   18   19 am 
    21   19   20 2  
    22   19   21 2  
    23   19   22 1  
    24   22   23 ar 
    25   22   31 ar 
    26   23   24 ar 
    27   24   25 ar 
    28   25   26 1  
    29   25   30 ar 
    30   26   27 1  
    31   26   28 1  
    32   26   29 1  
    33   30   31 ar 
    34    4   32 1  
    35    4   33 1  
    36    7   34 1  
    37    8   35 1  
    38   11   36 1  
    39   11   37 1  
    40   11   38 1  
    41   12   39 1  
    42   14   40 1  
    43   18   41 1  
    44   23   42 1  
    45   24   43 1  
    46   30   44 1  
    47   31   45 1  
@<TRIPOS>SUBSTRUCTURE
     1 2DH         1

