### 
### Created by X-TOOL on Mon Sep 10 21:13:18 2018
### 

@<TRIPOS>MOLECULE
4muf_ligand
   54    56     1     0     0
SMALL
GAST_HUCK


@<TRIPOS>ATOM
      1 O          19.9970   10.8670   -0.4130 O.co2     1 2DJ        -0.5663
      2 C          18.7840   11.1420   -0.6630 C.2       1 2DJ         0.0636
      3 OXT        18.2320   12.2580   -0.5910 O.co2     1 2DJ        -0.5663
      4 CA         17.9170   10.0240   -1.1690 C.3       1 2DJ         0.1030
      5 N          16.4220   10.2640   -1.0560 N.pl3     1 2DJ        -0.2447
      6 CBB        15.5890   10.2070   -2.1120 C.ar      1 2DJ         0.0630
      7 CAO        15.8560    9.9860   -3.4090 C.ar      1 2DJ        -0.0452
      8 CAN        14.8460    9.9750   -4.3670 C.ar      1 2DJ        -0.0427
      9 CAW        13.5320   10.1740   -3.9590 C.ar      1 2DJ         0.0753
     10 OAT        12.5690   10.1660   -4.9360 O.3       1 2DJ        -0.3292
     11 CAA        11.4630    9.2880   -4.8360 C.3       1 2DJ         0.0569
     12 CAP        13.2930   10.4170   -2.5810 C.ar      1 2DJ        -0.0452
     13 CBA        14.3160   10.4220   -1.6950 C.ar      1 2DJ        -0.0272
     14 CAQ        14.3530   10.6070   -0.3690 C.2       1 2DJ        -0.0430
     15 CAZ        15.6300   10.4790    0.0150 C.2       1 2DJ         0.1352
     16 CAV        16.0910   10.6410    1.2570 C.2       1 2DJ         0.2468
     17 OAF        17.0510    9.9940    1.7010 O.2       1 2DJ        -0.3825
     18 NAS        15.5490   11.6710    1.9080 N.am      1 2DJ        -0.1490
     19 SBE        16.2050   11.9780    3.3570 S.o2      1 2DJ         0.1026
     20 OAG        15.8170   13.4080    3.8260 O.2       1 2DJ        -0.1420
     21 OAH        17.7280   11.8110    3.1670 O.2       1 2DJ        -0.1420
     22 CAY        15.7830   10.8380    4.5510 C.ar      1 2DJ         0.1411
     23 CAL        14.7250   11.1820    5.3620 C.ar      1 2DJ        -0.0051
     24 CAJ        14.3360   10.3430    6.3810 C.ar      1 2DJ        -0.0374
     25 CAX        15.0100    9.1430    6.5870 C.ar      1 2DJ        -0.0473
     26 CBD        14.5120    8.3830    7.6310 C.3       1 2DJ        -0.0447
     27 CAC        13.6200    7.2740    7.0890 C.3       1 2DJ        -0.0835
     28 CAD        15.6260    7.7520    8.4520 C.3       1 2DJ        -0.0835
     29 CAB        13.7190    9.3500    8.5190 C.3       1 2DJ        -0.0835
     30 CAK        16.1030    8.7770    5.7660 C.ar      1 2DJ        -0.0374
     31 CAM        16.4950    9.6430    4.7390 C.ar      1 2DJ        -0.0051
     32 H1         18.1606    9.1178   -0.5950 H         1 2DJ         0.0768
     33 H2         18.1563    9.8612   -2.2302 H         1 2DJ         0.0768
     34 H3         16.8807    9.8123   -3.7171 H         1 2DJ         0.0535
     35 H4         15.0801    9.8140   -5.4131 H         1 2DJ         0.0503
     36 H5         10.8049    9.4267   -5.7064 H         1 2DJ         0.0573
     37 H6         10.9033    9.5067   -3.9147 H         1 2DJ         0.0573
     38 H7         11.8214    8.2484   -4.8093 H         1 2DJ         0.0573
     39 H8         12.2821   10.6002   -2.2353 H         1 2DJ         0.0449
     40 H9         13.5029   10.8216    0.2770 H         1 2DJ         0.0386
     41 H10        14.7967   12.2114    1.5312 H         1 2DJ         0.2139
     42 H11        14.1978   12.1148    5.1977 H         1 2DJ         0.0718
     43 H12        13.5059   10.6164    7.0223 H         1 2DJ         0.0851
     44 H13        13.2293    6.6759    7.9255 H         1 2DJ         0.0139
     45 H14        14.2050    6.6278    6.4181 H         1 2DJ         0.0139
     46 H15        12.7813    7.7172    6.5320 H         1 2DJ         0.0139
     47 H16        16.2798    8.5416    8.8509 H         1 2DJ         0.0139
     48 H17        16.2144    7.0765    7.8137 H         1 2DJ         0.0139
     49 H18        15.1895    7.1817    9.2852 H         1 2DJ         0.0139
     50 H19        12.9114    9.8098    7.9304 H         1 2DJ         0.0139
     51 H20        14.3903   10.1354    8.8966 H         1 2DJ         0.0139
     52 H21        13.2865    8.7984    9.3668 H         1 2DJ         0.0139
     53 H22        16.6273    7.8424    5.9297 H         1 2DJ         0.0851
     54 H23        17.3344    9.3951    4.0994 H         1 2DJ         0.0718
@<TRIPOS>BOND
     1    1    2 ar 
     2    2    3 ar 
     3    2    4 1  
     4    4    5 1  
     5    5    6 1  
     6    5   15 1  
     7    6    7 ar 
     8    6   13 ar 
     9    7    8 ar 
    10    8    9 ar 
    11    9   10 1  
    12    9   12 ar 
    13   10   11 1  
    14   12   13 ar 
    15   13   14 1  
    16   14   15 2  
    17   15   16 1  
    18   16   17 2  
    19   16   18 am 
    20   18   19 am 
    21   19   20 2  
    22   19   21 2  
    23   19   22 1  
    24   22   23 ar 
    25   22   31 ar 
    26   23   24 ar 
    27   24   25 ar 
    28   25   26 1  
    29   25   30 ar 
    30   26   27 1  
    31   26   28 1  
    32   26   29 1  
    33   30   31 ar 
    34    4   32 1  
    35    4   33 1  
    36    7   34 1  
    37    8   35 1  
    38   11   36 1  
    39   11   37 1  
    40   11   38 1  
    41   12   39 1  
    42   14   40 1  
    43   18   41 1  
    44   23   42 1  
    45   24   43 1  
    46   27   44 1  
    47   27   45 1  
    48   27   46 1  
    49   28   47 1  
    50   28   48 1  
    51   28   49 1  
    52   29   50 1  
    53   29   51 1  
    54   29   52 1  
    55   30   53 1  
    56   31   54 1  
@<TRIPOS>SUBSTRUCTURE
     1 2DJ         1

