### 
### Created by X-TOOL on Mon Sep 10 21:13:17 2018
### 

@<TRIPOS>MOLECULE
4muk_ligand
   48    50     1     0     0
SMALL
GAST_HUCK


@<TRIPOS>ATOM
      1 O          19.0120    9.5000   -0.3880 O.co2     1 2DV        -0.5663
      2 C          17.7700    9.5780   -0.5860 C.2       1 2DV         0.0636
      3 OXT        16.9210    8.7310   -0.1930 O.co2     1 2DV        -0.5663
      4 CA         17.2800   10.8310   -1.3130 C.3       1 2DV         0.1030
      5 N          15.8150   10.8230   -1.4010 N.pl3     1 2DV        -0.2447
      6 CBC        15.0790   10.6680   -2.5190 C.ar      1 2DV         0.0630
      7 CAO        15.4530   10.5130   -3.7940 C.ar      1 2DV        -0.0452
      8 CAN        14.5040   10.3630   -4.8000 C.ar      1 2DV        -0.0427
      9 CAY        13.1560   10.3710   -4.4590 C.ar      1 2DV         0.0753
     10 OAU        12.2490   10.2140   -5.4710 O.3       1 2DV        -0.3292
     11 CAA        10.9540    9.7380   -5.1100 C.3       1 2DV         0.0569
     12 CAP        12.7970   10.5530   -3.1050 C.ar      1 2DV        -0.0452
     13 CBB        13.7710   10.6790   -2.1680 C.ar      1 2DV        -0.0272
     14 CAQ        13.7150   10.8610   -0.8250 C.2       1 2DV        -0.0430
     15 CBA        14.9700   10.9350   -0.3570 C.2       1 2DV         0.1351
     16 CAW        15.3260   11.0760    0.9430 C.2       1 2DV         0.2464
     17 OAC        16.1410   11.9470    1.3140 O.2       1 2DV        -0.3825
     18 NAT        14.7440   10.1330    1.7610 N.am      1 2DV        -0.1539
     19 SBF        15.0920   10.1170    3.4600 S.o2      1 2DV         0.0756
     20 OAD        16.1050    9.0270    3.7230 O.2       1 2DV        -0.1478
     21 OAE        15.5580   11.5180    3.8900 O.2       1 2DV        -0.1478
     22 CAS        13.6030    9.6210    4.4130 C.3       1 2DV         0.1374
     23 CAX        13.8780    9.6880    5.8110 C.ar      1 2DV         0.0119
     24 CAJ        13.3520   10.7300    6.5570 C.ar      1 2DV        -0.0266
     25 CAL        13.5760   10.8450    7.9220 C.ar      1 2DV        -0.0371
     26 CAZ        14.3640    9.9260    8.5770 C.ar      1 2DV         0.0385
     27 CBE        14.5790   10.0590    9.9860 C.3       1 2DV         0.3684
     28 FAH        13.9490   11.3600   10.5590 F         1 2DV        -0.2274
     29 FAI        14.0860    9.0230   10.5960 F         1 2DV        -0.2274
     30 FAG        15.8510   10.0460   10.2290 F         1 2DV        -0.2274
     31 CAM        14.9020    8.8710    7.8310 C.ar      1 2DV        -0.0371
     32 CAK        14.6710    8.7490    6.4550 C.ar      1 2DV        -0.0266
     33 H1         17.7052   10.8528   -2.3273 H         1 2DV         0.0768
     34 H2         17.6062   11.7238   -0.7594 H         1 2DV         0.0768
     35 H3         16.5073   10.5042   -4.0460 H         1 2DV         0.0535
     36 H4         14.8103   10.2419   -5.8327 H         1 2DV         0.0503
     37 H5         10.3284    9.6580   -6.0112 H         1 2DV         0.0573
     38 H6         10.4893   10.4403   -4.4023 H         1 2DV         0.0573
     39 H7         11.0454    8.7486   -4.6382 H         1 2DV         0.0573
     40 H8         11.7527   10.5917   -2.8167 H         1 2DV         0.0449
     41 H9         12.8067   10.9345   -0.2288 H         1 2DV         0.0386
     42 H10        14.1187    9.4553    1.3740 H         1 2DV         0.2134
     43 H11        13.3244    8.5912    4.1449 H         1 2DV         0.0761
     44 H12        12.7722   10.3003    4.1716 H         1 2DV         0.0761
     45 H13        12.7466   11.4789    6.0593 H         1 2DV         0.0653
     46 H14        13.1281   11.6627    8.4750 H         1 2DV         0.0836
     47 H15        15.5135    8.1289    8.3313 H         1 2DV         0.0836
     48 H16        15.1079    7.9281    5.8980 H         1 2DV         0.0653
@<TRIPOS>BOND
     1    1    2 ar 
     2    2    3 ar 
     3    2    4 1  
     4    4    5 1  
     5    5    6 1  
     6    5   15 1  
     7    6    7 ar 
     8    6   13 ar 
     9    7    8 ar 
    10    8    9 ar 
    11    9   10 1  
    12    9   12 ar 
    13   10   11 1  
    14   12   13 ar 
    15   13   14 1  
    16   14   15 2  
    17   15   16 1  
    18   16   17 2  
    19   16   18 am 
    20   18   19 am 
    21   19   20 2  
    22   19   21 2  
    23   19   22 1  
    24   22   23 1  
    25   23   24 ar 
    26   23   32 ar 
    27   24   25 ar 
    28   25   26 ar 
    29   26   27 1  
    30   26   31 ar 
    31   27   28 1  
    32   27   29 1  
    33   27   30 1  
    34   31   32 ar 
    35    4   33 1  
    36    4   34 1  
    37    7   35 1  
    38    8   36 1  
    39   11   37 1  
    40   11   38 1  
    41   11   39 1  
    42   12   40 1  
    43   14   41 1  
    44   18   42 1  
    45   22   43 1  
    46   22   44 1  
    47   24   45 1  
    48   25   46 1  
    49   31   47 1  
    50   32   48 1  
@<TRIPOS>SUBSTRUCTURE
     1 2DV         1

