### 
### Created by X-TOOL on Mon Sep 10 21:13:17 2018
### 

@<TRIPOS>MOLECULE
4mul_ligand
   48    51     1     0     0
SMALL
GAST_HUCK


@<TRIPOS>ATOM
      1 O          19.8300   10.6140   -0.9910 O.co2     1 2DW        -0.5663
      2 C          18.6650   11.1260   -1.0250 C.2       1 2DW         0.0636
      3 OXT        18.3440   12.2850   -0.7580 O.co2     1 2DW        -0.5663
      4 CA         17.6120   10.1980   -1.4820 C.3       1 2DW         0.1030
      5 N          16.1470   10.4550   -1.3650 N.pl3     1 2DW        -0.2447
      6 CBC        15.3570   10.3510   -2.4500 C.ar      1 2DW         0.0630
      7 CAN        15.6770   10.1110   -3.7670 C.ar      1 2DW        -0.0452
      8 CAI        14.6610   10.0320   -4.7290 C.ar      1 2DW        -0.0427
      9 CAW        13.3330   10.2140   -4.3430 C.ar      1 2DW         0.0753
     10 OAT        12.4370   10.0710   -5.3770 O.3       1 2DW        -0.3292
     11 CAA        11.0740    9.6930   -4.9910 C.3       1 2DW         0.0569
     12 CAO        13.0660   10.4950   -2.9680 C.ar      1 2DW        -0.0452
     13 CBB        14.0800   10.5490   -2.0440 C.ar      1 2DW        -0.0272
     14 CAQ        14.1220   10.7660   -0.6760 C.2       1 2DW        -0.0430
     15 CAY        15.4220   10.7110   -0.2590 C.2       1 2DW         0.1351
     16 CAV        15.9780   10.8790    0.9990 C.2       1 2DW         0.2465
     17 OAC        17.1280   10.5230    1.2980 O.2       1 2DW        -0.3825
     18 NAS        15.2700   11.5890    1.8670 N.am      1 2DW        -0.1520
     19 SBE        15.7590   11.9630    3.4140 S.o2      1 2DW         0.0903
     20 OAD        15.1380   13.2640    3.7810 O.2       1 2DW        -0.1456
     21 OAE        17.2220   12.3080    3.6280 O.2       1 2DW        -0.1456
     22 CAX        15.2780   10.8530    4.4050 C.ar      1 2DW         0.1137
     23 CAP        16.2060   10.2050    5.2170 C.ar      1 2DW        -0.0270
     24 CBA        15.7180    9.2610    6.1350 C.ar      1 2DW        -0.0160
     25 CAL        16.6260    8.5820    6.9660 C.ar      1 2DW        -0.0540
     26 CAH        16.1090    7.6580    7.8520 C.ar      1 2DW        -0.0612
     27 CAG        14.7290    7.3840    7.9320 C.ar      1 2DW        -0.0612
     28 CAK        13.8310    8.0390    7.1110 C.ar      1 2DW        -0.0540
     29 CAZ        14.3350    8.9870    6.2170 C.ar      1 2DW        -0.0178
     30 CAM        13.4480    9.6280    5.3630 C.ar      1 2DW        -0.0522
     31 CAJ        13.9340   10.5770    4.4550 C.ar      1 2DW        -0.0341
     32 H1         17.7910    9.2581   -0.9394 H         1 2DW         0.0768
     33 H2         17.7998   10.0436   -2.5548 H         1 2DW         0.0768
     34 H3         16.7129    9.9833   -4.0595 H         1 2DW         0.0535
     35 H4         14.9054    9.8309   -5.7658 H         1 2DW         0.0503
     36 H5         10.4482    9.6077   -5.8916 H         1 2DW         0.0573
     37 H6         10.6550   10.4616   -4.3249 H         1 2DW         0.0573
     38 H7         11.0961    8.7261   -4.4670 H         1 2DW         0.0573
     39 H8         12.0448   10.6686   -2.6486 H         1 2DW         0.0449
     40 H9         13.2594   10.9503   -0.0373 H         1 2DW         0.0386
     41 H10        14.3760   11.9247    1.5703 H         1 2DW         0.2136
     42 H11        17.2656   10.4214    5.1430 H         1 2DW         0.0643
     43 H12        17.6911    8.7764    6.9132 H         1 2DW         0.0624
     44 H13        16.7876    7.1252    8.5083 H         1 2DW         0.0618
     45 H14        14.3681    6.6517    8.6451 H         1 2DW         0.0618
     46 H15        12.7696    7.8242    7.1590 H         1 2DW         0.0624
     47 H16        12.3896    9.3963    5.3986 H         1 2DW         0.0624
     48 H17        13.2494   11.0934    3.7919 H         1 2DW         0.0637
@<TRIPOS>BOND
     1    1    2 ar 
     2    2    3 ar 
     3    2    4 1  
     4    4    5 1  
     5    5    6 1  
     6    5   15 1  
     7    6    7 ar 
     8    6   13 ar 
     9    7    8 ar 
    10    8    9 ar 
    11    9   10 1  
    12    9   12 ar 
    13   10   11 1  
    14   12   13 ar 
    15   13   14 1  
    16   14   15 2  
    17   15   16 1  
    18   16   17 2  
    19   16   18 am 
    20   18   19 am 
    21   19   20 2  
    22   19   21 2  
    23   19   22 1  
    24   22   23 ar 
    25   22   31 ar 
    26   23   24 ar 
    27   24   25 ar 
    28   24   29 ar 
    29   25   26 ar 
    30   26   27 ar 
    31   27   28 ar 
    32   28   29 ar 
    33   29   30 ar 
    34   30   31 ar 
    35    4   32 1  
    36    4   33 1  
    37    7   34 1  
    38    8   35 1  
    39   11   36 1  
    40   11   37 1  
    41   11   38 1  
    42   12   39 1  
    43   14   40 1  
    44   18   41 1  
    45   23   42 1  
    46   25   43 1  
    47   26   44 1  
    48   27   45 1  
    49   28   46 1  
    50   30   47 1  
    51   31   48 1  
@<TRIPOS>SUBSTRUCTURE
     1 2DW         1

