### 
### Created by X-TOOL on Mon Sep 10 21:13:13 2018
### 

@<TRIPOS>MOLECULE
4muw_ligand
   51    55     1     0     0
SMALL
GAST_HUCK


@<TRIPOS>ATOM
      1 C01        10.0320   91.2260   41.4840 C.3       1 2F4         0.0152
      2 N02         9.3260   91.7440   40.3480 N.pl3     1 2F4        -0.3119
      3 C03         9.7480   91.4000   39.0330 C.ar      1 2F4         0.1081
      4 C04        10.4840   90.2460   38.8410 C.ar      1 2F4        -0.0117
      5 C05        10.9090   89.8900   37.5890 C.ar      1 2F4        -0.0077
      6 C06        10.5810   90.7130   36.5440 C.ar      1 2F4        -0.0426
      7 C07         9.8440   91.8600   36.7710 C.ar      1 2F4        -0.0061
      8 N08         9.4450   92.1850   37.9960 N.ar      1 2F4        -0.2886
      9 C09        11.6470   88.7370   37.4130 C.ar      1 2F4         0.0496
     10 C10        11.2310   87.7730   36.5280 C.ar      1 2F4        -0.0399
     11 C11        12.0050   86.6400   36.4010 C.ar      1 2F4        -0.0432
     12 C12        13.1550   86.4960   37.1550 C.ar      1 2F4         0.0017
     13 N13        13.5270   87.4470   38.0120 N.ar      1 2F4        -0.2674
     14 C14        12.8030   88.5470   38.1510 C.ar      1 2F4         0.1995
     15 O15        13.1890   89.5420   39.0260 O.3       1 2F4        -0.2422
     16 C16        13.7740   89.0720   40.1990 C.ar      1 2F4         0.1106
     17 C17        15.1420   89.1620   40.4220 C.ar      1 2F4        -0.0361
     18 C18        15.6900   88.6960   41.6200 C.ar      1 2F4        -0.0445
     19 C19        14.8600   88.1540   42.5800 C.ar      1 2F4         0.0585
     20 N20        15.3520   87.6530   43.8460 N.pl3     1 2F4        -0.2333
     21 C21        16.6820   87.8710   44.3340 C.2       1 2F4         0.2291
     22 N22        17.7850   87.9950   43.6040 N.pl3     1 2F4        -0.2312
     23 C23        18.8420   88.1890   44.4660 C.ar      1 2F4         0.0709
     24 C24        20.2200   88.3870   44.2460 C.ar      1 2F4        -0.0496
     25 C25        21.0800   88.5550   45.3170 C.ar      1 2F4        -0.0465
     26 C26        20.5780   88.5300   46.6040 C.ar      1 2F4         0.1454
     27 F27        21.3850   88.6850   47.6250 F         1 2F4        -0.1959
     28 C28        19.2350   88.3410   46.8250 C.ar      1 2F4         0.1579
     29 F29        18.7720   88.3190   48.0510 F         1 2F4        -0.1935
     30 C30        18.3570   88.1680   45.7300 C.ar      1 2F4         0.0456
     31 N31        17.0040   87.9670   45.6310 N.2       1 2F4        -0.3100
     32 C32        13.5010   88.0780   42.3530 C.ar      1 2F4        -0.0445
     33 C33        12.9550   88.5440   41.1670 C.ar      1 2F4        -0.0361
     34 H1          9.5642   91.5982   42.4074 H         1 2F4         0.0481
     35 H2         11.0807   91.5558   41.4457 H         1 2F4         0.0481
     36 H3          9.9926   90.1268   41.4703 H         1 2F4         0.0481
     37 H4          8.5148   92.3640   40.4837 H         1 2F4         0.1796
     38 H5         10.7271   89.6168   39.6896 H         1 2F4         0.0596
     39 H6         10.8998   90.4644   35.5382 H         1 2F4         0.0592
     40 H7          9.5877   92.5039   35.9374 H         1 2F4         0.0773
     41 H8         10.3237   87.8991   35.9484 H         1 2F4         0.0724
     42 H9         11.7115   85.8596   35.7082 H         1 2F4         0.0622
     43 H10        13.7592   85.6023   37.0484 H         1 2F4         0.0800
     44 H11        15.7860   89.5947   39.6650 H         1 2F4         0.0531
     45 H12        16.7581   88.7597   41.7938 H         1 2F4         0.0514
     46 H13        14.7060   87.1058   44.4327 H         1 2F4         0.2183
     47 H14        17.8401   87.9535   42.5763 H         1 2F4         0.2300
     48 H15        20.6076   88.4078   43.2339 H         1 2F4         0.0490
     49 H16        22.1401   88.7052   45.1474 H         1 2F4         0.0498
     50 H17        12.8538   87.6496   43.1097 H         1 2F4         0.0514
     51 H18        11.8846   88.4918   41.0040 H         1 2F4         0.0531
@<TRIPOS>BOND
     1    1    2 1  
     2    2    3 1  
     3    3    4 ar 
     4    3    8 ar 
     5    4    5 ar 
     6    5    6 ar 
     7    5    9 1  
     8    6    7 ar 
     9    7    8 ar 
    10    9   10 ar 
    11    9   14 ar 
    12   10   11 ar 
    13   11   12 ar 
    14   12   13 ar 
    15   13   14 ar 
    16   14   15 1  
    17   15   16 1  
    18   16   17 ar 
    19   16   33 ar 
    20   17   18 ar 
    21   18   19 ar 
    22   19   20 1  
    23   19   32 ar 
    24   20   21 1  
    25   21   22 1  
    26   21   31 2  
    27   22   23 1  
    28   23   24 ar 
    29   23   30 ar 
    30   24   25 ar 
    31   25   26 ar 
    32   26   27 1  
    33   26   28 ar 
    34   28   29 1  
    35   28   30 ar 
    36   30   31 1  
    37   32   33 ar 
    38    1   34 1  
    39    1   35 1  
    40    1   36 1  
    41    2   37 1  
    42    4   38 1  
    43    6   39 1  
    44    7   40 1  
    45   10   41 1  
    46   11   42 1  
    47   12   43 1  
    48   17   44 1  
    49   18   45 1  
    50   20   46 1  
    51   22   47 1  
    52   24   48 1  
    53   25   49 1  
    54   32   50 1  
    55   33   51 1  
@<TRIPOS>SUBSTRUCTURE
     1 2F4         1

