### 
### Created by X-TOOL on Mon Sep 10 21:13:12 2018
### 

@<TRIPOS>MOLECULE
4mvh_ligand
   49    53     1     0     0
SMALL
GAST_HUCK


@<TRIPOS>ATOM
      1 O01       -14.4200   45.0050   86.6820 O.2       1 2F5        -0.3558
      2 C02       -15.1930   44.2400   87.2380 C.2       1 2F5         0.2092
      3 C03       -16.6080   44.7030   87.4830 C.2       1 2F5         0.1995
      4 N04       -17.6910   43.9210   87.6340 N.pl3     1 2F5        -0.2400
      5 C05       -18.8050   44.7350   87.8450 C.ar      1 2F5         0.0869
      6 C06       -20.1790   44.4410   88.0690 C.ar      1 2F5        -0.0370
      7 C07       -21.0970   45.4920   88.2510 C.ar      1 2F5        -0.0725
      8 C08       -20.6560   46.8310   88.2150 C.ar      1 2F5        -0.0740
      9 C09       -19.3100   47.1210   87.9980 C.ar      1 2F5        -0.0578
     10 C10       -18.3680   46.0460   87.8130 C.ar      1 2F5         0.0424
     11 N11       -17.0010   46.0080   87.5860 N.2       1 2F5        -0.2853
     12 C12       -14.6970   42.8700   87.6740 C.ar      1 2F5         0.0321
     13 C13       -15.5740   41.9320   88.2670 C.ar      1 2F5        -0.0501
     14 C14       -15.1070   40.6800   88.6630 C.ar      1 2F5        -0.0215
     15 C15       -13.7710   40.3440   88.4690 C.ar      1 2F5         0.1253
     16 O16       -13.3370   39.1020   88.8920 O.3       1 2F5        -0.2308
     17 C17       -12.9630   38.2090   87.9070 C.ar      1 2F5         0.2418
     18 N18       -13.6950   38.0730   86.7760 N.ar      1 2F5        -0.2603
     19 C19       -13.3250   37.1830   85.8270 C.ar      1 2F5         0.0137
     20 C20       -12.1900   36.4020   86.0270 C.ar      1 2F5         0.0120
     21 N21       -11.4570   36.5320   87.1700 N.ar      1 2F5        -0.2715
     22 C22       -11.8200   37.4160   88.1220 C.ar      1 2F5         0.1828
     23 N23       -11.0310   37.5650   89.3590 N.pl3     1 2F5        -0.2843
     24 C24       -10.9010   36.3450   89.9070 C.3       1 2F5         0.0533
     25 C25       -10.6060   36.4750   91.3780 C.3       1 2F5         0.0678
     26 O26        -9.6300   37.5340   91.6740 O.3       1 2F5        -0.3758
     27 C27       -10.0310   38.8090   91.0620 C.3       1 2F5         0.0678
     28 C28       -10.2730   38.6580   89.5840 C.3       1 2F5         0.0533
     29 C29       -12.8890   41.2720   87.8940 C.ar      1 2F5        -0.0215
     30 C30       -13.3630   42.5320   87.4940 C.ar      1 2F5        -0.0501
     31 H1        -17.6976   42.8916   87.5997 H         1 2F5         0.2339
     32 H2        -20.5173   43.4116   88.0993 H         1 2F5         0.0555
     33 H3        -22.1450   45.2719   88.4192 H         1 2F5         0.0559
     34 H4        -21.3663   47.6376   88.3566 H         1 2F5         0.0530
     35 H5        -18.9731   48.1509   87.9685 H         1 2F5         0.0569
     36 H6        -16.6168   42.1887   88.4145 H         1 2F5         0.0645
     37 H7        -15.7842   39.9686   89.1218 H         1 2F5         0.0570
     38 H8        -13.9072   37.0788   84.9186 H         1 2F5         0.0759
     39 H9        -11.8872   35.6870   85.2706 H         1 2F5         0.0775
     40 H10       -10.0755   35.8098   89.4150 H         1 2F5         0.0542
     41 H11       -11.8360   35.7819   89.7705 H         1 2F5         0.0542
     42 H12       -10.2058   35.5172   91.7418 H         1 2F5         0.0580
     43 H13       -11.5437   36.7046   91.9052 H         1 2F5         0.0580
     44 H14        -9.2321   39.5485   91.2199 H         1 2F5         0.0580
     45 H15       -10.9562   39.1607   91.5418 H         1 2F5         0.0580
     46 H16       -10.7945   39.5495   89.2055 H         1 2F5         0.0542
     47 H17        -9.3095   38.5486   89.0646 H         1 2F5         0.0542
     48 H18       -11.8442   41.0168   87.7589 H         1 2F5         0.0570
     49 H19       -12.6829   43.2448   87.0420 H         1 2F5         0.0645
@<TRIPOS>BOND
     1    1    2 2  
     2    2    3 1  
     3    2   12 1  
     4    3    4 1  
     5    3   11 2  
     6    4    5 1  
     7    5    6 ar 
     8    5   10 ar 
     9    6    7 ar 
    10    7    8 ar 
    11    8    9 ar 
    12    9   10 ar 
    13   10   11 1  
    14   12   13 ar 
    15   12   30 ar 
    16   13   14 ar 
    17   14   15 ar 
    18   15   16 1  
    19   15   29 ar 
    20   16   17 1  
    21   17   18 ar 
    22   17   22 ar 
    23   18   19 ar 
    24   19   20 ar 
    25   20   21 ar 
    26   21   22 ar 
    27   22   23 1  
    28   23   24 1  
    29   23   28 1  
    30   24   25 1  
    31   25   26 1  
    32   26   27 1  
    33   27   28 1  
    34   29   30 ar 
    35    4   31 1  
    36    6   32 1  
    37    7   33 1  
    38    8   34 1  
    39    9   35 1  
    40   13   36 1  
    41   14   37 1  
    42   19   38 1  
    43   20   39 1  
    44   24   40 1  
    45   24   41 1  
    46   25   42 1  
    47   25   43 1  
    48   27   44 1  
    49   27   45 1  
    50   28   46 1  
    51   28   47 1  
    52   29   48 1  
    53   30   49 1  
@<TRIPOS>SUBSTRUCTURE
     1 2F5         1

