### 
### Created by X-TOOL on Sun Sep  9 21:52:39 2018
### 

@<TRIPOS>MOLECULE
4mvw_ligand
   40    41     1     0     0
SMALL
GAST_HUCK


@<TRIPOS>ATOM
      1 CAH       -41.2900   14.5180    7.1960 C.ar      1 NON        -0.0413
      2 CAS       -40.7020   15.7640    7.1470 C.ar      1 NON         0.0345
      3 CLB       -41.7190   17.1710    7.0600 Cl        1 NON        -0.0725
      4 CAG       -39.3340   15.9250    7.1090 C.ar      1 NON        -0.0409
      5 CAT       -38.5550   14.7880    7.0910 C.ar      1 NON         0.0345
      6 CLC       -36.8160   14.9510    7.0030 Cl        1 NON        -0.0725
      7 CAI       -39.1130   13.5250    7.1280 C.ar      1 NON        -0.0413
      8 CAU       -40.4950   13.3820    7.1830 C.ar      1 NON         0.0022
      9 CAM       -41.1310   12.0150    7.2050 C.3       1 NON         0.0001
     10 NAN       -41.3860   11.5130    8.5560 N.4       1 NON         0.2391
     11 CAK       -42.7670   11.7190    8.9900 C.3       1 NON        -0.0305
     12 CAJ       -42.9820   11.3640   10.4500 C.3       1 NON         0.0074
     13 CAL       -43.9450   12.2720   11.1910 C.3       1 NON         0.0364
     14 NAO       -43.2870   13.0750   12.2120 N.am      1 NON        -0.2689
     15 CAR       -43.9760   13.8910   13.0300 C.2       1 NON         0.2802
     16 OAA       -45.1870   13.7880   13.2070 O.2       1 NON        -0.3932
     17 NAP       -43.2210   14.8530   13.6780 N.am      1 NON        -0.2361
     18 CAV       -43.6840   15.8410   14.5600 C.2       1 NON         0.0428
     19 CAE       -42.7290   16.6520   15.2460 C.2       1 NON        -0.0496
     20 CAD       -43.2690   17.5760   16.0430 C.2       1 NON        -0.0130
     21 SAQ       -44.9310   17.4990   15.9750 S.3       1 NON        -0.0723
     22 CAF       -44.9430   16.2060   14.8790 C.2       1 NON        -0.0054
     23 H         -42.3691   14.4268    7.2445 H         1 NON         0.0565
     24 H         -38.8859   16.9119    7.0938 H         1 NON         0.0571
     25 H         -38.4757   12.6483    7.1142 H         1 NON         0.0565
     26 H         -40.4600   11.3101    6.6923 H         1 NON         0.0979
     27 H         -42.0886   12.0675    6.6663 H         1 NON         0.0979
     28 H         -40.7729   11.9911    9.1975 H         1 NON         0.2028
     29 H         -41.1874   10.5249    8.5745 H         1 NON         0.2028
     30 H         -43.4268   11.0901    8.3743 H         1 NON         0.0814
     31 H         -43.0277   12.7775    8.8433 H         1 NON         0.0814
     32 H         -42.0084   11.4090   10.9600 H         1 NON         0.0336
     33 H         -43.3741   10.3374   10.4983 H         1 NON         0.0336
     34 H         -44.7140   11.6508   11.6733 H         1 NON         0.0519
     35 H         -44.4213   12.9473   10.4650 H         1 NON         0.0519
     36 H         -42.2932   13.0182   12.3080 H         1 NON         0.1850
     37 H         -42.2374   14.8428   13.4978 H         1 NON         0.2167
     38 H         -41.6536   16.5271   15.1287 H         1 NON         0.0399
     39 H         -42.7033   18.2802   16.6513 H         1 NON         0.0719
     40 H         -45.8429   15.7349   14.4865 H         1 NON         0.0411
@<TRIPOS>BOND
     1    1    2 ar 
     2    1    8 ar 
     3    2    3 1  
     4    2    4 ar 
     5    4    5 ar 
     6    5    6 1  
     7    5    7 ar 
     8    7    8 ar 
     9    8    9 1  
    10    9   10 1  
    11   10   11 1  
    12   11   12 1  
    13   12   13 1  
    14   13   14 1  
    15   14   15 am 
    16   15   16 2  
    17   15   17 am 
    18   17   18 1  
    19   18   19 1  
    20   18   22 2  
    21   19   20 2  
    22   20   21 1  
    23   21   22 1  
    24    1   23 1  
    25    4   24 1  
    26    7   25 1  
    27    9   26 1  
    28    9   27 1  
    29   10   28 1  
    30   10   29 1  
    31   11   30 1  
    32   11   31 1  
    33   12   32 1  
    34   12   33 1  
    35   13   34 1  
    36   13   35 1  
    37   14   36 1  
    38   17   37 1  
    39   19   38 1  
    40   20   39 1  
    41   22   40 1  
@<TRIPOS>SUBSTRUCTURE
     1 NON         1

