### 
### Created by X-TOOL on Sun Sep  9 21:52:40 2018
### 

@<TRIPOS>MOLECULE
4mvx_ligand
   43    44     1     0     0
SMALL
GAST_HUCK


@<TRIPOS>ATOM
      1 OAA       -45.6720  -13.7090  -12.7080 O.2       1 NON        -0.3904
      2 CLB       -42.0160  -17.1800   -7.0640 Cl        1 NON        -0.0725
      3 CLC       -37.1160  -14.9390   -6.9770 Cl        1 NON        -0.0725
      4 CAD       -44.8450  -17.6790  -15.9750 C.ar      1 NON        -0.0773
      5 CAE       -45.7850  -16.7490  -15.6020 C.ar      1 NON        -0.0757
      6 CAF       -43.5340  -17.5300  -15.5700 C.ar      1 NON        -0.0757
      7 CAG       -45.4290  -15.6710  -14.8060 C.ar      1 NON        -0.0416
      8 CAH       -43.1580  -16.4530  -14.7850 C.ar      1 NON        -0.0416
      9 CAI       -39.6430  -15.9140   -7.1580 C.ar      1 NON        -0.0409
     10 CAJ       -41.6120  -14.5250   -7.0420 C.ar      1 NON        -0.0413
     11 CAK       -39.4370  -13.5130   -7.0420 C.ar      1 NON        -0.0413
     12 CAL       -43.3500  -11.2910  -10.0510 C.3       1 NON         0.0074
     13 CAM       -42.8740  -12.0840   -8.8480 C.3       1 NON        -0.0305
     14 CAN       -44.3600  -12.0040  -10.9330 C.3       1 NON         0.0366
     15 CAO       -41.4930  -12.0370   -6.8130 C.3       1 NON         0.0001
     16 NAP       -41.9090  -11.3360   -8.0370 N.4       1 NON         0.2391
     17 NAQ       -43.7440  -12.7700  -12.0110 N.am      1 NON        -0.2677
     18 NAR       -43.6750  -14.4620  -13.5430 N.am      1 NON        -0.2196
     19 CAS       -44.4440  -13.6530  -12.7470 C.2       1 NON         0.2872
     20 CAT       -41.0150  -15.7630   -7.1130 C.ar      1 NON         0.0345
     21 CAU       -38.8680  -14.7740   -7.1000 C.ar      1 NON         0.0345
     22 CAV       -40.8270  -13.3830   -7.0000 C.ar      1 NON         0.0022
     23 CAW       -44.1080  -15.5180  -14.3880 C.ar      1 NON         0.0665
     24 H         -45.1322  -18.5274  -16.5856 H         1 NON         0.0486
     25 H         -46.8116  -16.8587  -15.9322 H         1 NON         0.0577
     26 H         -42.7926  -18.2621  -15.8689 H         1 NON         0.0577
     27 H         -46.1785  -14.9466  -14.5085 H         1 NON         0.0501
     28 H         -42.1240  -16.3387  -14.4802 H         1 NON         0.0501
     29 H         -39.1900  -16.8957   -7.2363 H         1 NON         0.0571
     30 H         -42.6927  -14.4430   -7.0190 H         1 NON         0.0565
     31 H         -38.8068  -12.6311   -7.0293 H         1 NON         0.0565
     32 H         -42.4722  -11.0463  -10.6671 H         1 NON         0.0336
     33 H         -43.8122  -10.3620   -9.6858 H         1 NON         0.0336
     34 H         -42.3972  -13.0104   -9.2007 H         1 NON         0.0814
     35 H         -43.7434  -12.3343   -8.2224 H         1 NON         0.0814
     36 H         -45.0287  -11.2518  -11.3769 H         1 NON         0.0519
     37 H         -44.9466  -12.6921  -10.3066 H         1 NON         0.0519
     38 H         -42.3896  -12.1907   -6.1945 H         1 NON         0.0979
     39 H         -40.7860  -11.3856   -6.2784 H         1 NON         0.0979
     40 H         -42.3282  -10.4580   -7.7735 H         1 NON         0.2028
     41 H         -41.0896  -11.1622   -8.5978 H         1 NON         0.2028
     42 H         -42.7731  -12.6350  -12.2089 H         1 NON         0.1852
     43 H         -42.6905  -14.2875  -13.5266 H         1 NON         0.2255
@<TRIPOS>BOND
     1   19    1 2  
     2   20    2 1  
     3   21    3 1  
     4    5    4 ar 
     5    6    4 ar 
     6    7    5 ar 
     7    8    6 ar 
     8   23    7 ar 
     9   23    8 ar 
    10   20    9 ar 
    11   21    9 ar 
    12   10   20 ar 
    13   22   10 ar 
    14   11   21 ar 
    15   22   11 ar 
    16   12   13 1  
    17   14   12 1  
    18   13   16 1  
    19   17   14 1  
    20   16   15 1  
    21   15   22 1  
    22   19   17 am 
    23   18   19 am 
    24   18   23 1  
    25    4   24 1  
    26    5   25 1  
    27    6   26 1  
    28    7   27 1  
    29    8   28 1  
    30    9   29 1  
    31   10   30 1  
    32   11   31 1  
    33   12   32 1  
    34   12   33 1  
    35   13   34 1  
    36   13   35 1  
    37   14   36 1  
    38   14   37 1  
    39   15   38 1  
    40   15   39 1  
    41   16   40 1  
    42   16   41 1  
    43   17   42 1  
    44   18   43 1  
@<TRIPOS>SUBSTRUCTURE
     1 NON         1

