### 
### Created by X-TOOL on Sun Sep  9 21:52:38 2018
### 

@<TRIPOS>MOLECULE
4mvy_ligand
   44    45     1     0     0
SMALL
GAST_HUCK


@<TRIPOS>ATOM
      1 CAI       -41.9890  -14.4320   -7.0530 C.ar      1 NON        -0.0413
      2 CAU       -41.3790  -15.6670   -7.0880 C.ar      1 NON         0.0345
      3 CLC       -42.3680  -17.0950   -7.0700 Cl        1 NON        -0.0725
      4 CAH       -40.0080  -15.8070   -7.1170 C.ar      1 NON        -0.0409
      5 CAV       -39.2410  -14.6610   -7.0880 C.ar      1 NON         0.0345
      6 CLD       -37.4840  -14.8160   -6.9820 Cl        1 NON        -0.0725
      7 CAJ       -39.8180  -13.4030   -7.0700 C.ar      1 NON        -0.0413
      8 CAW       -41.2110  -13.2820   -7.0470 C.ar      1 NON         0.0022
      9 CAO       -41.8910  -11.9350   -6.9420 C.3       1 NON         0.0001
     10 NAP       -42.2800  -11.3070   -8.2120 N.4       1 NON         0.2391
     11 CAM       -43.4380  -11.9390   -8.8610 C.3       1 NON        -0.0305
     12 CAL       -43.9140  -11.1620  -10.0820 C.3       1 NON         0.0074
     13 CAN       -44.8270  -11.9310  -11.0190 C.3       1 NON         0.0366
     14 NAQ       -44.1060  -12.7650  -11.9730 N.am      1 NON        -0.2677
     15 CAS       -44.7550  -13.6210  -12.7790 C.2       1 NON         0.2870
     16 OAA       -45.9760  -13.6200  -12.8700 O.2       1 NON        -0.3904
     17 NAR       -43.9450  -14.4400  -13.5290 N.am      1 NON        -0.2220
     18 CAX       -44.3360  -15.4950  -14.4050 C.ar      1 NON         0.0574
     19 CAK       -45.6280  -15.6340  -14.8980 C.ar      1 NON        -0.0146
     20 CAG       -43.3790  -16.4500  -14.7300 C.ar      1 NON        -0.0526
     21 CAE       -43.7200  -17.5270  -15.5340 C.ar      1 NON        -0.0839
     22 CAF       -45.0140  -17.6770  -16.0030 C.ar      1 NON        -0.0488
     23 CAT       -45.9680  -16.7290  -15.6790 C.ar      1 NON         0.0739
     24 OAB       -47.2530  -16.8720  -16.1090 O.3       1 NON        -0.3371
     25 H         -43.0703  -14.3586   -7.0303 H         1 NON         0.0565
     26 H         -39.5470  -16.7871   -7.1612 H         1 NON         0.0571
     27 H         -39.1938  -12.5168   -7.0737 H         1 NON         0.0565
     28 H         -41.2024  -11.2502   -6.4254 H         1 NON         0.0979
     29 H         -42.8013  -12.0641   -6.3382 H         1 NON         0.0979
     30 H         -41.4961  -11.3571   -8.8437 H         1 NON         0.2028
     31 H         -42.5054  -10.3411   -8.0322 H         1 NON         0.2028
     32 H         -44.2624  -11.9961   -8.1350 H         1 NON         0.0814
     33 H         -43.1559  -12.9544   -9.1762 H         1 NON         0.0814
     34 H         -43.0277  -10.8471  -10.6523 H         1 NON         0.0336
     35 H         -44.4580  -10.2733   -9.7295 H         1 NON         0.0336
     36 H         -45.4394  -11.2094  -11.5796 H         1 NON         0.0519
     37 H         -45.4817  -12.5771  -10.4158 H         1 NON         0.0519
     38 H         -43.1097  -12.6984  -12.0282 H         1 NON         0.1852
     39 H         -42.9616  -14.2760  -13.4508 H         1 NON         0.2253
     40 H         -46.3749  -14.8819  -14.6708 H         1 NON         0.0417
     41 H         -42.3666  -16.3525  -14.3549 H         1 NON         0.0412
     42 H         -42.9656  -18.2592  -15.7981 H         1 NON         0.0551
     43 H         -45.2772  -18.5296  -16.6185 H         1 NON         0.0417
     44 H         -47.7725  -16.1390  -15.8003 H         1 NON         0.2477
@<TRIPOS>BOND
     1    1    2 ar 
     2    1    8 ar 
     3    2    3 1  
     4    2    4 ar 
     5    4    5 ar 
     6    5    6 1  
     7    5    7 ar 
     8    7    8 ar 
     9    8    9 1  
    10    9   10 1  
    11   10   11 1  
    12   11   12 1  
    13   12   13 1  
    14   13   14 1  
    15   14   15 am 
    16   15   16 2  
    17   15   17 am 
    18   17   18 1  
    19   18   19 ar 
    20   18   20 ar 
    21   19   23 ar 
    22   20   21 ar 
    23   21   22 ar 
    24   22   23 ar 
    25   23   24 1  
    26    1   25 1  
    27    4   26 1  
    28    7   27 1  
    29    9   28 1  
    30    9   29 1  
    31   10   30 1  
    32   10   31 1  
    33   11   32 1  
    34   11   33 1  
    35   12   34 1  
    36   12   35 1  
    37   13   36 1  
    38   13   37 1  
    39   14   38 1  
    40   17   39 1  
    41   19   40 1  
    42   20   41 1  
    43   21   42 1  
    44   22   43 1  
    45   24   44 1  
@<TRIPOS>SUBSTRUCTURE
     1 NON         1

