### 
### Created by X-TOOL on Sun Sep  9 21:52:35 2018
### 

@<TRIPOS>MOLECULE
4mw0_ligand
   44    45     1     0     0
SMALL
GAST_HUCK


@<TRIPOS>ATOM
      1 CAJ       -42.0050  -14.4790   -6.9860 C.ar      1 NON        -0.0413
      2 CAT       -41.3960  -15.7150   -6.9920 C.ar      1 NON         0.0345
      3 CLC       -42.3850  -17.1360   -6.9320 Cl        1 NON        -0.0725
      4 CAI       -40.0230  -15.8570   -6.9990 C.ar      1 NON        -0.0409
      5 CAU       -39.2570  -14.7090   -6.9740 C.ar      1 NON         0.0345
      6 CLD       -37.5020  -14.8600   -6.8970 Cl        1 NON        -0.0725
      7 CAK       -39.8360  -13.4500   -6.9700 C.ar      1 NON        -0.0413
      8 CAW       -41.2280  -13.3290   -6.9740 C.ar      1 NON         0.0022
      9 CAO       -41.9130  -11.9830   -6.9090 C.3       1 NON         0.0001
     10 NAP       -42.3000  -11.4180   -8.2100 N.4       1 NON         0.2391
     11 CAM       -43.5110  -12.0190   -8.7780 C.3       1 NON        -0.0305
     12 CAL       -44.0190  -11.2580   -9.9920 C.3       1 NON         0.0074
     13 CAN       -44.9920  -12.0320  -10.8770 C.3       1 NON         0.0365
     14 NAQ       -44.3390  -12.8180  -11.9170 N.am      1 NON        -0.2682
     15 CAS       -45.0050  -13.7440  -12.6380 C.2       1 NON         0.2844
     16 OAA       -46.2160  -13.9200  -12.5170 O.2       1 NON        -0.3916
     17 NAR       -44.2330  -14.4270  -13.5500 N.am      1 NON        -0.2222
     18 CAX       -44.6270  -15.5000  -14.4010 C.ar      1 NON         0.0964
     19 CAH       -43.7060  -16.5260  -14.6130 C.ar      1 NON        -0.0496
     20 CAF       -44.0520  -17.6080  -15.4080 C.ar      1 NON        -0.0870
     21 CAE       -45.3070  -17.6830  -15.9820 C.ar      1 NON        -0.0863
     22 CAG       -46.2260  -16.6720  -15.7810 C.ar      1 NON        -0.0465
     23 CAV       -45.8920  -15.5710  -15.0000 C.ar      1 NON         0.1087
     24 OAB       -46.8360  -14.6420  -14.6880 O.3       1 NON        -0.3395
     25 H         -43.0865  -14.4051   -6.9906 H         1 NON         0.0565
     26 H         -39.5616  -16.8376   -7.0233 H         1 NON         0.0571
     27 H         -39.2122  -12.5635   -6.9638 H         1 NON         0.0565
     28 H         -41.2278  -11.2749   -6.4200 H         1 NON         0.0979
     29 H         -42.8228  -12.0924   -6.3006 H         1 NON         0.0979
     30 H         -41.5406  -11.5606   -8.8573 H         1 NON         0.2028
     31 H         -42.4604  -10.4298   -8.0926 H         1 NON         0.2028
     32 H         -44.2976  -12.0236   -8.0091 H         1 NON         0.0814
     33 H         -43.2853  -13.0530   -9.0779 H         1 NON         0.0814
     34 H         -43.1508  -10.9751  -10.6054 H         1 NON         0.0336
     35 H         -44.5287  -10.3501   -9.6371 H         1 NON         0.0336
     36 H         -45.6702  -11.3128  -11.3594 H         1 NON         0.0519
     37 H         -45.5739  -12.7142  -10.2398 H         1 NON         0.0519
     38 H         -43.3680  -12.6662  -12.1016 H         1 NON         0.1851
     39 H         -43.2796  -14.1347  -13.6245 H         1 NON         0.2221
     40 H         -42.7234  -16.4776  -14.1579 H         1 NON         0.0465
     41 H         -43.3331  -18.4007  -15.5806 H         1 NON         0.0484
     42 H         -45.5710  -18.5389  -16.5925 H         1 NON         0.0459
     43 H         -47.2093  -16.7368  -16.2327 H         1 NON         0.0494
     44 H         -46.4445  -13.9616  -14.1530 H         1 NON         0.2433
@<TRIPOS>BOND
     1    1    2 ar 
     2    1    8 ar 
     3    2    3 1  
     4    2    4 ar 
     5    4    5 ar 
     6    5    6 1  
     7    5    7 ar 
     8    7    8 ar 
     9    8    9 1  
    10    9   10 1  
    11   10   11 1  
    12   11   12 1  
    13   12   13 1  
    14   13   14 1  
    15   14   15 am 
    16   15   16 2  
    17   15   17 am 
    18   17   18 1  
    19   18   19 ar 
    20   18   23 ar 
    21   19   20 ar 
    22   20   21 ar 
    23   21   22 ar 
    24   22   23 ar 
    25   23   24 1  
    26    1   25 1  
    27    4   26 1  
    28    7   27 1  
    29    9   28 1  
    30    9   29 1  
    31   10   30 1  
    32   10   31 1  
    33   11   32 1  
    34   11   33 1  
    35   12   34 1  
    36   12   35 1  
    37   13   36 1  
    38   13   37 1  
    39   14   38 1  
    40   17   39 1  
    41   19   40 1  
    42   20   41 1  
    43   21   42 1  
    44   22   43 1  
    45   24   44 1  
@<TRIPOS>SUBSTRUCTURE
     1 NON         1

