### 
### Created by X-TOOL on Sun Sep  9 21:52:38 2018
### 

@<TRIPOS>MOLECULE
4mw1_ligand
   44    45     1     0     0
SMALL
GAST_HUCK


@<TRIPOS>ATOM
      1 CAA       -41.6950  -17.7880   -7.0710 C.3       1 NON         0.0592
      2 OAQ       -42.1660  -16.4520   -6.9750 O.3       1 NON        -0.3230
      3 CAW       -41.2520  -15.4400   -6.9860 C.ar      1 NON         0.0847
      4 CAI       -41.8120  -14.1790   -7.0030 C.ar      1 NON        -0.0271
      5 CAH       -39.8860  -15.6230   -7.0390 C.ar      1 NON        -0.0263
      6 CAT       -39.0890  -14.5080   -7.1210 C.ar      1 NON         0.0255
      7 CLC       -37.3700  -14.7200   -7.1630 Cl        1 NON        -0.0753
      8 CAG       -39.6160  -13.2330   -7.1570 C.ar      1 NON        -0.0526
      9 CAU       -40.9980  -13.0600   -7.0970 C.ar      1 NON        -0.0070
     10 CAM       -41.6290  -11.6890   -7.1120 C.3       1 NON        -0.0024
     11 NAN       -42.0230  -11.2070   -8.4400 N.4       1 NON         0.2390
     12 CAK       -43.0800  -12.0040   -9.0660 C.3       1 NON        -0.0305
     13 CAJ       -43.6410  -11.3270  -10.2990 C.3       1 NON         0.0074
     14 CAL       -44.5670  -12.1890  -11.1360 C.3       1 NON         0.0364
     15 NAO       -43.8450  -13.0040  -12.1020 N.am      1 NON        -0.2689
     16 CAS       -44.4720  -13.8500  -12.9380 C.2       1 NON         0.2802
     17 OAB       -45.6830  -13.8260  -13.1170 O.2       1 NON        -0.3932
     18 NAP       -43.6590  -14.7360  -13.6330 N.am      1 NON        -0.2361
     19 CAV       -44.1160  -15.7380  -14.5220 C.2       1 NON         0.0428
     20 CAE       -43.1640  -16.6190  -15.1180 C.2       1 NON        -0.0496
     21 CAD       -43.7330  -17.5560  -15.9090 C.2       1 NON        -0.0130
     22 SAR       -45.4230  -17.4070  -15.9460 S.3       1 NON        -0.0723
     23 CAF       -45.4000  -16.0630  -14.9080 C.2       1 NON        -0.0054
     24 H         -42.5494  -18.4805   -7.0484 H         1 NON         0.0577
     25 H         -41.0264  -18.0028   -6.2243 H         1 NON         0.0577
     26 H         -41.1444  -17.9158   -8.0146 H         1 NON         0.0577
     27 H         -42.8881  -14.0630   -6.9429 H         1 NON         0.0482
     28 H         -39.4546  -16.6172   -7.0166 H         1 NON         0.0491
     29 H         -38.9605  -12.3729   -7.2313 H         1 NON         0.0472
     30 H         -40.9064  -10.9752   -6.6896 H         1 NON         0.0978
     31 H         -42.5278  -11.7191   -6.4786 H         1 NON         0.0978
     32 H         -41.2126  -11.2267   -9.0391 H         1 NON         0.2028
     33 H         -42.3511  -10.2582   -8.3497 H         1 NON         0.2028
     34 H         -43.8929  -12.1504   -8.3395 H         1 NON         0.0814
     35 H         -42.6654  -12.9813   -9.3542 H         1 NON         0.0814
     36 H         -42.7969  -11.0174  -10.9327 H         1 NON         0.0336
     37 H         -44.2018  -10.4379   -9.9752 H         1 NON         0.0336
     38 H         -45.2651  -11.5342  -11.6781 H         1 NON         0.0519
     39 H         -45.1326  -12.8534  -10.4661 H         1 NON         0.0519
     40 H         -42.8485  -12.9322  -12.1454 H         1 NON         0.1850
     41 H         -42.6716  -14.6599  -13.4942 H         1 NON         0.2167
     42 H         -42.0903  -16.5440  -14.9526 H         1 NON         0.0399
     43 H         -43.1747  -18.3143  -16.4560 H         1 NON         0.0719
     44 H         -46.2898  -15.5238  -14.5865 H         1 NON         0.0411
@<TRIPOS>BOND
     1    1    2 1  
     2    2    3 1  
     3    3    4 ar 
     4    3    5 ar 
     5    4    9 ar 
     6    5    6 ar 
     7    6    7 1  
     8    6    8 ar 
     9    8    9 ar 
    10    9   10 1  
    11   10   11 1  
    12   11   12 1  
    13   12   13 1  
    14   13   14 1  
    15   14   15 1  
    16   15   16 am 
    17   16   17 2  
    18   16   18 am 
    19   18   19 1  
    20   19   20 1  
    21   19   23 2  
    22   20   21 2  
    23   21   22 1  
    24   22   23 1  
    25    1   24 1  
    26    1   25 1  
    27    1   26 1  
    28    4   27 1  
    29    5   28 1  
    30    8   29 1  
    31   10   30 1  
    32   10   31 1  
    33   11   32 1  
    34   11   33 1  
    35   12   34 1  
    36   12   35 1  
    37   13   36 1  
    38   13   37 1  
    39   14   38 1  
    40   14   39 1  
    41   15   40 1  
    42   18   41 1  
    43   20   42 1  
    44   21   43 1  
    45   23   44 1  
@<TRIPOS>SUBSTRUCTURE
     1 NON         1

