### 
### Created by X-TOOL on Sun Sep  9 21:52:41 2018
### 

@<TRIPOS>MOLECULE
4mw2_ligand
   48    49     1     0     0
SMALL
GAST_HUCK


@<TRIPOS>ATOM
      1 O1        -45.1200   13.7520   13.5000 O.2       1 NON        -0.3932
      2 C13       -43.9600   13.8320   13.1090 C.2       1 NON         0.2802
      3 N2        -43.1290   14.8210   13.5930 N.am      1 NON        -0.2361
      4 C14       -43.5630   15.8280   14.4720 C.2       1 NON         0.0428
      5 C17       -42.6110   16.7710   14.9690 C.2       1 NON        -0.0496
      6 C16       -43.1650   17.7130   15.7660 C.2       1 NON        -0.0130
      7 S         -44.8580   17.4710   15.9120 S.3       1 NON        -0.0723
      8 C15       -44.8460   16.0970   14.9250 C.2       1 NON        -0.0054
      9 N1        -43.4380   12.9620   12.2310 N.am      1 NON        -0.2689
     10 C12       -44.2870   11.9880   11.5580 C.3       1 NON         0.0364
     11 C11       -43.7100   11.4810   10.2700 C.3       1 NON         0.0074
     12 C10       -43.8760   12.4530    9.1240 C.3       1 NON        -0.0307
     13 N         -43.5840   11.8210    7.8320 N.4       1 NON         0.2374
     14 C9        -43.4010   12.7810    6.7430 C.3       1 NON        -0.0030
     15 C5        -42.2820   13.7750    6.9640 C.ar      1 NON         0.0250
     16 C4        -40.9920   13.3270    7.2750 C.ar      1 NON         0.0984
     17 O         -40.7800   11.9970    7.4400 O.3       1 NON        -0.3399
     18 C6        -42.4930   15.1360    6.8030 C.ar      1 NON        -0.0563
     19 C7        -41.4380   16.0110    6.9290 C.ar      1 NON         0.0162
     20 CL        -41.7170   17.7110    6.6750 Cl        1 NON        -0.0844
     21 C8        -40.1630   15.5770    7.2310 C.ar      1 NON        -0.0594
     22 C3        -39.9170   14.2190    7.4080 C.ar      1 NON        -0.0075
     23 C2        -38.5070   13.7310    7.7010 C.3       1 NON         0.0046
     24 C1        -37.4520   14.5310    6.9700 C.2       1 NON        -0.0802
     25 C         -36.8050   15.5390    7.4440 C.2       1 NON        -0.1156
     26 H         -42.1715   14.8214   13.3045 H         1 NON         0.2167
     27 H         -41.5490   16.7348   14.7306 H         1 NON         0.0399
     28 H         -42.6116   18.5165   16.2498 H         1 NON         0.0719
     29 H         -45.7259   15.5044   14.6789 H         1 NON         0.0411
     30 H         -42.4572   12.9823   12.0368 H         1 NON         0.1850
     31 H         -45.2566   12.4608   11.3429 H         1 NON         0.0519
     32 H         -44.4379   11.1324   12.2326 H         1 NON         0.0519
     33 H         -44.2144   10.5396   10.0067 H         1 NON         0.0336
     34 H         -42.6362   11.2930   10.4171 H         1 NON         0.0336
     35 H         -43.1883   13.2988    9.2710 H         1 NON         0.0814
     36 H         -44.9127   12.8206    9.1152 H         1 NON         0.0814
     37 H         -44.3503   11.2108    7.5944 H         1 NON         0.2025
     38 H         -42.7393   11.2789    7.9252 H         1 NON         0.2025
     39 H         -44.3390   13.3419    6.6182 H         1 NON         0.0953
     40 H         -43.1845   12.2191    5.8225 H         1 NON         0.0953
     41 H         -39.8648   11.8464    7.6455 H         1 NON         0.2434
     42 H         -43.4855   15.5096    6.5786 H         1 NON         0.0482
     43 H         -39.3549   16.2927    7.3301 H         1 NON         0.0482
     44 H         -38.4273   12.6781    7.3929 H         1 NON         0.0575
     45 H         -38.3238   13.8115    8.7826 H         1 NON         0.0575
     46 H         -37.2182   14.2274    5.9507 H         1 NON         0.0685
     47 H         -36.0623   16.0467    6.8304 H         1 NON         0.0297
     48 H         -37.0008   15.8835    8.4584 H         1 NON         0.0297
@<TRIPOS>BOND
     1    1    2 2  
     2    2    3 am 
     3    2    9 am 
     4    3    4 1  
     5    4    5 1  
     6    4    8 2  
     7    5    6 2  
     8    6    7 1  
     9    7    8 1  
    10    9   10 1  
    11   10   11 1  
    12   11   12 1  
    13   12   13 1  
    14   13   14 1  
    15   14   15 1  
    16   15   16 ar 
    17   15   18 ar 
    18   16   17 1  
    19   16   22 ar 
    20   18   19 ar 
    21   19   20 1  
    22   19   21 ar 
    23   21   22 ar 
    24   22   23 1  
    25   23   24 1  
    26   24   25 2  
    27    3   26 1  
    28    5   27 1  
    29    6   28 1  
    30    8   29 1  
    31    9   30 1  
    32   10   31 1  
    33   10   32 1  
    34   11   33 1  
    35   11   34 1  
    36   12   35 1  
    37   12   36 1  
    38   13   37 1  
    39   13   38 1  
    40   14   39 1  
    41   14   40 1  
    42   17   41 1  
    43   18   42 1  
    44   21   43 1  
    45   23   44 1  
    46   23   45 1  
    47   24   46 1  
    48   25   47 1  
    49   25   48 1  
@<TRIPOS>SUBSTRUCTURE
     1 NON         1

