### 
### Created by X-TOOL on Sun Sep  9 21:52:41 2018
### 

@<TRIPOS>MOLECULE
4mw4_ligand
   41    42     1     0     0
SMALL
GAST_HUCK


@<TRIPOS>ATOM
      1 I         -36.7560   15.2180    7.0000 I         1 NON        -0.0588
      2 C14       -38.8640   14.9130    7.0920 C.ar      1 NON         0.0317
      3 C         -39.4150   13.6130    7.0930 C.ar      1 NON         0.1061
      4 O         -38.6000   12.5260    7.1240 O.3       1 NON        -0.3341
      5 C13       -39.7070   16.0190    7.1100 C.ar      1 NON        -0.0527
      6 C12       -41.0760   15.8210    7.0890 C.ar      1 NON         0.0249
      7 CL        -42.1300   17.1990    7.0350 Cl        1 NON        -0.0822
      8 C11       -41.6330   14.5630    7.0740 C.ar      1 NON        -0.0474
      9 C1        -40.8200   13.4410    7.0790 C.ar      1 NON         0.0339
     10 C2        -41.4230   12.0550    7.0450 C.3       1 NON        -0.0007
     11 N         -41.6680   11.4320    8.3520 N.4       1 NON         0.2376
     12 C3        -42.9500   11.8190    8.9530 C.3       1 NON        -0.0307
     13 C4        -43.1370   11.2450   10.3560 C.3       1 NON         0.0074
     14 C5        -44.1150   11.9880   11.2490 C.3       1 NON         0.0364
     15 N1        -43.4470   12.8720   12.1960 N.am      1 NON        -0.2689
     16 C6        -44.1240   13.7500   12.9590 C.2       1 NON         0.2802
     17 O1        -45.3500   13.7500   13.0360 O.2       1 NON        -0.3932
     18 N2        -43.3430   14.6490   13.6630 N.am      1 NON        -0.2361
     19 C7        -43.8000   15.6870   14.5240 C.2       1 NON         0.0428
     20 C10       -42.8400   16.5810   15.0920 C.2       1 NON        -0.0496
     21 C9        -43.3780   17.5340   15.8670 C.2       1 NON        -0.0130
     22 S         -45.0700   17.3820   15.9270 S.3       1 NON        -0.0723
     23 C8        -45.0740   16.0210   14.9120 C.2       1 NON        -0.0054
     24 H         -39.1274   11.7359    7.1201 H         1 NON         0.2470
     25 H         -39.2971   17.0221    7.1401 H         1 NON         0.0566
     26 H         -42.7109   14.4493    7.0582 H         1 NON         0.0553
     27 H         -40.7381   11.4027    6.4834 H         1 NON         0.0956
     28 H         -42.3853   12.1185    6.5159 H         1 NON         0.0956
     29 H         -40.9268   11.7033    8.9789 H         1 NON         0.2026
     30 H         -41.6596   10.4309    8.2350 H         1 NON         0.2026
     31 H         -43.7649   11.4532    8.3111 H         1 NON         0.0814
     32 H         -42.9944   12.9165    9.0124 H         1 NON         0.0814
     33 H         -42.1566   11.2464   10.8547 H         1 NON         0.0336
     34 H         -43.4942   10.2098   10.2523 H         1 NON         0.0336
     35 H         -44.7078   11.2519   11.8117 H         1 NON         0.0519
     36 H         -44.7832   12.5901   10.6158 H         1 NON         0.0519
     37 H         -42.4518   12.8245   12.2817 H         1 NON         0.1850
     38 H         -42.3527   14.5605   13.5559 H         1 NON         0.2167
     39 H         -41.7694   16.4959   14.9118 H         1 NON         0.0399
     40 H         -42.8078   18.3018   16.3878 H         1 NON         0.0719
     41 H         -45.9706   15.4828   14.6081 H         1 NON         0.0411
@<TRIPOS>BOND
     1    1    2 1  
     2    2    3 ar 
     3    2    5 ar 
     4    3    4 1  
     5    3    9 ar 
     6    5    6 ar 
     7    6    7 1  
     8    6    8 ar 
     9    8    9 ar 
    10    9   10 1  
    11   10   11 1  
    12   11   12 1  
    13   12   13 1  
    14   13   14 1  
    15   14   15 1  
    16   15   16 am 
    17   16   17 2  
    18   16   18 am 
    19   18   19 1  
    20   19   20 1  
    21   19   23 2  
    22   20   21 2  
    23   21   22 1  
    24   22   23 1  
    25    4   24 1  
    26    5   25 1  
    27    8   26 1  
    28   10   27 1  
    29   10   28 1  
    30   11   29 1  
    31   11   30 1  
    32   12   31 1  
    33   12   32 1  
    34   13   33 1  
    35   13   34 1  
    36   14   35 1  
    37   14   36 1  
    38   15   37 1  
    39   18   38 1  
    40   20   39 1  
    41   21   40 1  
    42   23   41 1  
@<TRIPOS>SUBSTRUCTURE
     1 NON         1

