### 
### Created by X-TOOL on Sun Sep  9 21:52:37 2018
### 

@<TRIPOS>MOLECULE
4mw5_ligand
   47    48     1     0     0
SMALL
GAST_HUCK


@<TRIPOS>ATOM
      1 CAA       -41.5580  -17.8760   -7.0910 C.3       1 NON         0.0592
      2 OAS       -42.0010  -16.5400   -6.9730 O.3       1 NON        -0.3230
      3 CAX       -41.0690  -15.5380   -7.0230 C.ar      1 NON         0.0847
      4 CAK       -41.6690  -14.2970   -6.9560 C.ar      1 NON        -0.0271
      5 CAJ       -39.7000  -15.6690   -7.1350 C.ar      1 NON        -0.0263
      6 CAU       -38.9440  -14.5230   -7.1540 C.ar      1 NON         0.0255
      7 CLC       -37.2230  -14.6670   -7.2090 Cl        1 NON        -0.0753
      8 CAI       -39.5130  -13.2690   -7.0960 C.ar      1 NON        -0.0526
      9 CAV       -40.8970  -13.1480   -7.0060 C.ar      1 NON        -0.0070
     10 CAO       -41.5720  -11.7990   -6.9930 C.3       1 NON        -0.0024
     11 NAP       -41.8800  -11.2900   -8.3320 N.4       1 NON         0.2390
     12 CAM       -43.0570  -11.9260   -8.9260 C.3       1 NON        -0.0305
     13 CAL       -43.5110  -11.2180  -10.1820 C.3       1 NON         0.0074
     14 CAN       -44.4360  -12.0360  -11.0520 C.3       1 NON         0.0366
     15 NAQ       -43.7180  -12.8690  -12.0110 N.am      1 NON        -0.2677
     16 CAT       -44.3780  -13.6870  -12.8490 C.2       1 NON         0.2872
     17 OAB       -45.6060  -13.7370  -12.8700 O.2       1 NON        -0.3904
     18 NAR       -43.5780  -14.4960  -13.6150 N.am      1 NON        -0.2196
     19 CAW       -44.0010  -15.5480  -14.4730 C.ar      1 NON         0.0665
     20 CAG       -45.3150  -15.6580  -14.9200 C.ar      1 NON        -0.0416
     21 CAE       -45.6870  -16.7220  -15.7280 C.ar      1 NON        -0.0757
     22 CAD       -44.7630  -17.6650  -16.1030 C.ar      1 NON        -0.0773
     23 CAF       -43.4540  -17.5530  -15.6750 C.ar      1 NON        -0.0757
     24 CAH       -43.0690  -16.5030  -14.8590 C.ar      1 NON        -0.0416
     25 H         -42.4213  -18.5551   -7.0317 H         1 NON         0.0577
     26 H         -40.8562  -18.1031   -6.2750 H         1 NON         0.0577
     27 H         -41.0516  -18.0103   -8.0582 H         1 NON         0.0577
     28 H         -42.7464  -14.2213   -6.8641 H         1 NON         0.0482
     29 H         -39.2359  -16.6461   -7.2058 H         1 NON         0.0491
     30 H         -38.8877  -12.3838   -7.1203 H         1 NON         0.0472
     31 H         -40.9066  -11.0809   -6.4915 H         1 NON         0.0978
     32 H         -42.5118  -11.8847   -6.4278 H         1 NON         0.0978
     33 H         -41.0867  -11.4587   -8.9306 H         1 NON         0.2028
     34 H         -42.0481  -10.2982   -8.2683 H         1 NON         0.2028
     35 H         -43.8772  -11.9096   -8.1932 H         1 NON         0.0814
     36 H         -42.8092  -12.9682   -9.1759 H         1 NON         0.0814
     37 H         -42.6204  -10.9587  -10.7733 H         1 NON         0.0336
     38 H         -44.0371  -10.2976   -9.8886 H         1 NON         0.0336
     39 H         -45.0955  -11.3513  -11.6054 H         1 NON         0.0519
     40 H         -45.0427  -12.6871  -10.4055 H         1 NON         0.0519
     41 H         -42.7193  -12.8308  -12.0454 H         1 NON         0.1852
     42 H         -42.5934  -14.3283  -13.5648 H         1 NON         0.2255
     43 H         -46.0479  -14.9114  -14.6362 H         1 NON         0.0501
     44 H         -46.7135  -16.8094  -16.0653 H         1 NON         0.0577
     45 H         -45.0594  -18.4956  -16.7334 H         1 NON         0.0486
     46 H         -42.7230  -18.2929  -15.9805 H         1 NON         0.0577
     47 H         -42.0417  -16.4262  -14.5217 H         1 NON         0.0501
@<TRIPOS>BOND
     1    1    2 1  
     2    2    3 1  
     3    3    4 ar 
     4    3    5 ar 
     5    4    9 ar 
     6    5    6 ar 
     7    6    7 1  
     8    6    8 ar 
     9    8    9 ar 
    10    9   10 1  
    11   10   11 1  
    12   11   12 1  
    13   12   13 1  
    14   13   14 1  
    15   14   15 1  
    16   15   16 am 
    17   16   17 2  
    18   16   18 am 
    19   18   19 1  
    20   19   20 ar 
    21   19   24 ar 
    22   20   21 ar 
    23   21   22 ar 
    24   22   23 ar 
    25   23   24 ar 
    26    1   25 1  
    27    1   26 1  
    28    1   27 1  
    29    4   28 1  
    30    5   29 1  
    31    8   30 1  
    32   10   31 1  
    33   10   32 1  
    34   11   33 1  
    35   11   34 1  
    36   12   35 1  
    37   12   36 1  
    38   13   37 1  
    39   13   38 1  
    40   14   39 1  
    41   14   40 1  
    42   15   41 1  
    43   18   42 1  
    44   20   43 1  
    45   21   44 1  
    46   22   45 1  
    47   23   46 1  
    48   24   47 1  
@<TRIPOS>SUBSTRUCTURE
     1 NON         1

