### 
### Created by X-TOOL on Sun Sep  9 21:52:41 2018
### 

@<TRIPOS>MOLECULE
4mw6_ligand
   61    63     1     0     0
SMALL
GAST_HUCK


@<TRIPOS>ATOM
      1 CL        -36.9930  -15.0110   -7.1020 Cl        1 NON        -0.0844
      2 C5        -38.6980  -14.6780   -7.2380 C.ar      1 NON         0.0162
      3 C4        -39.5960  -15.7130   -7.0970 C.ar      1 NON        -0.0593
      4 C6        -39.1180  -13.3800   -7.4370 C.ar      1 NON        -0.0563
      5 C7        -40.4810  -13.0850   -7.4550 C.ar      1 NON         0.0254
      6 C8        -41.3910  -14.1290   -7.2290 C.ar      1 NON         0.1047
      7 O         -42.7340  -13.8050   -7.0010 O.3       1 NON        -0.3123
      8 C9        -43.7490  -14.8090   -7.1660 C.3       1 NON         0.1012
      9 C10       -45.1500  -14.2680   -7.1890 C.ar      1 NON        -0.0133
     10 C15       -45.5690  -13.2960   -6.2920 C.ar      1 NON        -0.0578
     11 C14       -46.9070  -12.9470   -6.2010 C.ar      1 NON        -0.0685
     12 C13       -47.8400  -13.5550   -7.0140 C.ar      1 NON        -0.0687
     13 C12       -47.4340  -14.5000   -7.9280 C.ar      1 NON        -0.0685
     14 C11       -46.0970  -14.8490   -8.0210 C.ar      1 NON        -0.0578
     15 C3        -40.9660  -15.4580   -7.1050 C.ar      1 NON        -0.0071
     16 C2        -41.7830  -16.7360   -7.1320 C.3       1 NON         0.0046
     17 C1        -41.3090  -17.6600   -6.1590 C.2       1 NON        -0.0802
     18 C         -41.5950  -17.6560   -5.0100 C.2       1 NON        -0.1156
     19 C16       -40.9670  -11.6980   -7.8200 C.3       1 NON        -0.0029
     20 N         -41.2360  -11.5240   -9.2600 N.4       1 NON         0.2374
     21 C17       -42.5630  -10.9550   -9.5670 C.3       1 NON        -0.0307
     22 C18       -43.6410  -12.0160   -9.7790 C.3       1 NON         0.0074
     23 C19       -44.3140  -12.0200  -11.1450 C.3       1 NON         0.0364
     24 N1        -43.6150  -12.8390  -12.1320 N.am      1 NON        -0.2689
     25 C20       -44.2570  -13.6810  -12.9710 C.2       1 NON         0.2802
     26 O1        -45.4680  -13.6060  -13.2040 O.2       1 NON        -0.3932
     27 N2        -43.4400  -14.6300  -13.6020 N.am      1 NON        -0.2361
     28 C21       -43.8350  -15.6880  -14.4950 C.2       1 NON         0.0428
     29 C24       -42.8290  -16.5860  -14.9760 C.2       1 NON        -0.0496
     30 C23       -43.3040  -17.5650  -15.7760 C.2       1 NON        -0.0130
     31 S         -45.0110  -17.4250  -15.9570 S.3       1 NON        -0.0723
     32 C22       -45.0890  -16.0380  -14.9680 C.2       1 NON        -0.0054
     33 H         -39.2360  -16.7287   -6.9795 H         1 NON         0.0482
     34 H         -38.3898  -12.5897   -7.5793 H         1 NON         0.0482
     35 H         -43.6680  -15.5222   -6.3324 H         1 NON         0.0773
     36 H         -43.5655  -15.3327   -8.1158 H         1 NON         0.0773
     37 H         -44.8421  -12.8044   -5.6556 H         1 NON         0.0557
     38 H         -47.2213  -12.1933   -5.4881 H         1 NON         0.0599
     39 H         -48.8880  -13.2899   -6.9335 H         1 NON         0.0559
     40 H         -48.1625  -14.9725   -8.5769 H         1 NON         0.0599
     41 H         -45.7860  -15.5855   -8.7531 H         1 NON         0.0557
     42 H         -41.7060  -17.1922   -8.1300 H         1 NON         0.0575
     43 H         -42.8351  -16.4959   -6.9187 H         1 NON         0.0575
     44 H         -40.6256  -18.4363   -6.4999 H         1 NON         0.0685
     45 H         -41.1781  -18.4087   -4.3425 H         1 NON         0.0297
     46 H         -42.2750  -16.8996   -4.6208 H         1 NON         0.0297
     47 H         -40.1985  -10.9705   -7.5199 H         1 NON         0.0953
     48 H         -41.8965  -11.4988   -7.2665 H         1 NON         0.0953
     49 H         -41.1691  -12.4261   -9.7047 H         1 NON         0.2025
     50 H         -40.5336  -10.9091   -9.6401 H         1 NON         0.2025
     51 H         -42.4810  -10.3526  -10.4837 H         1 NON         0.0814
     52 H         -42.8682  -10.3096   -8.7302 H         1 NON         0.0814
     53 H         -44.4214  -11.8593   -9.0198 H         1 NON         0.0336
     54 H         -43.1768  -13.0020   -9.6297 H         1 NON         0.0336
     55 H         -44.3557  -10.9855  -11.5166 H         1 NON         0.0519
     56 H         -45.3362  -12.4095  -11.0293 H         1 NON         0.0519
     57 H         -42.6188  -12.7737  -12.1891 H         1 NON         0.1850
     58 H         -42.4613  -14.5637  -13.4076 H         1 NON         0.2167
     59 H         -41.7751  -16.4884  -14.7197 H         1 NON         0.0399
     60 H         -42.6924  -18.3361  -16.2421 H         1 NON         0.0719
     61 H         -46.0060  -15.4974  -14.7381 H         1 NON         0.0411
@<TRIPOS>BOND
     1    1    2 1  
     2    2    3 ar 
     3    2    4 ar 
     4    3   15 ar 
     5    4    5 ar 
     6    5    6 ar 
     7    5   19 1  
     8    6    7 1  
     9    6   15 ar 
    10    7    8 1  
    11    8    9 1  
    12    9   10 ar 
    13    9   14 ar 
    14   10   11 ar 
    15   11   12 ar 
    16   12   13 ar 
    17   13   14 ar 
    18   15   16 1  
    19   16   17 1  
    20   17   18 2  
    21   19   20 1  
    22   20   21 1  
    23   21   22 1  
    24   22   23 1  
    25   23   24 1  
    26   24   25 am 
    27   25   26 2  
    28   25   27 am 
    29   27   28 1  
    30   28   29 1  
    31   28   32 2  
    32   29   30 2  
    33   30   31 1  
    34   31   32 1  
    35    3   33 1  
    36    4   34 1  
    37    8   35 1  
    38    8   36 1  
    39   10   37 1  
    40   11   38 1  
    41   12   39 1  
    42   13   40 1  
    43   14   41 1  
    44   16   42 1  
    45   16   43 1  
    46   17   44 1  
    47   18   45 1  
    48   18   46 1  
    49   19   47 1  
    50   19   48 1  
    51   20   49 1  
    52   20   50 1  
    53   21   51 1  
    54   21   52 1  
    55   22   53 1  
    56   22   54 1  
    57   23   55 1  
    58   23   56 1  
    59   24   57 1  
    60   27   58 1  
    61   29   59 1  
    62   30   60 1  
    63   32   61 1  
@<TRIPOS>SUBSTRUCTURE
     1 NON         1

