### 
### Created by X-TOOL on Sun Sep  9 21:52:37 2018
### 

@<TRIPOS>MOLECULE
4mw7_ligand
   47    48     1     0     0
SMALL
GAST_HUCK


@<TRIPOS>ATOM
      1 I          41.7820   17.4110   -7.0800 I         1 NON        -0.0588
      2 C16        40.7680   15.5620   -7.0500 C.ar      1 NON         0.0320
      3 C2         41.4680   14.3470   -7.1340 C.ar      1 NON         0.1096
      4 O          42.8160   14.3330   -7.4330 O.3       1 NON        -0.3192
      5 C1         43.6930   14.5900   -6.3350 C.3       1 NON         0.0669
      6 C          45.0800   14.5490   -6.8470 C.3       1 NON        -0.0373
      7 C15        39.3940   15.5680   -6.8900 C.ar      1 NON        -0.0527
      8 C14        38.7340   14.3620   -6.7930 C.ar      1 NON         0.0249
      9 CL         36.9960   14.3600   -6.6620 Cl        1 NON        -0.0822
     10 C13        39.4080   13.1570   -6.8310 C.ar      1 NON        -0.0474
     11 C3         40.7930   13.1310   -6.9970 C.ar      1 NON         0.0341
     12 C4         41.5520   11.8250   -6.9890 C.3       1 NON        -0.0007
     13 N          41.6480   11.1700   -8.2970 N.4       1 NON         0.2376
     14 C5         42.9850   11.2590   -8.8930 C.3       1 NON        -0.0307
     15 C6         42.9740   11.1260  -10.4060 C.3       1 NON         0.0074
     16 C7         43.9320   12.0430  -11.1330 C.3       1 NON         0.0364
     17 N1         43.2910   12.7890  -12.2070 N.am      1 NON        -0.2689
     18 C8         43.9760   13.6310  -13.0010 C.2       1 NON         0.2802
     19 O1         45.1880   13.5460  -13.1610 O.2       1 NON        -0.3932
     20 N2         43.2120   14.6000  -13.6420 N.am      1 NON        -0.2361
     21 C9         43.6660   15.6380  -14.5070 C.2       1 NON         0.0428
     22 C12        42.7140   16.5970  -14.9780 C.2       1 NON        -0.0496
     23 C11        43.2290   17.5420  -15.7650 C.2       1 NON        -0.0130
     24 S          44.9020   17.3050  -15.9610 S.3       1 NON        -0.0723
     25 C10        44.9160   15.9140  -14.9790 C.2       1 NON        -0.0054
     26 H          43.5573   13.8217   -5.5595 H         1 NON         0.0610
     27 H          43.4800   15.5819   -5.9098 H         1 NON         0.0610
     28 H          45.7812   14.7439   -6.0222 H         1 NON         0.0255
     29 H          45.2066   15.3164   -7.6249 H         1 NON         0.0255
     30 H          45.2838   13.5562   -7.2746 H         1 NON         0.0255
     31 H          38.8472   16.5028   -6.8419 H         1 NON         0.0566
     32 H          38.8587   12.2278   -6.7315 H         1 NON         0.0553
     33 H          41.0448   11.1370   -6.2966 H         1 NON         0.0956
     34 H          42.5721   12.0226   -6.6280 H         1 NON         0.0956
     35 H          40.9891   11.6064   -8.9226 H         1 NON         0.2026
     36 H          41.4115   10.1965   -8.1856 H         1 NON         0.2026
     37 H          43.6084   10.4546   -8.4756 H         1 NON         0.0814
     38 H          43.4208   12.2343   -8.6307 H         1 NON         0.0814
     39 H          41.9561   11.3448  -10.7608 H         1 NON         0.0336
     40 H          43.2357   10.0881  -10.6597 H         1 NON         0.0336
     41 H          44.7431   11.4361  -11.5617 H         1 NON         0.0519
     42 H          44.3518   12.7579  -10.4100 H         1 NON         0.0519
     43 H          42.3096   12.6713  -12.3590 H         1 NON         0.1850
     44 H          42.2265   14.5644  -13.4764 H         1 NON         0.2167
     45 H          41.6578   16.5582  -14.7157 H         1 NON         0.0399
     46 H          42.6589   18.3515  -16.2184 H         1 NON         0.0719
     47 H          45.8039   15.3237  -14.7574 H         1 NON         0.0411
@<TRIPOS>BOND
     1    1    2 1  
     2    2    3 ar 
     3    2    7 ar 
     4    3    4 1  
     5    3   11 ar 
     6    4    5 1  
     7    5    6 1  
     8    7    8 ar 
     9    8    9 1  
    10    8   10 ar 
    11   10   11 ar 
    12   11   12 1  
    13   12   13 1  
    14   13   14 1  
    15   14   15 1  
    16   15   16 1  
    17   16   17 1  
    18   17   18 am 
    19   18   19 2  
    20   18   20 am 
    21   20   21 1  
    22   21   22 1  
    23   21   25 2  
    24   22   23 2  
    25   23   24 1  
    26   24   25 1  
    27    5   26 1  
    28    5   27 1  
    29    6   28 1  
    30    6   29 1  
    31    6   30 1  
    32    7   31 1  
    33   10   32 1  
    34   12   33 1  
    35   12   34 1  
    36   13   35 1  
    37   13   36 1  
    38   14   37 1  
    39   14   38 1  
    40   15   39 1  
    41   15   40 1  
    42   16   41 1  
    43   16   42 1  
    44   17   43 1  
    45   20   44 1  
    46   22   45 1  
    47   23   46 1  
    48   25   47 1  
@<TRIPOS>SUBSTRUCTURE
     1 NON         1

