### 
### Created by X-TOOL on Sun Sep  9 21:52:34 2018
### 

@<TRIPOS>MOLECULE
4mw9_ligand
   42    43     1     0     0
SMALL
GAST_HUCK


@<TRIPOS>ATOM
      1 O         -45.3800   13.9750   13.1040 O.2       1 NON        -0.3932
      2 C         -44.1630   13.9170   13.0020 C.2       1 NON         0.2802
      3 N2        -43.3540   14.7610   13.7210 N.am      1 NON        -0.2361
      4 C13       -43.8040   15.7980   14.5730 C.2       1 NON         0.0428
      5 C16       -42.8410   16.7390   15.0590 C.2       1 NON        -0.0496
      6 C15       -43.3660   17.6940   15.8370 C.2       1 NON        -0.0130
      7 S         -45.0500   17.4810   15.9920 S.3       1 NON        -0.0723
      8 C14       -45.0650   16.0920   15.0170 C.2       1 NON        -0.0054
      9 N         -43.5480   13.0270   12.2060 N.am      1 NON        -0.2689
     10 C1        -44.3060   12.0910   11.3850 C.3       1 NON         0.0364
     11 C2        -43.4350   11.3260   10.4220 C.3       1 NON         0.0074
     12 C3        -43.2280   12.0310    9.1090 C.3       1 NON        -0.0305
     13 N1        -41.9850   11.6250    8.4540 N.4       1 NON         0.2391
     14 C4        -41.8230   12.1170    7.0810 C.3       1 NON         0.0001
     15 C5        -41.1980   13.4840    7.1140 C.ar      1 NON         0.0024
     16 C10       -39.8360   13.6380    7.1660 C.ar      1 NON        -0.0401
     17 C9        -39.3100   14.9200    7.1850 C.ar      1 NON         0.0181
     18 C11       -37.9380   15.0910    7.2130 C.1       1 NON        -0.0714
     19 C12       -36.8030   15.2700    7.2420 C.1       1 NON        -0.1139
     20 C8        -40.1210   16.0390    7.1640 C.ar      1 NON        -0.0532
     21 C7        -41.4790   15.8700    7.1110 C.ar      1 NON        -0.0671
     22 C6        -42.0240   14.5880    7.0840 C.ar      1 NON        -0.0551
     23 H         -42.3659   14.6329   13.6360 H         1 NON         0.2167
     24 H         -41.7804   16.6834   14.8184 H         1 NON         0.0399
     25 H         -42.7964   18.4952   16.3055 H         1 NON         0.0719
     26 H         -45.9561   15.5136   14.7773 H         1 NON         0.0411
     27 H         -42.5487   13.0060   12.1759 H         1 NON         0.1850
     28 H         -45.0560   12.6542   10.8102 H         1 NON         0.0519
     29 H         -44.8138   11.3737   12.0465 H         1 NON         0.0519
     30 H         -43.9071   10.3525   10.2236 H         1 NON         0.0336
     31 H         -42.4526   11.1684   10.8910 H         1 NON         0.0336
     32 H         -43.1949   13.1154    9.2905 H         1 NON         0.0814
     33 H         -44.0720   11.7961    8.4438 H         1 NON         0.0814
     34 H         -41.9572   10.6177    8.4313 H         1 NON         0.2028
     35 H         -41.2138   11.9702    9.0037 H         1 NON         0.2028
     36 H         -42.8070   12.1745    6.5927 H         1 NON         0.0979
     37 H         -41.1740   11.4297    6.5185 H         1 NON         0.0979
     38 H         -39.1832   12.7730    7.1918 H         1 NON         0.0568
     39 H         -35.7602   15.4345    7.2686 H         1 NON         0.1232
     40 H         -39.6896   17.0332    7.1890 H         1 NON         0.0572
     41 H         -42.1313   16.7355    7.0900 H         1 NON         0.0600
     42 H         -43.0993   14.4581    7.0393 H         1 NON         0.0560
@<TRIPOS>BOND
     1    1    2 2  
     2    2    3 am 
     3    2    9 am 
     4    3    4 1  
     5    4    5 1  
     6    4    8 2  
     7    5    6 2  
     8    6    7 1  
     9    7    8 1  
    10    9   10 1  
    11   10   11 1  
    12   11   12 1  
    13   12   13 1  
    14   13   14 1  
    15   14   15 1  
    16   15   16 ar 
    17   15   22 ar 
    18   16   17 ar 
    19   17   18 1  
    20   17   20 ar 
    21   18   19 3  
    22   20   21 ar 
    23   21   22 ar 
    24    3   23 1  
    25    5   24 1  
    26    6   25 1  
    27    8   26 1  
    28    9   27 1  
    29   10   28 1  
    30   10   29 1  
    31   11   30 1  
    32   11   31 1  
    33   12   32 1  
    34   12   33 1  
    35   13   34 1  
    36   13   35 1  
    37   14   36 1  
    38   14   37 1  
    39   16   38 1  
    40   19   39 1  
    41   20   40 1  
    42   21   41 1  
    43   22   42 1  
@<TRIPOS>SUBSTRUCTURE
     1 NON         1

