### 
### Created by X-TOOL on Sun Sep  9 21:52:34 2018
### 

@<TRIPOS>MOLECULE
4mwb_ligand
   37    38     1     0     0
SMALL
GAST_HUCK


@<TRIPOS>ATOM
      1 O          45.5090   13.8470  -13.0930 O.2       1 NON        -0.3932
      2 C8         44.2980   13.8770  -12.9100 C.2       1 NON         0.2802
      3 N2         43.4770   14.7560  -13.6050 N.am      1 NON        -0.2361
      4 C9         43.8920   15.7840  -14.5010 C.2       1 NON         0.0428
      5 C12        42.9990   16.7000  -15.1420 C.2       1 NON        -0.0496
      6 C11        43.6420   17.6190  -15.9220 C.2       1 NON        -0.0130
      7 S1         45.3250   17.3970  -15.8810 S.3       1 NON        -0.0723
      8 C10        45.2150   16.0630  -14.8360 C.2       1 NON        -0.0054
      9 N1         43.6800   13.0250  -12.0770 N.am      1 NON        -0.2689
     10 C7         44.4340   12.1390  -11.1980 C.3       1 NON         0.0364
     11 C6         43.5550   11.4750  -10.1710 C.3       1 NON         0.0074
     12 C5         43.1270   12.4090   -9.0680 C.3       1 NON        -0.0308
     13 N          42.0550   11.8360   -8.2580 N.4       1 NON         0.2361
     14 C4         41.7340   12.4450   -6.9970 C.3       1 NON        -0.0112
     15 C2         40.8320   13.6310   -7.0480 C.2       1 NON        -0.0032
     16 C1         39.4190   13.6190   -7.0820 C.2       1 NON        -0.0532
     17 C3         41.2960   14.8890   -7.0770 C.2       1 NON         0.0899
     18 CL1        42.9070   15.4280   -7.0340 Cl        1 NON        -0.0744
     19 S          40.0860   16.1040   -7.1530 S.3       1 NON        -0.0336
     20 C          38.8930   14.8590   -7.1320 C.2       1 NON         0.0900
     21 CL         37.2220   15.2670   -7.1400 Cl        1 NON        -0.0588
     22 H          42.4922   14.6573  -13.4618 H         1 NON         0.2167
     23 H          41.9173   16.6679  -15.0205 H         1 NON         0.0399
     24 H          43.1392   18.3952  -16.4969 H         1 NON         0.0719
     25 H          46.0714   15.4966  -14.4732 H         1 NON         0.0411
     26 H          42.6805   12.9973  -12.0588 H         1 NON         0.1850
     27 H          45.2044   12.7272  -10.6780 H         1 NON         0.0519
     28 H          44.9162   11.3609  -11.8080 H         1 NON         0.0519
     29 H          44.1098   10.6366   -9.7245 H         1 NON         0.0336
     30 H          42.6551   11.0924  -10.6748 H         1 NON         0.0336
     31 H          42.7718   13.3491   -9.5152 H         1 NON         0.0814
     32 H          43.9917   12.6149   -8.4201 H         1 NON         0.0814
     33 H          42.3075   10.8788   -8.0680 H         1 NON         0.2024
     34 H          41.2174   11.8577   -8.8183 H         1 NON         0.2024
     35 H          42.6772   12.7610   -6.5274 H         1 NON         0.0933
     36 H          41.2497   11.6821   -6.3698 H         1 NON         0.0933
     37 H          38.8215   12.7087   -7.0692 H         1 NON         0.0409
@<TRIPOS>BOND
     1    1    2 2  
     2    2    3 am 
     3    2    9 am 
     4    3    4 1  
     5    4    5 1  
     6    4    8 2  
     7    5    6 2  
     8    6    7 1  
     9    7    8 1  
    10    9   10 1  
    11   10   11 1  
    12   11   12 1  
    13   12   13 1  
    14   13   14 1  
    15   14   15 1  
    16   15   16 1  
    17   15   17 2  
    18   16   20 2  
    19   17   18 1  
    20   17   19 1  
    21   19   20 1  
    22   20   21 1  
    23    3   22 1  
    24    5   23 1  
    25    6   24 1  
    26    8   25 1  
    27    9   26 1  
    28   10   27 1  
    29   10   28 1  
    30   11   29 1  
    31   11   30 1  
    32   12   31 1  
    33   12   32 1  
    34   13   33 1  
    35   13   34 1  
    36   14   35 1  
    37   14   36 1  
    38   16   37 1  
@<TRIPOS>SUBSTRUCTURE
     1 NON         1

