### 
### Created by X-TOOL on Sun Sep  9 21:52:44 2018
### 

@<TRIPOS>MOLECULE
4mwc_ligand
   46    48     1     0     0
SMALL
GAST_HUCK


@<TRIPOS>ATOM
      1 O         -45.5890   13.4810   13.2360 O.2       1 NON        -0.3932
      2 C7        -44.3920   13.6620   13.0110 C.2       1 NON         0.2802
      3 N2        -43.6580   14.6570   13.6440 N.am      1 NON        -0.2361
      4 C8        -44.1070   15.6750   14.5170 C.2       1 NON         0.0428
      5 C11       -43.1330   16.5250   15.1290 C.2       1 NON        -0.0496
      6 C10       -43.6740   17.4850   15.9090 C.2       1 NON        -0.0130
      7 S         -45.3810   17.3820   15.9050 S.3       1 NON        -0.0723
      8 C9        -45.3910   16.0380   14.8680 C.2       1 NON        -0.0054
      9 N1        -43.6780   12.8800   12.1810 N.am      1 NON        -0.2689
     10 C6        -44.2880   11.8140   11.3980 C.3       1 NON         0.0364
     11 C5        -43.3300   11.2250   10.3810 C.3       1 NON         0.0074
     12 C4        -43.1330   12.1350    9.1940 C.3       1 NON        -0.0311
     13 N         -42.3140   11.5300    8.1450 N.4       1 NON         0.2336
     14 C3        -42.0680   12.2960    6.9120 C.3       1 NON        -0.0162
     15 C2        -41.6870   13.7470    7.0920 C.2       1 NON        -0.0034
     16 C12       -40.3030   14.1190    7.0650 C.ar      1 NON        -0.0257
     17 C17       -39.1230   13.3830    6.9660 C.ar      1 NON        -0.0713
     18 C16       -37.8970   14.0320    6.9590 C.ar      1 NON        -0.0758
     19 C15       -37.8270   15.4090    7.0500 C.ar      1 NON        -0.0743
     20 C14       -38.9800   16.1640    7.1520 C.ar      1 NON        -0.0545
     21 C13       -40.2130   15.5190    7.1560 C.ar      1 NON         0.0308
     22 S1        -41.7760   16.2720    7.2630 S.3       1 NON        -0.0422
     23 C1        -42.5900   14.7400    7.2030 C.2       1 NON         0.0143
     24 C         -44.0840   14.7300    7.2720 C.3       1 NON        -0.0228
     25 H         -42.6758   14.6529   13.4564 H         1 NON         0.2167
     26 H         -42.0604   16.4092   14.9804 H         1 NON         0.0399
     27 H         -43.1008   18.2250   16.4655 H         1 NON         0.0719
     28 H         -46.2912   15.5299   14.5254 H         1 NON         0.0411
     29 H         -42.6937   13.0362   12.0988 H         1 NON         0.1850
     30 H         -45.1612   12.2207   10.8669 H         1 NON         0.0519
     31 H         -44.6134   11.0155   12.0810 H         1 NON         0.0519
     32 H         -43.7335   10.2643   10.0284 H         1 NON         0.0336
     33 H         -42.3566   11.0583   10.8655 H         1 NON         0.0336
     34 H         -42.6405   13.0571    9.5362 H         1 NON         0.0814
     35 H         -44.1188   12.3806    8.7722 H         1 NON         0.0814
     36 H         -42.7649   10.6698    7.8752 H         1 NON         0.2021
     37 H         -41.4147   11.3249    8.5515 H         1 NON         0.2021
     38 H         -42.9865   12.2629    6.3076 H         1 NON         0.0894
     39 H         -41.2518   11.8001    6.3662 H         1 NON         0.0894
     40 H         -39.1637   12.3021    6.8944 H         1 NON         0.0541
     41 H         -36.9841   13.4527    6.8813 H         1 NON         0.0544
     42 H         -36.8609   15.9005    7.0413 H         1 NON         0.0537
     43 H         -38.9246   17.2439    7.2279 H         1 NON         0.0558
     44 H         -44.4538   15.7621    7.3608 H         1 NON         0.0403
     45 H         -44.4067   14.1482    8.1480 H         1 NON         0.0403
     46 H         -44.4902   14.2724    6.3579 H         1 NON         0.0403
@<TRIPOS>BOND
     1    1    2 2  
     2    2    3 am 
     3    2    9 am 
     4    3    4 1  
     5    4    5 1  
     6    4    8 2  
     7    5    6 2  
     8    6    7 1  
     9    7    8 1  
    10    9   10 1  
    11   10   11 1  
    12   11   12 1  
    13   12   13 1  
    14   13   14 1  
    15   14   15 1  
    16   15   16 1  
    17   15   23 2  
    18   16   17 ar 
    19   16   21 ar 
    20   17   18 ar 
    21   18   19 ar 
    22   19   20 ar 
    23   20   21 ar 
    24   21   22 1  
    25   22   23 1  
    26   23   24 1  
    27    3   25 1  
    28    5   26 1  
    29    6   27 1  
    30    8   28 1  
    31    9   29 1  
    32   10   30 1  
    33   10   31 1  
    34   11   32 1  
    35   11   33 1  
    36   12   34 1  
    37   12   35 1  
    38   13   36 1  
    39   13   37 1  
    40   14   38 1  
    41   14   39 1  
    42   17   40 1  
    43   18   41 1  
    44   19   42 1  
    45   20   43 1  
    46   24   44 1  
    47   24   45 1  
    48   24   46 1  
@<TRIPOS>SUBSTRUCTURE
     1 NON         1

