### 
### Created by X-TOOL on Sun Sep  9 21:52:41 2018
### 

@<TRIPOS>MOLECULE
4mwe_ligand
   55    56     1     0     0
SMALL
GAST_HUCK


@<TRIPOS>ATOM
      1 CL        -36.9120  -15.1650   -7.0110 Cl        1 NON        -0.0844
      2 C15       -38.6300  -14.8800   -7.0940 C.ar      1 NON         0.0162
      3 C16       -39.4970  -15.9470   -6.9630 C.ar      1 NON        -0.0593
      4 C17       -40.8710  -15.7400   -7.0480 C.ar      1 NON        -0.0070
      5 C18       -41.8180  -16.9290   -7.0640 C.3       1 NON         0.0046
      6 C19       -41.5390  -17.9180   -6.0250 C.2       1 NON        -0.0802
      7 C20       -41.3470  -17.6760   -4.7890 C.2       1 NON        -0.1156
      8 C3        -41.3310  -14.4380   -7.2440 C.ar      1 NON         0.1051
      9 O         -42.6870  -14.2230   -7.3810 O.3       1 NON        -0.3112
     10 C2        -43.5210  -14.2840   -6.2110 C.3       1 NON         0.0957
     11 C1        -44.9420  -14.3870   -6.6610 C.2       1 NON        -0.0597
     12 C         -45.3710  -14.6740   -7.8740 C.2       1 NON        -0.1150
     13 C14       -39.0870  -13.5980   -7.3050 C.ar      1 NON        -0.0563
     14 C4        -40.4570  -13.3560   -7.3890 C.ar      1 NON         0.0255
     15 C5        -40.9840  -11.9780   -7.7190 C.3       1 NON        -0.0029
     16 N         -41.2940  -11.8040   -9.1490 N.4       1 NON         0.2374
     17 C6        -42.5640  -11.1010   -9.4150 C.3       1 NON        -0.0307
     18 C7        -43.7030  -12.0470   -9.8000 C.3       1 NON         0.0074
     19 C8        -44.2180  -11.9470  -11.2280 C.3       1 NON         0.0364
     20 N1        -43.5500  -12.8790  -12.1330 N.am      1 NON        -0.2689
     21 C9        -44.2240  -13.7300  -12.9390 C.2       1 NON         0.2802
     22 O1        -45.4460  -13.6700  -13.1050 O.2       1 NON        -0.3932
     23 N2        -43.4330  -14.6860  -13.6130 N.am      1 NON        -0.2361
     24 C10       -43.8920  -15.7220  -14.4890 C.2       1 NON         0.0428
     25 C13       -42.9610  -16.6850  -14.9910 C.2       1 NON        -0.0496
     26 C12       -43.5260  -17.6360  -15.7880 C.2       1 NON        -0.0130
     27 S         -45.2460  -17.3700  -15.9360 S.3       1 NON        -0.0723
     28 C11       -45.1780  -15.9880  -14.9400 C.2       1 NON        -0.0054
     29 H         -39.1080  -16.9446   -6.7942 H         1 NON         0.0482
     30 H         -41.7383  -17.4230   -8.0436 H         1 NON         0.0575
     31 H         -42.8437  -16.5576   -6.9230 H         1 NON         0.0575
     32 H         -41.4906  -18.9603   -6.3367 H         1 NON         0.0685
     33 H         -41.1458  -18.4940   -4.0989 H         1 NON         0.0297
     34 H         -41.3841  -16.6511   -4.4226 H         1 NON         0.0297
     35 H         -43.3855  -13.3739   -5.6083 H         1 NON         0.0790
     36 H         -43.2554  -15.1655   -5.6089 H         1 NON         0.0790
     37 H         -45.7053  -14.2055   -5.9058 H         1 NON         0.0698
     38 H         -46.4400  -14.7193   -8.0770 H         1 NON         0.0291
     39 H         -44.6564  -14.8658   -8.6731 H         1 NON         0.0291
     40 H         -38.3832  -12.7796   -7.4054 H         1 NON         0.0482
     41 H         -40.2249  -11.2352   -7.4326 H         1 NON         0.0953
     42 H         -41.9024  -11.8063   -7.1385 H         1 NON         0.0953
     43 H         -41.3434  -12.7165   -9.5744 H         1 NON         0.2025
     44 H         -40.5467  -11.2761   -9.5719 H         1 NON         0.2025
     45 H         -42.4051  -10.3904  -10.2395 H         1 NON         0.0814
     46 H         -42.8567  -10.5512   -8.5083 H         1 NON         0.0814
     47 H         -44.5479  -11.8440   -9.1255 H         1 NON         0.0336
     48 H         -43.3487  -13.0767   -9.6443 H         1 NON         0.0336
     49 H         -44.0512  -10.9223  -11.5917 H         1 NON         0.0519
     50 H         -45.2960  -12.1659  -11.2298 H         1 NON         0.0519
     51 H         -42.5503  -12.8880  -12.1575 H         1 NON         0.1850
     52 H         -42.4458  -14.6341  -13.4624 H         1 NON         0.2167
     53 H         -41.8975  -16.6607  -14.7578 H         1 NON         0.0399
     54 H         -42.9807  -18.4485  -16.2659 H         1 NON         0.0719
     55 H         -46.0461  -15.3816  -14.6859 H         1 NON         0.0411
@<TRIPOS>BOND
     1    1    2 1  
     2    2    3 ar 
     3    2   13 ar 
     4    3    4 ar 
     5    4    5 1  
     6    4    8 ar 
     7    5    6 1  
     8    6    7 2  
     9    8    9 1  
    10    8   14 ar 
    11    9   10 1  
    12   10   11 1  
    13   11   12 2  
    14   13   14 ar 
    15   14   15 1  
    16   15   16 1  
    17   16   17 1  
    18   17   18 1  
    19   18   19 1  
    20   19   20 1  
    21   20   21 am 
    22   21   22 2  
    23   21   23 am 
    24   23   24 1  
    25   24   25 1  
    26   24   28 2  
    27   25   26 2  
    28   26   27 1  
    29   27   28 1  
    30    3   29 1  
    31    5   30 1  
    32    5   31 1  
    33    6   32 1  
    34    7   33 1  
    35    7   34 1  
    36   10   35 1  
    37   10   36 1  
    38   11   37 1  
    39   12   38 1  
    40   12   39 1  
    41   13   40 1  
    42   15   41 1  
    43   15   42 1  
    44   16   43 1  
    45   16   44 1  
    46   17   45 1  
    47   17   46 1  
    48   18   47 1  
    49   18   48 1  
    50   19   49 1  
    51   19   50 1  
    52   20   51 1  
    53   23   52 1  
    54   25   53 1  
    55   26   54 1  
    56   28   55 1  
@<TRIPOS>SUBSTRUCTURE
     1 NON         1

