### 
### Created by X-TOOL on Mon Sep 10 21:13:12 2018
### 

@<TRIPOS>MOLECULE
4mwq_ligand
   46    46     1     0     0
SMALL
GAST_HUCK


@<TRIPOS>ATOM
      1 C1        -19.8350   64.9760  -23.7980 C.2       1 G39         0.0381
      2 O1A       -19.7720   65.3330  -22.6320 O.co2     1 G39        -0.5687
      3 O1B       -21.0120   65.0050  -24.5050 O.co2     1 G39        -0.5687
      4 C2        -18.6680   64.3980  -24.4940 C.3       1 G39         0.0194
      5 C3        -17.3220   64.0370  -23.7460 C.3       1 G39         0.0069
      6 C4        -16.4720   62.9380  -24.3680 C.3       1 G39         0.0033
      7 C5        -16.5120   62.7500  -25.8540 C.3       1 G39         0.1105
      8 N5        -15.6550   61.7140  -26.3980 N.am      1 G39        -0.2762
      9 C10       -14.3760   61.9600  -27.0350 C.2       1 G39         0.1734
     10 O10       -13.9320   63.0980  -27.1370 O.2       1 G39        -0.3974
     11 C11       -13.6060   60.7580  -27.5570 C.3       1 G39         0.0257
     12 C6        -17.8330   62.9180  -26.5750 C.3       1 G39         0.0888
     13 C7        -18.9960   63.6540  -25.8610 C.3       1 G39        -0.0096
     14 O7        -17.8560   62.9430  -27.9950 O.3       1 G39        -0.3708
     15 C8        -18.0590   61.7610  -28.7550 C.3       1 G39         0.0587
     16 C9        -19.4600   61.1780  -28.6080 C.3       1 G39        -0.0294
     17 C81       -17.6170   61.9630  -30.1900 C.3       1 G39        -0.0294
     18 C82       -16.2020   62.4260  -30.3860 C.3       1 G39        -0.0629
     19 C91       -20.6250   62.0170  -29.0320 C.3       1 G39        -0.0629
     20 N4        -15.2080   62.6780  -23.7370 N.4       1 G39         0.2225
     21 H1        -18.3049   65.3399  -24.9308 H         1 G39         0.0469
     22 H2        -17.5817   63.7208  -22.7249 H         1 G39         0.0341
     23 H3        -16.7089   64.9492  -23.7027 H         1 G39         0.0341
     24 H4        -17.0416   62.0531  -24.0478 H         1 G39         0.0875
     25 H5        -15.9835   63.6572  -26.1821 H         1 G39         0.0638
     26 H6        -15.9672   60.7665  -26.3291 H         1 G39         0.1857
     27 H7        -12.6626   61.0958  -28.0108 H         1 G39         0.0467
     28 H8        -14.2103   60.2357  -28.3133 H         1 G39         0.0467
     29 H9        -13.3877   60.0727  -26.7247 H         1 G39         0.0467
     30 H10       -18.1980   61.8895  -26.4372 H         1 G39         0.0622
     31 H11       -19.3869   64.4077  -26.5603 H         1 G39         0.0311
     32 H12       -19.7772   62.9087  -25.6508 H         1 G39         0.0311
     33 H13       -17.3807   61.0051  -28.3324 H         1 G39         0.0596
     34 H14       -19.6025   60.9364  -27.5444 H         1 G39         0.0287
     35 H15       -19.4918   60.2525  -29.2017 H         1 G39         0.0287
     36 H16       -18.2818   62.7124  -30.6442 H         1 G39         0.0287
     37 H17       -17.7326   61.0036  -30.7156 H         1 G39         0.0287
     38 H18       -15.9980   62.5365  -31.4613 H         1 G39         0.0231
     39 H19       -15.5111   61.6860  -29.9559 H         1 G39         0.0231
     40 H20       -16.0604   63.3947  -29.8845 H         1 G39         0.0231
     41 H21       -21.5585   61.4597  -28.8644 H         1 G39         0.0231
     42 H22       -20.5310   62.2619  -30.1002 H         1 G39         0.0231
     43 H23       -20.6417   62.9458  -28.4429 H         1 G39         0.0231
     44 H24       -15.2898   62.8332  -22.7444 H         1 G39         0.1998
     45 H25       -14.5090   63.2967  -24.1173 H         1 G39         0.1998
     46 H26       -14.9382   61.7217  -23.9065 H         1 G39         0.1998
@<TRIPOS>BOND
     1    1    2 ar 
     2    1    3 ar 
     3    1    4 1  
     4    4    5 1  
     5    4   13 1  
     6    5    6 1  
     7    6    7 1  
     8    6   20 1  
     9    7    8 1  
    10    7   12 1  
    11    8    9 am 
    12    9   10 2  
    13    9   11 1  
    14   12   13 1  
    15   12   14 1  
    16   14   15 1  
    17   15   16 1  
    18   15   17 1  
    19   16   19 1  
    20   17   18 1  
    21    4   21 1  
    22    5   22 1  
    23    5   23 1  
    24    6   24 1  
    25    7   25 1  
    26    8   26 1  
    27   11   27 1  
    28   11   28 1  
    29   11   29 1  
    30   12   30 1  
    31   13   31 1  
    32   13   32 1  
    33   15   33 1  
    34   16   34 1  
    35   16   35 1  
    36   17   36 1  
    37   17   37 1  
    38   18   38 1  
    39   18   39 1  
    40   18   40 1  
    41   19   41 1  
    42   19   42 1  
    43   19   43 1  
    44   20   44 1  
    45   20   45 1  
    46   20   46 1  
@<TRIPOS>SUBSTRUCTURE
     1 G39         1

