### 
### Created by X-TOOL on Mon Sep 10 21:13:12 2018
### 

@<TRIPOS>MOLECULE
4mwr_ligand
   45    45     1     0     0
SMALL
GAST_HUCK


@<TRIPOS>ATOM
      1 C1         64.7070   19.5640  -23.8770 C.2       1 ZMR         0.0637
      2 O1A        64.8720   20.7130  -24.3840 O.co2     1 ZMR        -0.5663
      3 O1B        65.0480   19.3480  -22.6830 O.co2     1 ZMR        -0.5663
      4 C2         64.1030   18.4630  -24.6990 C.3       1 ZMR         0.1148
      5 C3         63.3570   17.5160  -23.7880 C.3       1 ZMR         0.0237
      6 C4         62.4880   16.5550  -24.5150 C.3       1 ZMR         0.1026
      7 C5         62.5750   16.6570  -25.9210 C.3       1 ZMR         0.1065
      8 N5         61.5030   15.7900  -26.5310 N.am      1 ZMR        -0.2778
      9 C10        61.8380   14.4960  -27.1410 C.2       1 ZMR         0.1733
     10 O10        62.9900   14.1060  -27.1610 O.2       1 ZMR        -0.3974
     11 C11        60.7490   13.6510  -27.7420 C.3       1 ZMR         0.0257
     12 C6         62.4380   18.0710  -26.4390 C.3       1 ZMR         0.1158
     13 O6         63.2860   19.0370  -25.6800 O.3       1 ZMR        -0.3542
     14 C7         62.7340   18.1610  -27.8770 C.3       1 ZMR         0.1116
     15 O7         64.0100   17.7340  -28.1650 O.3       1 ZMR        -0.3865
     16 C8         62.6140   19.6140  -28.3030 C.3       1 ZMR         0.1065
     17 O8         61.3940   20.1220  -27.9130 O.3       1 ZMR        -0.3869
     18 C9         62.7520   19.7470  -29.7850 C.3       1 ZMR         0.0727
     19 O9         61.7630   19.1890  -30.5760 O.3       1 ZMR        -0.3924
     20 NE         62.8480   15.1390  -24.0990 N.pl3     1 ZMR        -0.2671
     21 CZ         61.8590   14.0940  -23.8900 C.cat     1 ZMR         0.2885
     22 NH1        60.5870   14.3920  -24.0680 N.pl3     1 ZMR        -0.2849
     23 NH2        62.1620   12.8930  -23.5380 N.pl3     1 ZMR        -0.2849
     24 H1         64.9059   17.9017  -25.1992 H         1 ZMR         0.0767
     25 H2         62.7274   18.1097  -23.1090 H         1 ZMR         0.0346
     26 H3         64.0922   16.9455  -23.2015 H         1 ZMR         0.0346
     27 H4         61.4462   16.7562  -24.2250 H         1 ZMR         0.0752
     28 H5         63.5600   16.2778  -26.2307 H         1 ZMR         0.0621
     29 H6         60.5521   16.0995  -26.5203 H         1 ZMR         0.1856
     30 H7         61.1845   12.7259  -28.1477 H         1 ZMR         0.0467
     31 H8         60.2557   14.2096  -28.5511 H         1 ZMR         0.0467
     32 H9         60.0102   13.3992  -26.9669 H         1 ZMR         0.0467
     33 H10        61.3886   18.3685  -26.2964 H         1 ZMR         0.0649
     34 H11        62.0116   17.5462  -28.4339 H         1 ZMR         0.0647
     35 H12        64.6364   18.2735  -27.6971 H         1 ZMR         0.2100
     36 H13        63.4147   20.1914  -27.8178 H         1 ZMR         0.0643
     37 H14        61.3292   21.0302  -28.1839 H         1 ZMR         0.2100
     38 H15        63.7047   19.2766  -30.0697 H         1 ZMR         0.0584
     39 H16        62.7901   20.8217  -30.0162 H         1 ZMR         0.0584
     40 H17        60.9275   19.5893  -30.3659 H         1 ZMR         0.2095
     41 H18        63.8418   14.9078  -23.9580 H         1 ZMR         0.2645
     42 H19        59.8646   13.6715  -23.9270 H         1 ZMR         0.2615
     43 H20        60.3157   15.3453  -24.3481 H         1 ZMR         0.2615
     44 H21        63.1477   12.6323  -23.3919 H         1 ZMR         0.2615
     45 H22        61.4187   12.1930  -23.4025 H         1 ZMR         0.2615
@<TRIPOS>BOND
     1    1    2 ar 
     2    1    3 ar 
     3    1    4 1  
     4    4    5 1  
     5    4   13 1  
     6    5    6 1  
     7    6    7 1  
     8    6   20 1  
     9    7    8 1  
    10    7   12 1  
    11    8    9 am 
    12    9   10 2  
    13    9   11 1  
    14   12   13 1  
    15   12   14 1  
    16   14   15 1  
    17   14   16 1  
    18   16   17 1  
    19   16   18 1  
    20   18   19 1  
    21   20   21 ar 
    22   21   22 ar 
    23   21   23 ar 
    24    4   24 1  
    25    5   25 1  
    26    5   26 1  
    27    6   27 1  
    28    7   28 1  
    29    8   29 1  
    30   11   30 1  
    31   11   31 1  
    32   11   32 1  
    33   12   33 1  
    34   14   34 1  
    35   15   35 1  
    36   16   36 1  
    37   17   37 1  
    38   18   38 1  
    39   18   39 1  
    40   19   40 1  
    41   20   41 1  
    42   22   42 1  
    43   22   43 1  
    44   23   44 1  
    45   23   45 1  
@<TRIPOS>SUBSTRUCTURE
     1 ZMR         1

