### 
### Created by X-TOOL on Mon Sep 10 21:13:12 2018
### 

@<TRIPOS>MOLECULE
4mwu_ligand
   48    48     1     0     0
SMALL
GAST_HUCK


@<TRIPOS>ATOM
      1 CAA        63.6720   18.6520  -24.3430 C.3       1 LNV         0.1148
      2 CAB        63.6360   17.2400  -23.7770 C.3       1 LNV         0.0237
      3 CAC        62.5590   16.4400  -24.4250 C.3       1 LNV         0.1026
      4 CAD        62.5440   16.5160  -25.9060 C.3       1 LNV         0.1065
      5 CAE        62.5400   17.9350  -26.3780 C.3       1 LNV         0.1161
      6 OAF        63.6580   18.7200  -25.7560 O.3       1 LNV        -0.3542
      7 CAG        64.6050   19.6350  -23.7610 C.2       1 LNV         0.0637
      8 OAH        65.1450   19.4520  -22.6420 O.co2     1 LNV        -0.5663
      9 OAI        64.8020   20.7000  -24.4060 O.co2     1 LNV        -0.5663
     10 CAJ        62.6860   18.0960  -27.8330 C.3       1 LNV         0.1147
     11 CAK        62.4990   19.5690  -28.2320 C.3       1 LNV         0.1067
     12 CAL        62.6530   19.7700  -29.7290 C.3       1 LNV         0.0727
     13 OAM        61.7420   19.1140  -30.5470 O.3       1 LNV        -0.3924
     14 OAW        63.9770   17.6940  -28.2000 O.3       1 LNV        -0.3745
     15 CAX        64.1380   16.6470  -29.1130 C.3       1 LNV         0.0370
     16 OAY        61.2600   20.0480  -27.8390 O.3       1 LNV        -0.3869
     17 NAZ        62.7820   15.0230  -24.0680 N.pl3     1 LNV        -0.2671
     18 CBA        61.7780   14.0340  -23.8340 C.cat     1 LNV         0.2885
     19 NBB        60.5070   14.3540  -23.8890 N.pl3     1 LNV        -0.2849
     20 NBC        62.1020   12.8050  -23.5660 N.pl3     1 LNV        -0.2849
     21 CBD        61.6400   14.4680  -27.1150 C.2       1 LNV         0.1733
     22 CBE        60.4510   13.7420  -27.6530 C.3       1 LNV         0.0257
     23 OBF        62.7720   14.0080  -27.2120 O.2       1 LNV        -0.3974
     24 NBG        61.4150   15.7300  -26.4810 N.am      1 LNV        -0.2778
     25 H1         62.6873   19.0466  -24.0521 H         1 LNV         0.0767
     26 H2         63.4472   17.2896  -22.6945 H         1 LNV         0.0346
     27 H3         64.6058   16.7535  -23.9582 H         1 LNV         0.0346
     28 H4         61.5859   16.7809  -24.0417 H         1 LNV         0.0752
     29 H5         63.4760   16.0564  -26.2667 H         1 LNV         0.0621
     30 H6         61.5798   18.3784  -26.0756 H         1 LNV         0.0649
     31 H7         61.9385   17.4761  -28.3496 H         1 LNV         0.0649
     32 H8         63.2760   20.1574  -27.7221 H         1 LNV         0.0643
     33 H9         63.6594   19.4256  -30.0090 H         1 LNV         0.0584
     34 H10        62.5650   20.8478  -29.9307 H         1 LNV         0.0584
     35 H11        60.8625   19.4058  -30.3374 H         1 LNV         0.2095
     36 H12        65.2104   16.4694  -29.2818 H         1 LNV         0.0524
     37 H13        63.6561   16.9135  -30.0652 H         1 LNV         0.0524
     38 H14        63.6743   15.7345  -28.7101 H         1 LNV         0.0524
     39 H15        61.1988   20.9729  -28.0470 H         1 LNV         0.2100
     40 H16        63.7616   14.7174  -23.9788 H         1 LNV         0.2645
     41 H17        59.7875   13.6367  -23.7194 H         1 LNV         0.2615
     42 H18        60.2285   15.3225  -24.1018 H         1 LNV         0.2615
     43 H19        63.0942   12.5327  -23.5181 H         1 LNV         0.2615
     44 H20        61.3667   12.1027  -23.4014 H         1 LNV         0.2615
     45 H21        59.5427   14.3313  -27.4586 H         1 LNV         0.0467
     46 H22        60.3652   12.7626  -27.1596 H         1 LNV         0.0467
     47 H23        60.5692   13.5974  -28.7370 H         1 LNV         0.0467
     48 H24        60.4845   16.0915  -26.4223 H         1 LNV         0.1856
@<TRIPOS>BOND
     1    2    1 1  
     2    6    1 1  
     3    1    7 1  
     4    3    2 1  
     5    4    3 1  
     6    3   17 1  
     7    4    5 1  
     8   24    4 1  
     9    5    6 1  
    10    5   10 1  
    11    7    8 ar 
    12    7    9 ar 
    13   10   11 1  
    14   10   14 1  
    15   11   12 1  
    16   11   16 1  
    17   12   13 1  
    18   14   15 1  
    19   17   18 ar 
    20   18   19 ar 
    21   18   20 ar 
    22   21   22 1  
    23   21   23 2  
    24   21   24 am 
    25    1   25 1  
    26    2   26 1  
    27    2   27 1  
    28    3   28 1  
    29    4   29 1  
    30    5   30 1  
    31   10   31 1  
    32   11   32 1  
    33   12   33 1  
    34   12   34 1  
    35   13   35 1  
    36   15   36 1  
    37   15   37 1  
    38   15   38 1  
    39   16   39 1  
    40   17   40 1  
    41   19   41 1  
    42   19   42 1  
    43   20   43 1  
    44   20   44 1  
    45   22   45 1  
    46   22   46 1  
    47   22   47 1  
    48   24   48 1  
@<TRIPOS>SUBSTRUCTURE
     1 LNV         1

