### 
### Created by X-TOOL on Mon Sep 10 21:13:12 2018
### 

@<TRIPOS>MOLECULE
4mwv_ligand
   51    51     1     0     0
SMALL
GAST_HUCK


@<TRIPOS>ATOM
      1 C2         62.9380   16.4410  -24.7690 C.3       1 BCZ         0.0827
      2 N25        61.6900   15.8290  -24.4160 N.pl3     1 BCZ        -0.2691
      3 C26        61.5930   14.4080  -23.9980 C.cat     1 BCZ         0.2885
      4 N30        62.6900   13.6580  -23.9080 N.pl3     1 BCZ        -0.2849
      5 N27        60.4260   13.8620  -23.7000 N.pl3     1 BCZ        -0.2849
      6 C3         62.7330   17.4910  -25.7660 C.3       1 BCZ         0.0460
      7 C10        62.3870   16.8980  -27.1740 C.3       1 BCZ         0.0535
      8 C24        62.2480   17.9960  -28.3690 C.3       1 BCZ        -0.0180
      9 C37        61.1510   19.0150  -28.0080 C.3       1 BCZ        -0.0510
     10 C38        61.1270   20.3360  -28.7490 C.3       1 BCZ        -0.0650
     11 C36        62.0840   17.4090  -29.7510 C.3       1 BCZ        -0.0510
     12 C39        63.2980   16.7630  -30.3890 C.3       1 BCZ        -0.0650
     13 N11        61.1750   15.9190  -27.1910 N.am      1 BCZ        -0.2834
     14 C13        61.3490   14.5080  -27.3640 C.2       1 BCZ         0.1731
     15 C15        60.1400   13.6410  -27.3600 C.3       1 BCZ         0.0257
     16 O14        62.4580   14.0380  -27.5130 O.2       1 BCZ        -0.3974
     17 C4         63.9760   18.2810  -25.7300 C.3       1 BCZ         0.0779
     18 O9         64.9120   17.7620  -26.6310 O.3       1 BCZ        -0.3893
     19 C5         64.4920   18.1710  -24.3640 C.3       1 BCZ         0.0416
     20 C6         64.4890   19.5230  -23.6710 C.2       1 BCZ         0.0405
     21 O8         64.9500   19.6020  -22.3620 O.co2     1 BCZ        -0.5686
     22 O7         64.6220   20.6730  -24.4450 O.co2     1 BCZ        -0.5686
     23 C1         63.6000   17.2160  -23.6490 C.3       1 BCZ         0.0003
     24 H1         63.6158   15.6613  -25.1467 H         1 BCZ         0.0731
     25 H2         60.8306   16.3955  -24.4539 H         1 BCZ         0.2645
     26 H3         62.6177   12.6725  -23.6175 H         1 BCZ         0.2615
     27 H4         63.6107   14.0635  -24.1289 H         1 BCZ         0.2615
     28 H5         59.5642   14.4226  -23.7623 H         1 BCZ         0.2615
     29 H6         60.3789   12.8761  -23.4056 H         1 BCZ         0.2615
     30 H7         61.8926   18.1308  -25.4588 H         1 BCZ         0.0387
     31 H8         63.2618   16.2862  -27.4393 H         1 BCZ         0.0563
     32 H9         63.1979   18.5502  -28.3927 H         1 BCZ         0.0323
     33 H10        61.2584   19.2439  -26.9375 H         1 BCZ         0.0266
     34 H11        60.1815   18.5257  -28.1829 H         1 BCZ         0.0266
     35 H12        60.2913   20.9485  -28.3795 H         1 BCZ         0.0230
     36 H13        60.9976   20.1503  -29.8255 H         1 BCZ         0.0230
     37 H14        62.0746   20.8685  -28.5800 H         1 BCZ         0.0230
     38 H15        61.7558   18.2211  -30.4164 H         1 BCZ         0.0266
     39 H16        61.2969   16.6429  -29.6916 H         1 BCZ         0.0266
     40 H17        63.0298   16.3832  -31.3859 H         1 BCZ         0.0230
     41 H18        63.6431   15.9294  -29.7597 H         1 BCZ         0.0230
     42 H19        64.1020   17.5076  -30.4845 H         1 BCZ         0.0230
     43 H20        60.2514   16.2855  -27.0782 H         1 BCZ         0.1854
     44 H21        60.4403   12.5925  -27.5029 H         1 BCZ         0.0467
     45 H22        59.4684   13.9446  -28.1765 H         1 BCZ         0.0467
     46 H23        59.6175   13.7448  -26.3976 H         1 BCZ         0.0467
     47 H24        63.7675   19.3320  -25.9787 H         1 BCZ         0.0619
     48 H25        65.1101   16.8629  -26.3972 H         1 BCZ         0.2100
     49 H26        65.5201   17.7802  -24.3839 H         1 BCZ         0.0493
     50 H27        64.1821   16.5465  -22.9987 H         1 BCZ         0.0323
     51 H28        62.8519   17.7527  -23.0471 H         1 BCZ         0.0323
@<TRIPOS>BOND
     1    1    2 1  
     2    1    6 1  
     3    1   23 1  
     4    2    3 ar 
     5    3    4 ar 
     6    3    5 ar 
     7    6    7 1  
     8    6   17 1  
     9    7    8 1  
    10    7   13 1  
    11    8    9 1  
    12    8   11 1  
    13    9   10 1  
    14   11   12 1  
    15   13   14 am 
    16   14   15 1  
    17   14   16 2  
    18   17   18 1  
    19   17   19 1  
    20   19   20 1  
    21   19   23 1  
    22   20   21 ar 
    23   20   22 ar 
    24    1   24 1  
    25    2   25 1  
    26    4   26 1  
    27    4   27 1  
    28    5   28 1  
    29    5   29 1  
    30    6   30 1  
    31    7   31 1  
    32    8   32 1  
    33    9   33 1  
    34    9   34 1  
    35   10   35 1  
    36   10   36 1  
    37   10   37 1  
    38   11   38 1  
    39   11   39 1  
    40   12   40 1  
    41   12   41 1  
    42   12   42 1  
    43   13   43 1  
    44   15   44 1  
    45   15   45 1  
    46   15   46 1  
    47   17   47 1  
    48   18   48 1  
    49   19   49 1  
    50   23   50 1  
    51   23   51 1  
@<TRIPOS>SUBSTRUCTURE
     1 BCZ         1

