### 
### Created by X-TOOL on Mon Sep 10 21:13:12 2018
### 

@<TRIPOS>MOLECULE
4mww_ligand
   46    46     1     0     0
SMALL
GAST_HUCK


@<TRIPOS>ATOM
      1 C1        -19.7230   23.6760   64.8630 C.2       1 G39         0.0381
      2 O1A       -19.6500   22.5010   65.1710 O.co2     1 G39        -0.5687
      3 O1B       -20.8740   24.3970   65.0420 O.co2     1 G39        -0.5687
      4 C2        -18.6330   24.3420   64.1170 C.3       1 G39         0.0194
      5 C3        -17.1900   23.7250   63.9650 C.3       1 G39         0.0069
      6 C4        -16.3820   24.3540   62.8410 C.3       1 G39         0.0033
      7 C5        -16.4020   25.8510   62.7170 C.3       1 G39         0.1105
      8 N5        -15.6200   26.4230   61.6330 N.am      1 G39        -0.2762
      9 C10       -14.3220   27.0320   61.8380 C.2       1 G39         0.1734
     10 O10       -13.8840   27.2110   62.9700 O.2       1 G39        -0.3974
     11 C11       -13.6270   27.6120   60.6220 C.3       1 G39         0.0257
     12 C6        -17.6560   26.6270   63.0840 C.3       1 G39         0.0888
     13 C7        -18.7980   25.9010   63.8540 C.3       1 G39        -0.0096
     14 O7        -17.5430   28.0330   63.2920 O.3       1 G39        -0.3708
     15 C8        -18.3450   28.9870   62.6040 C.3       1 G39         0.0587
     16 C9        -19.7030   29.2210   63.2520 C.3       1 G39        -0.0294
     17 C81       -17.5960   30.2860   62.3660 C.3       1 G39        -0.0294
     18 C82       -16.1360   30.3180   62.7170 C.3       1 G39        -0.0629
     19 C91       -19.7110   29.6040   64.6970 C.3       1 G39        -0.0629
     20 N4        -15.1660   23.6840   62.4760 N.4       1 G39         0.2225
     21 H1        -18.9800   24.0167   63.1252 H         1 G39         0.0469
     22 H2        -17.2902   22.6484   63.7627 H         1 G39         0.0341
     23 H3        -16.6463   23.8715   64.9100 H         1 G39         0.0341
     24 H4        -17.0138   24.0868   61.9811 H         1 G39         0.0875
     25 H5        -15.7666   26.1103   63.5766 H         1 G39         0.0638
     26 H6        -15.9944   26.3947   60.7061 H         1 G39         0.1857
     27 H7        -12.6583   28.0383   60.9219 H         1 G39         0.0467
     28 H8        -14.2547   28.4013   60.1826 H         1 G39         0.0467
     29 H9        -13.4636   26.8173   59.8792 H         1 G39         0.0467
     30 H10       -18.1218   26.6463   62.0877 H         1 G39         0.0622
     31 H11       -18.8978   26.3913   64.8336 H         1 G39         0.0311
     32 H12       -19.7244   26.0413   63.2777 H         1 G39         0.0311
     33 H13       -18.5492   28.5579   61.6120 H         1 G39         0.0596
     34 H14       -20.2823   28.2912   63.1525 H         1 G39         0.0287
     35 H15       -20.2026   30.0260   62.6931 H         1 G39         0.0287
     36 H16       -18.0946   31.0673   62.9584 H         1 G39         0.0287
     37 H17       -17.6831   30.5255   61.2959 H         1 G39         0.0287
     38 H18       -15.7269   31.3144   62.4935 H         1 G39         0.0231
     39 H19       -15.6001   29.5607   62.1261 H         1 G39         0.0231
     40 H20       -16.0116   30.1025   63.7885 H         1 G39         0.0231
     41 H21       -20.7490   29.7410   65.0342 H         1 G39         0.0231
     42 H22       -19.1551   30.5438   64.8304 H         1 G39         0.0231
     43 H23       -19.2349   28.8090   65.2897 H         1 G39         0.0231
     44 H24       -15.2790   22.6903   62.6023 H         1 G39         0.1998
     45 H25       -14.4128   24.0133   63.0593 H         1 G39         0.1998
     46 H26       -14.9524   23.8778   61.5101 H         1 G39         0.1998
@<TRIPOS>BOND
     1    1    2 ar 
     2    1    3 ar 
     3    1    4 1  
     4    4    5 1  
     5    4   13 1  
     6    5    6 1  
     7    6    7 1  
     8    6   20 1  
     9    7    8 1  
    10    7   12 1  
    11    8    9 am 
    12    9   10 2  
    13    9   11 1  
    14   12   13 1  
    15   12   14 1  
    16   14   15 1  
    17   15   16 1  
    18   15   17 1  
    19   16   19 1  
    20   17   18 1  
    21    4   21 1  
    22    5   22 1  
    23    5   23 1  
    24    6   24 1  
    25    7   25 1  
    26    8   26 1  
    27   11   27 1  
    28   11   28 1  
    29   11   29 1  
    30   12   30 1  
    31   13   31 1  
    32   13   32 1  
    33   15   33 1  
    34   16   34 1  
    35   16   35 1  
    36   17   36 1  
    37   17   37 1  
    38   18   38 1  
    39   18   39 1  
    40   18   40 1  
    41   19   41 1  
    42   19   42 1  
    43   19   43 1  
    44   20   44 1  
    45   20   45 1  
    46   20   46 1  
@<TRIPOS>SUBSTRUCTURE
     1 G39         1

