### 
### Created by X-TOOL on Mon Sep 10 21:13:12 2018
### 

@<TRIPOS>MOLECULE
4mwx_ligand
   45    45     1     0     0
SMALL
GAST_HUCK


@<TRIPOS>ATOM
      1 C1        -23.7730  -64.7420  -19.4470 C.2       1 ZMR         0.0637
      2 O1A       -24.4320  -65.0710  -20.4720 O.co2     1 ZMR        -0.5663
      3 O1B       -22.5160  -64.9190  -19.4420 O.co2     1 ZMR        -0.5663
      4 C2        -24.5190  -64.1850  -18.2540 C.3       1 ZMR         0.1148
      5 C3        -23.7590  -63.3620  -17.3810 C.3       1 ZMR         0.0237
      6 C4        -24.4640  -62.4600  -16.5180 C.3       1 ZMR         0.1026
      7 C5        -25.9450  -62.5670  -16.5640 C.3       1 ZMR         0.1065
      8 N5        -26.5740  -61.4710  -15.8260 N.am      1 ZMR        -0.2778
      9 C10       -27.1950  -61.6480  -14.5640 C.2       1 ZMR         0.1733
     10 O10       -27.2310  -62.7900  -14.0110 O.2       1 ZMR        -0.3974
     11 C11       -27.8120  -60.4320  -13.8890 C.3       1 ZMR         0.0257
     12 C6        -26.5510  -62.5720  -17.9730 C.3       1 ZMR         0.1158
     13 O6        -25.7800  -63.6120  -18.7750 O.3       1 ZMR        -0.3542
     14 C7        -27.9290  -62.8380  -18.0680 C.3       1 ZMR         0.1116
     15 O7        -28.2260  -64.1040  -17.6010 O.3       1 ZMR        -0.3865
     16 C8        -28.3050  -62.7950  -19.5540 C.3       1 ZMR         0.1065
     17 O8        -27.9060  -61.6000  -20.1210 O.3       1 ZMR        -0.3869
     18 C9        -29.7700  -62.9070  -19.7500 C.3       1 ZMR         0.0727
     19 O9        -30.5840  -61.8900  -19.1890 O.3       1 ZMR        -0.3924
     20 NE        -24.0960  -62.7500  -15.0600 N.pl3     1 ZMR        -0.2671
     21 CZ        -23.9050  -61.7440  -14.0340 C.cat     1 ZMR         0.2885
     22 NH1       -23.9990  -60.4710  -14.3200 N.pl3     1 ZMR        -0.2849
     23 NH2       -23.6220  -62.1080  -12.7950 N.pl3     1 ZMR        -0.2849
     24 H1        -24.8063  -65.0488  -17.6365 H         1 ZMR         0.0767
     25 H2        -23.0861  -62.7567  -18.0062 H         1 ZMR         0.0346
     26 H3        -23.1633  -64.0286  -16.7400 H         1 ZMR         0.0346
     27 H4        -24.1712  -61.4339  -16.7853 H         1 ZMR         0.0752
     28 H5        -26.2149  -63.5166  -16.0789 H         1 ZMR         0.0621
     29 H6        -26.5654  -60.5563  -16.2300 H         1 ZMR         0.1856
     30 H7        -28.2506  -60.7307  -12.9255 H         1 ZMR         0.0467
     31 H8        -28.5974  -60.0130  -14.5352 H         1 ZMR         0.0467
     32 H9        -27.0341  -59.6732  -13.7183 H         1 ZMR         0.0467
     33 H10       -26.3815  -61.5781  -18.4129 H         1 ZMR         0.0649
     34 H11       -28.4969  -62.0856  -17.5010 H         1 ZMR         0.0647
     35 H12       -29.1606  -64.2570  -17.6765 H         1 ZMR         0.2100
     36 H13       -27.8052  -63.6297  -20.0672 H         1 ZMR         0.0643
     37 H14       -28.1466  -61.5909  -21.0400 H         1 ZMR         0.2100
     38 H15       -30.0892  -63.8641  -19.3117 H         1 ZMR         0.0584
     39 H16       -29.9578  -62.9193  -20.8338 H         1 ZMR         0.0584
     40 H17       -30.3429  -61.0506  -19.5630 H         1 ZMR         0.2095
     41 H18       -23.9749  -63.7359  -14.7874 H         1 ZMR         0.2645
     42 H19       -23.8611  -59.7658  -13.5820 H         1 ZMR         0.2615
     43 H20       -24.2109  -60.1738  -15.2832 H         1 ZMR         0.2615
     44 H21       -23.5451  -63.1071  -12.5566 H         1 ZMR         0.2615
     45 H22       -23.4784  -61.3925  -12.0681 H         1 ZMR         0.2615
@<TRIPOS>BOND
     1    1    2 ar 
     2    1    3 ar 
     3    1    4 1  
     4    4    5 1  
     5    4   13 1  
     6    5    6 1  
     7    6    7 1  
     8    6   20 1  
     9    7    8 1  
    10    7   12 1  
    11    8    9 am 
    12    9   10 2  
    13    9   11 1  
    14   12   13 1  
    15   12   14 1  
    16   14   15 1  
    17   14   16 1  
    18   16   17 1  
    19   16   18 1  
    20   18   19 1  
    21   20   21 ar 
    22   21   22 ar 
    23   21   23 ar 
    24    4   24 1  
    25    5   25 1  
    26    5   26 1  
    27    6   27 1  
    28    7   28 1  
    29    8   29 1  
    30   11   30 1  
    31   11   31 1  
    32   11   32 1  
    33   12   33 1  
    34   14   34 1  
    35   15   35 1  
    36   16   36 1  
    37   17   37 1  
    38   18   38 1  
    39   18   39 1  
    40   19   40 1  
    41   20   41 1  
    42   22   42 1  
    43   22   43 1  
    44   23   44 1  
    45   23   45 1  
@<TRIPOS>SUBSTRUCTURE
     1 ZMR         1

