### 
### Created by X-TOOL on Mon Sep 10 21:13:12 2018
### 

@<TRIPOS>MOLECULE
4mwy_ligand
   48    48     1     0     0
SMALL
GAST_HUCK


@<TRIPOS>ATOM
      1 CAA        24.3750  -63.7510   18.6210 C.3       1 LNV         0.1148
      2 CAB        23.7560  -63.6020   17.2620 C.3       1 LNV         0.0237
      3 CAC        24.4430  -62.5990   16.4500 C.3       1 LNV         0.1026
      4 CAD        25.9010  -62.7070   16.5270 C.3       1 LNV         0.1065
      5 CAE        26.3990  -62.7300   17.9450 C.3       1 LNV         0.1161
      6 OAF        25.8130  -63.8480   18.6350 O.3       1 LNV        -0.3542
      7 CAG        23.7560  -64.7160   19.5530 C.2       1 LNV         0.0637
      8 OAH        24.4470  -65.1050   20.5350 O.co2     1 LNV        -0.5663
      9 OAI        22.5730  -65.1080   19.4010 O.co2     1 LNV        -0.5663
     10 CAJ        27.8640  -62.9370   18.0000 C.3       1 LNV         0.1147
     11 CAK        28.3650  -62.7480   19.5130 C.3       1 LNV         0.1067
     12 CAL        29.9490  -62.9080   19.7240 C.3       1 LNV         0.0727
     13 OAM        30.7170  -61.9670   19.0170 O.3       1 LNV        -0.3924
     14 OAW        28.2440  -64.1930   17.5890 O.3       1 LNV        -0.3745
     15 CAX        29.1320  -64.3180   16.5320 C.3       1 LNV         0.0370
     16 OAY        27.8290  -61.5370   20.1590 O.3       1 LNV        -0.3869
     17 NAZ        24.0650  -62.8420   15.0140 N.pl3     1 LNV        -0.2671
     18 CBA        23.8710  -61.8130   13.9940 C.cat     1 LNV         0.2885
     19 NBB        23.5800  -62.1660   12.7700 N.pl3     1 LNV        -0.2849
     20 NBC        23.9750  -60.5350   14.2970 N.pl3     1 LNV        -0.2849
     21 CBD        27.1790  -61.7450   14.5230 C.2       1 LNV         0.1733
     22 CBE        27.7910  -60.5370   13.8680 C.3       1 LNV         0.0257
     23 OBF        27.2240  -62.8400   13.9690 O.2       1 LNV        -0.3974
     24 NBG        26.5440  -61.5800   15.8120 N.am      1 LNV        -0.2778
     25 H1         24.1711  -62.7766   19.0889 H         1 LNV         0.0767
     26 H2         22.7049  -63.3010   17.3824 H         1 LNV         0.0346
     27 H3         23.8029  -64.5707   16.7430 H         1 LNV         0.0346
     28 H4         24.1305  -61.5936   16.7687 H         1 LNV         0.0752
     29 H5         26.1981  -63.6480   16.0410 H         1 LNV         0.0621
     30 H6         26.1318  -61.7862   18.4428 H         1 LNV         0.0649
     31 H7         28.3481  -62.1898   17.3540 H         1 LNV         0.0649
     32 H8         27.9194  -63.5899   20.0631 H         1 LNV         0.0643
     33 H9         30.2426  -63.9145   19.3911 H         1 LNV         0.0584
     34 H10        30.1682  -62.7980   20.7963 H         1 LNV         0.0584
     35 H11        30.4825  -61.0912   19.3007 H         1 LNV         0.2095
     36 H12        29.3243  -65.3837   16.3388 H         1 LNV         0.0524
     37 H13        30.0769  -63.8150   16.7854 H         1 LNV         0.0524
     38 H14        28.6995  -63.8546   15.6330 H         1 LNV         0.0524
     39 H15        27.9976  -61.5767   21.0931 H         1 LNV         0.2100
     40 H16        23.9309  -63.8211   14.7237 H         1 LNV         0.2645
     41 H17        23.4418  -61.4469   12.0457 H         1 LNV         0.2615
     42 H18        23.4888  -63.1634   12.5295 H         1 LNV         0.2615
     43 H19        24.2042  -60.2511   15.2602 H         1 LNV         0.2615
     44 H20        23.8271  -59.8198   13.5707 H         1 LNV         0.2615
     45 H21        27.6494  -59.6583   14.5144 H         1 LNV         0.0467
     46 H22        27.3047  -60.3603   12.8973 H         1 LNV         0.0467
     47 H23        28.8664  -60.7090   13.7134 H         1 LNV         0.0467
     48 H24        26.5388  -60.6740   16.2352 H         1 LNV         0.1856
@<TRIPOS>BOND
     1    2    1 1  
     2    6    1 1  
     3    1    7 1  
     4    3    2 1  
     5    4    3 1  
     6    3   17 1  
     7    4    5 1  
     8   24    4 1  
     9    5    6 1  
    10    5   10 1  
    11    7    8 ar 
    12    7    9 ar 
    13   10   11 1  
    14   10   14 1  
    15   11   12 1  
    16   11   16 1  
    17   12   13 1  
    18   14   15 1  
    19   17   18 ar 
    20   18   19 ar 
    21   18   20 ar 
    22   21   22 1  
    23   21   23 2  
    24   21   24 am 
    25    1   25 1  
    26    2   26 1  
    27    2   27 1  
    28    3   28 1  
    29    4   29 1  
    30    5   30 1  
    31   10   31 1  
    32   11   32 1  
    33   12   33 1  
    34   12   34 1  
    35   13   35 1  
    36   15   36 1  
    37   15   37 1  
    38   15   38 1  
    39   16   39 1  
    40   17   40 1  
    41   19   41 1  
    42   19   42 1  
    43   20   43 1  
    44   20   44 1  
    45   22   45 1  
    46   22   46 1  
    47   22   47 1  
    48   24   48 1  
@<TRIPOS>SUBSTRUCTURE
     1 LNV         1

