### 
### Created by X-TOOL on Mon Sep 10 21:13:13 2018
### 

@<TRIPOS>MOLECULE
4mx0_ligand
   51    51     1     0     0
SMALL
GAST_HUCK


@<TRIPOS>ATOM
      1 C2         24.6790  -63.0970   16.3200 C.3       1 BCZ         0.0827
      2 N25        24.3520  -61.8120   15.7740 N.pl3     1 BCZ        -0.2691
      3 C26        23.9560  -61.6480   14.3540 C.cat     1 BCZ         0.2885
      4 N30        23.8580  -62.7120   13.5620 N.pl3     1 BCZ        -0.2849
      5 N27        23.6800  -60.4580   13.8490 N.pl3     1 BCZ        -0.2849
      6 C3         25.7480  -62.9690   17.3200 C.3       1 BCZ         0.0460
      7 C10        27.1190  -62.6850   16.6130 C.3       1 BCZ         0.0535
      8 C24        28.4470  -62.6740   17.5560 C.3       1 BCZ        -0.0180
      9 C37        28.2210  -61.7630   18.7760 C.3       1 BCZ        -0.0510
     10 C38        28.0380  -60.2960   18.4900 C.3       1 BCZ        -0.0650
     11 C36        29.7160  -62.3600   16.7990 C.3       1 BCZ        -0.0510
     12 C39        31.0490  -62.4820   17.5080 C.3       1 BCZ        -0.0650
     13 N11        27.1350  -61.4580   15.6420 N.am      1 BCZ        -0.2834
     14 C13        27.3120  -61.6280   14.2260 C.2       1 BCZ         0.1731
     15 C15        27.3120  -60.4110   13.3640 C.3       1 BCZ         0.0257
     16 O14        27.4530  -62.7400   13.7430 O.2       1 BCZ        -0.3974
     17 C4         25.6840  -64.2350   18.0760 C.3       1 BCZ         0.0779
     18 O9         26.5210  -65.1980   17.5070 O.3       1 BCZ        -0.3893
     19 C5         24.2960  -64.6970   18.0030 C.3       1 BCZ         0.0416
     20 C6         23.6860  -64.7070   19.3910 C.2       1 BCZ         0.0405
     21 O8         22.3670  -65.1260   19.5220 O.co2     1 BCZ        -0.5686
     22 O7         24.5140  -64.8880   20.4990 O.co2     1 BCZ        -0.5686
     23 C1         23.5730  -63.7430   17.1220 C.3       1 BCZ         0.0003
     24 H1         24.9854  -63.7590   15.4966 H         1 BCZ         0.0731
     25 H2         24.3931  -60.9823   16.3830 H         1 BCZ         0.2645
     26 H3         23.5829  -62.5966   12.5761 H         1 BCZ         0.2615
     27 H4         24.0572  -63.6514   13.9345 H         1 BCZ         0.2615
     28 H5         23.7484  -59.6185   14.4418 H         1 BCZ         0.2615
     29 H6         23.3965  -60.3703   12.8627 H         1 BCZ         0.2615
     30 H7         25.5351  -62.1305   17.9994 H         1 BCZ         0.0387
     31 H8         27.2547  -63.5594   15.9596 H         1 BCZ         0.0563
     32 H9         28.5687  -63.6964   17.9431 H         1 BCZ         0.0323
     33 H10        29.0924  -61.8687   19.4389 H         1 BCZ         0.0266
     34 H11        27.3191  -62.1177   19.2964 H         1 BCZ         0.0266
     35 H12        27.8860  -59.7544   19.4353 H         1 BCZ         0.0230
     36 H13        27.1606  -60.1555   17.8417 H         1 BCZ         0.0230
     37 H14        28.9338  -59.9065   17.9842 H         1 BCZ         0.0230
     38 H15        29.6324  -61.3207   16.4486 H         1 BCZ         0.0266
     39 H16        29.7495  -63.0374   15.9330 H         1 BCZ         0.0266
     40 H17        31.8595  -62.2179   16.8128 H         1 BCZ         0.0230
     41 H18        31.1864  -63.5167   17.8551 H         1 BCZ         0.0230
     42 H19        31.0692  -61.8000   18.3708 H         1 BCZ         0.0230
     43 H20        27.0197  -60.5371   16.0143 H         1 BCZ         0.1854
     44 H21        27.4570  -60.7054   12.3141 H         1 BCZ         0.0467
     45 H22        28.1289  -59.7424   13.6735 H         1 BCZ         0.0467
     46 H23        26.3502  -59.8876   13.4686 H         1 BCZ         0.0467
     47 H24        25.9769  -64.0649   19.1225 H         1 BCZ         0.0619
     48 H25        26.2499  -65.3623   16.6115 H         1 BCZ         0.2100
     49 H26        24.2542  -65.7102   17.5768 H         1 BCZ         0.0493
     50 H27        22.8677  -64.2722   16.4643 H         1 BCZ         0.0323
     51 H28        23.0289  -62.9940   17.7161 H         1 BCZ         0.0323
@<TRIPOS>BOND
     1    1    2 1  
     2    1    6 1  
     3    1   23 1  
     4    2    3 ar 
     5    3    4 ar 
     6    3    5 ar 
     7    6    7 1  
     8    6   17 1  
     9    7    8 1  
    10    7   13 1  
    11    8    9 1  
    12    8   11 1  
    13    9   10 1  
    14   11   12 1  
    15   13   14 am 
    16   14   15 1  
    17   14   16 2  
    18   17   18 1  
    19   17   19 1  
    20   19   20 1  
    21   19   23 1  
    22   20   21 ar 
    23   20   22 ar 
    24    1   24 1  
    25    2   25 1  
    26    4   26 1  
    27    4   27 1  
    28    5   28 1  
    29    5   29 1  
    30    6   30 1  
    31    7   31 1  
    32    8   32 1  
    33    9   33 1  
    34    9   34 1  
    35   10   35 1  
    36   10   36 1  
    37   10   37 1  
    38   11   38 1  
    39   11   39 1  
    40   12   40 1  
    41   12   41 1  
    42   12   42 1  
    43   13   43 1  
    44   15   44 1  
    45   15   45 1  
    46   15   46 1  
    47   17   47 1  
    48   18   48 1  
    49   19   49 1  
    50   23   50 1  
    51   23   51 1  
@<TRIPOS>SUBSTRUCTURE
     1 BCZ         1

