### 
### Created by X-TOOL on Mon Sep 10 21:13:20 2018
### 

@<TRIPOS>MOLECULE
4mx1_ligand
   44    46     1     0     0
SMALL
GAST_HUCK


@<TRIPOS>ATOM
      1 C         -23.9710    8.8080   -6.3600 C.cat     1 1MX         0.2138
      2 N         -24.2870    8.0680   -5.2840 N.pl3     1 1MX        -0.3290
      3 O         -22.1220    8.2520   -9.2320 O.2       1 1MX        -0.3303
      4 C1        -22.8220    8.8190   -8.3660 C.2       1 1MX         0.2950
      5 N1        -23.1990    8.1510   -7.2600 N.am      1 1MX        -0.2380
      6 O1        -25.5170   14.6200   -8.1710 O.2       1 1MX        -0.3488
      7 C2        -23.2180   10.1600   -8.5610 C.ar      1 1MX         0.2799
      8 N2        -24.2950   10.0880   -6.4430 N.pl3     1 1MX        -0.1995
      9 O2        -25.1990   15.1030  -14.9190 O.2       1 1MX        -0.3904
     10 C3        -24.0210   10.7840   -7.5220 C.ar      1 1MX         0.2981
     11 N3        -24.4810   12.0270   -7.6700 N.ar      1 1MX        -0.1376
     12 C4        -24.2190   12.6980   -8.8080 C.ar      1 1MX         0.2241
     13 N4        -22.9010   10.9390   -9.6780 N.ar      1 1MX        -0.1647
     14 C5        -23.3510   12.1930   -9.8060 C.ar      1 1MX         0.1335
     15 N5        -24.6770   14.6440  -10.2080 N.am      1 1MX        -0.2742
     16 C6        -24.7670   14.0890   -8.9990 C.2       1 1MX         0.2718
     17 N6        -25.2110   15.6490  -12.7770 N.am      1 1MX        -0.2659
     18 C7        -25.1500   16.0490  -10.4410 C.3       1 1MX         0.0518
     19 N7        -26.1190   13.6760  -13.3560 N.am      1 1MX        -0.2196
     20 C8        -26.0570   16.0010  -11.6500 C.3       1 1MX         0.0521
     21 C9        -25.5140   14.7920  -13.7700 C.2       1 1MX         0.2872
     22 C10       -26.5030   12.4790  -13.9200 C.ar      1 1MX         0.0665
     23 C11       -26.3360   11.3710  -13.1410 C.ar      1 1MX        -0.0416
     24 C12       -26.7100   10.0730  -13.5600 C.ar      1 1MX        -0.0757
     25 C13       -27.2960    9.9230  -14.8060 C.ar      1 1MX        -0.0773
     26 C14       -27.4810   11.0540  -15.5980 C.ar      1 1MX        -0.0757
     27 C15       -27.0920   12.3420  -15.2030 C.ar      1 1MX        -0.0416
     28 H         -24.0218    7.0734   -5.2470 H         1 1MX         0.1802
     29 H         -24.7945    8.4953   -4.4961 H         1 1MX         0.1802
     30 H         -22.9194    7.2031   -7.1075 H         1 1MX         0.1859
     31 H         -24.7686   10.5447   -5.6505 H         1 1MX         0.2608
     32 H         -23.0587   12.8056  -10.6512 H         1 1MX         0.1513
     33 H         -24.2907   14.1191  -10.9665 H         1 1MX         0.1868
     34 H         -24.3132   16.0873  -12.8196 H         1 1MX         0.1853
     35 H         -24.2934   16.7113  -10.6346 H         1 1MX         0.0542
     36 H         -25.7047   16.4137   -9.5639 H         1 1MX         0.0542
     37 H         -26.3544   13.7205  -12.3851 H         1 1MX         0.2255
     38 H         -26.8403   15.2416  -11.5092 H         1 1MX         0.0538
     39 H         -26.5239   16.9831  -11.8157 H         1 1MX         0.0538
     40 H         -25.8971   11.4911  -12.1571 H         1 1MX         0.0501
     41 H         -26.5417    9.2144  -12.9200 H         1 1MX         0.0577
     42 H         -27.6045    8.9452  -15.1578 H         1 1MX         0.0486
     43 H         -27.9491   10.9323  -16.5681 H         1 1MX         0.0577
     44 H         -27.2356   13.1983  -15.8519 H         1 1MX         0.0501
@<TRIPOS>BOND
     1    1    2 ar 
     2    1    5 ar 
     3    8    1 ar 
     4    4    3 2  
     5    4    5 am 
     6    7    4 1  
     7   16    6 2  
     8   10    7 ar 
     9   13    7 ar 
    10   10    8 1  
    11   21    9 2  
    12   11   10 ar 
    13   12   11 ar 
    14   12   14 ar 
    15   16   12 1  
    16   14   13 ar 
    17   15   16 am 
    18   18   15 1  
    19   20   17 1  
    20   17   21 am 
    21   18   20 1  
    22   21   19 am 
    23   19   22 1  
    24   22   23 ar 
    25   22   27 ar 
    26   23   24 ar 
    27   24   25 ar 
    28   25   26 ar 
    29   26   27 ar 
    30    2   28 1  
    31    2   29 1  
    32    5   30 1  
    33    8   31 1  
    34   14   32 1  
    35   15   33 1  
    36   17   34 1  
    37   18   35 1  
    38   18   36 1  
    39   19   37 1  
    40   20   38 1  
    41   20   39 1  
    42   23   40 1  
    43   24   41 1  
    44   25   42 1  
    45   26   43 1  
    46   27   44 1  
@<TRIPOS>SUBSTRUCTURE
     1 1MX         1

