### 
### Created by X-TOOL on Mon Sep 10 21:13:19 2018
### 

@<TRIPOS>MOLECULE
4mx5_ligand
   32    33     1     0     0
SMALL
GAST_HUCK


@<TRIPOS>ATOM
      1 N1         24.2010  -10.0330   -6.5600 N.pl3     1 5MX        -0.1995
      2 C2         23.8690   -8.7500   -6.4310 C.cat     1 5MX         0.2138
      3 N2         24.1900   -8.0540   -5.3140 N.pl3     1 5MX        -0.3290
      4 N3         23.0240   -8.1620   -7.3750 N.am      1 5MX        -0.2380
      5 C4         22.7190   -8.8790   -8.5100 C.2       1 5MX         0.2950
      6 O4         21.9160   -8.3120   -9.2950 O.2       1 5MX        -0.3303
      7 N5         22.8000  -10.9820   -9.7330 N.ar      1 5MX        -0.1647
      8 C6         23.2670  -12.2560   -9.8350 C.ar      1 5MX         0.1335
      9 C7         24.2020  -12.6990   -8.8690 C.ar      1 5MX         0.2241
     10 N8         24.4240  -11.9810   -7.7600 N.ar      1 5MX        -0.1376
     11 C4A        23.0730  -10.2130   -8.6350 C.ar      1 5MX         0.2799
     12 C8A        23.9400  -10.7170   -7.6610 C.ar      1 5MX         0.2981
     13 CAM        24.7430  -14.0140   -9.0310 C.2       1 5MX         0.2718
     14 OAN        25.5380  -14.4810   -8.2200 O.2       1 5MX        -0.3488
     15 NAO        24.6650  -14.5640  -10.2770 N.am      1 5MX        -0.2743
     16 CAP        25.1940  -15.8940  -10.5340 C.3       1 5MX         0.0502
     17 CAQ        26.5260  -15.7860  -11.3210 C.3       1 5MX         0.0433
     18 NAR        27.4580  -14.7380  -10.8460 N.am      1 5MX        -0.3066
     19 CAS        28.7090  -15.0260  -10.4280 C.2       1 5MX         0.1207
     20 OAT        29.4350  -14.0940  -10.0090 O.co2     1 5MX        -0.5647
     21 OAU        29.1510  -16.2170  -10.4670 O.co2     1 5MX        -0.5647
     22 H          24.6756  -10.5070   -5.7783 H         1 5MX         0.2608
     23 H          23.9251   -7.0621   -5.2314 H         1 5MX         0.1802
     24 H          24.6989   -8.5167   -4.5473 H         1 5MX         0.1802
     25 H          22.6509   -7.2455   -7.2304 H         1 5MX         0.1859
     26 H          22.9333  -12.9114  -10.6314 H         1 5MX         0.1513
     27 H          24.2401  -14.0477  -11.0206 H         1 5MX         0.1868
     28 H          24.4660  -16.4687  -11.1253 H         1 5MX         0.0540
     29 H          25.3754  -16.4061   -9.5775 H         1 5MX         0.0540
     30 H          26.2832  -15.5736  -12.3726 H         1 5MX         0.0518
     31 H          27.0411  -16.7555  -11.2521 H         1 5MX         0.0518
     32 H          27.1509  -13.7864  -10.8345 H         1 5MX         0.1709
@<TRIPOS>BOND
     1    2    1 ar 
     2    1   12 1  
     3    2    3 ar 
     4    4    2 ar 
     5    5    4 am 
     6    5    6 2  
     7   11    5 1  
     8    7    8 ar 
     9    7   11 ar 
    10    8    9 ar 
    11    9   10 ar 
    12    9   13 1  
    13   10   12 ar 
    14   11   12 ar 
    15   13   14 2  
    16   13   15 am 
    17   15   16 1  
    18   16   17 1  
    19   17   18 1  
    20   18   19 am 
    21   19   20 ar 
    22   19   21 ar 
    23    1   22 1  
    24    3   23 1  
    25    3   24 1  
    26    4   25 1  
    27    8   26 1  
    28   15   27 1  
    29   16   28 1  
    30   16   29 1  
    31   17   30 1  
    32   17   31 1  
    33   18   32 1  
@<TRIPOS>SUBSTRUCTURE
     1 5MX         1

