### 
### Created by X-TOOL on Mon Sep 10 21:13:16 2018
### 

@<TRIPOS>MOLECULE
4mx9_ligand
   60    64     1     0     0
SMALL
GAST_HUCK


@<TRIPOS>ATOM
      1 CAL        -2.0650  -17.6820  -29.2470 C.3       1 2E8        -0.0070
      2 CAN        -1.9160  -16.3840  -28.4730 C.3       1 2E8        -0.0318
      3 NBD        -2.9660  -16.2190  -27.4460 N.4       1 2E8         0.2331
      4 CAB        -2.8470  -14.8650  -26.8830 C.3       1 2E8        -0.0431
      5 CAO        -4.2730  -16.2700  -28.0820 C.3       1 2E8        -0.0318
      6 CAM        -4.4990  -17.6150  -28.7530 C.3       1 2E8        -0.0070
      7 CBC        -3.4770  -17.8660  -29.8540 C.3       1 2E8        -0.0028
      8 CAP        -3.7350  -19.2890  -30.3600 C.3       1 2E8         0.0735
      9 NBE        -2.5730  -20.1040  -30.6940 N.pl3     1 2E8        -0.1833
     10 NAS        -1.4240  -19.7530  -30.9040 N.2       1 2E8        -0.1943
     11 C4         -2.7060  -21.3860  -30.8340 C.ar      1 2E8         0.1633
     12 N3         -3.7800  -22.1410  -30.7110 N.ar      1 2E8        -0.2675
     13 C2         -3.6560  -23.4320  -30.9020 C.ar      1 2E8         0.0565
     14 N1         -2.4830  -23.9670  -31.2150 N.ar      1 2E8        -0.2656
     15 C6         -1.4170  -23.2280  -31.3640 C.ar      1 2E8         0.1274
     16 NAC        -0.3040  -23.8430  -31.6730 N.pl3     1 2E8        -0.3126
     17 C5         -1.4940  -21.8820  -31.1630 C.ar      1 2E8         0.0869
     18 CAX        -0.6790  -20.7930  -31.1870 C.2       1 2E8         0.0707
     19 CAV         0.6440  -20.7260  -31.4840 C.ar      1 2E8        -0.0104
     20 CAJ         1.1980  -21.4930  -32.4790 C.ar      1 2E8        -0.0505
     21 CAE         1.4420  -19.8440  -30.8190 C.ar      1 2E8        -0.0571
     22 CAG         2.7770  -19.7320  -31.1060 C.ar      1 2E8        -0.0594
     23 CAY         3.3150  -20.4980  -32.0900 C.ar      1 2E8        -0.0285
     24 CAI         4.6410  -20.3890  -32.3930 C.ar      1 2E8        -0.0289
     25 CAZ         2.5290  -21.3750  -32.7690 C.ar      1 2E8        -0.0244
     26 CAF         3.0690  -22.1470  -33.7480 C.ar      1 2E8        -0.0563
     27 CAD         4.4040  -22.0570  -34.0620 C.ar      1 2E8        -0.0273
     28 CAU         5.1960  -21.1720  -33.3830 C.ar      1 2E8         0.0925
     29 OAT         6.4860  -21.0910  -33.7040 O.3       1 2E8        -0.3174
     30 CAK         7.2720  -21.4580  -32.6170 C.3       1 2E8         0.0680
     31 CAA         8.7580  -21.3230  -32.9100 C.3       1 2E8        -0.0371
     32 H          -1.8646  -18.5216  -28.5652 H         1 2E8         0.0320
     33 H          -1.3286  -17.6893  -30.0641 H         1 2E8         0.0320
     34 H          -1.9764  -15.5425  -29.1788 H         1 2E8         0.0814
     35 H          -0.9335  -16.3780  -27.9783 H         1 2E8         0.0814
     36 H          -2.8804  -16.9245  -26.7311 H         1 2E8         0.2030
     37 H          -3.6201  -14.7183  -26.1144 H         1 2E8         0.0777
     38 H          -2.9800  -14.1221  -27.6833 H         1 2E8         0.0777
     39 H          -1.8520  -14.7422  -26.4304 H         1 2E8         0.0777
     40 H          -4.3360  -15.4749  -28.8395 H         1 2E8         0.0814
     41 H          -5.0505  -16.1129  -27.3199 H         1 2E8         0.0814
     42 H          -5.5079  -17.6314  -29.1909 H         1 2E8         0.0320
     43 H          -4.4140  -18.4104  -27.9979 H         1 2E8         0.0320
     44 H          -3.6125  -17.1513  -30.6791 H         1 2E8         0.0332
     45 H          -4.3537  -19.2098  -31.2661 H         1 2E8         0.0628
     46 H          -4.2967  -19.8205  -29.5777 H         1 2E8         0.0628
     47 H          -4.5251  -24.0722  -30.8027 H         1 2E8         0.1030
     48 H           0.5640  -23.3035  -31.8012 H         1 2E8         0.1842
     49 H          -0.2960  -24.8665  -31.7880 H         1 2E8         0.1842
     50 H           0.5813  -22.1909  -33.0337 H         1 2E8         0.0618
     51 H           1.0113  -19.2175  -30.0463 H         1 2E8         0.0611
     52 H           3.3987  -19.0378  -30.5523 H         1 2E8         0.0592
     53 H           5.2613  -19.6831  -31.8526 H         1 2E8         0.0499
     54 H           2.4383  -22.8434  -34.2888 H         1 2E8         0.0618
     55 H           4.8257  -22.6819  -34.8409 H         1 2E8         0.0590
     56 H           7.0554  -22.5056  -32.3610 H         1 2E8         0.0612
     57 H           7.0194  -20.8121  -31.7632 H         1 2E8         0.0612
     58 H           9.3353  -21.6237  -32.0233 H         1 2E8         0.0256
     59 H           8.9888  -20.2771  -33.1604 H         1 2E8         0.0256
     60 H           9.0248  -21.9706  -33.7582 H         1 2E8         0.0256
@<TRIPOS>BOND
     1    1    2 1  
     2    1    7 1  
     3    2    3 1  
     4    3    4 1  
     5    3    5 1  
     6    5    6 1  
     7    6    7 1  
     8    7    8 1  
     9    8    9 1  
    10    9   10 1  
    11    9   11 1  
    12   10   18 2  
    13   11   12 ar 
    14   11   17 ar 
    15   12   13 ar 
    16   13   14 ar 
    17   14   15 ar 
    18   15   16 1  
    19   15   17 ar 
    20   17   18 1  
    21   18   19 1  
    22   19   20 ar 
    23   19   21 ar 
    24   20   25 ar 
    25   21   22 ar 
    26   22   23 ar 
    27   23   24 ar 
    28   23   25 ar 
    29   24   28 ar 
    30   25   26 ar 
    31   26   27 ar 
    32   27   28 ar 
    33   28   29 1  
    34   29   30 1  
    35   30   31 1  
    36    1   32 1  
    37    1   33 1  
    38    2   34 1  
    39    2   35 1  
    40    3   36 1  
    41    4   37 1  
    42    4   38 1  
    43    4   39 1  
    44    5   40 1  
    45    5   41 1  
    46    6   42 1  
    47    6   43 1  
    48    7   44 1  
    49    8   45 1  
    50    8   46 1  
    51   13   47 1  
    52   16   48 1  
    53   16   49 1  
    54   20   50 1  
    55   21   51 1  
    56   22   52 1  
    57   24   53 1  
    58   26   54 1  
    59   27   55 1  
    60   30   56 1  
    61   30   57 1  
    62   31   58 1  
    63   31   59 1  
    64   31   60 1  
@<TRIPOS>SUBSTRUCTURE
     1 2E8         1

