### 
### Created by X-TOOL on Mon Sep 10 21:13:16 2018
### 

@<TRIPOS>MOLECULE
4mxa_ligand
   57    61     1     0     0
SMALL
GAST_HUCK


@<TRIPOS>ATOM
      1 N1         -3.0150  -23.5160  -31.0310 N.ar      1 BK7        -0.2656
      2 C2         -4.1610  -22.9450  -30.7230 C.ar      1 BK7         0.0565
      3 N3         -4.2260  -21.6280  -30.5690 N.ar      1 BK7        -0.2675
      4 C4         -3.1350  -20.8570  -30.7550 C.ar      1 BK7         0.1633
      5 C5         -1.9240  -21.4290  -31.0890 C.ar      1 BK7         0.0869
      6 C6         -1.8880  -22.7930  -31.2320 C.ar      1 BK7         0.1274
      7 CAA         8.4400  -21.4820  -31.7110 C.3       1 BK7        -0.0371
      8 NAB        -0.7640  -23.3990  -31.5310 N.pl3     1 BK7        -0.3126
      9 CAC         4.4220  -21.4450  -33.8300 C.ar      1 BK7        -0.0273
     10 CAD         1.1100  -19.8990  -30.4990 C.ar      1 BK7        -0.0571
     11 CAE         3.0380  -21.4490  -33.7790 C.ar      1 BK7        -0.0563
     12 CAF         2.4890  -19.8960  -30.5610 C.ar      1 BK7        -0.0594
     13 CAH         4.4670  -20.3820  -31.6690 C.ar      1 BK7        -0.0289
     14 CAI         0.9720  -20.9320  -32.6080 C.ar      1 BK7        -0.0505
     15 CAJ         6.9460  -21.8630  -31.8670 C.3       1 BK7         0.0680
     16 CAK        -5.2600  -17.0790  -27.1410 C.3       1 BK7        -0.0333
     17 CAL        -2.8630  -16.7780  -27.1060 C.3       1 BK7        -0.0333
     18 CAM        -5.2530  -17.4910  -28.5820 C.3       1 BK7        -0.0070
     19 CAN        -2.7430  -17.3090  -28.5480 C.3       1 BK7        -0.0070
     20 CAO        -3.8920  -18.5420  -30.3590 C.3       1 BK7         0.0735
     21 NAR        -1.7300  -19.2600  -30.9130 N.2       1 BK7        -0.1943
     22 NAS        -4.1780  -16.0990  -26.9210 N.4       1 BK7         0.2270
     23 OAT         6.4670  -20.8710  -32.7920 O.3       1 BK7        -0.3174
     24 CAU         5.1210  -20.9040  -32.7710 C.ar      1 BK7         0.0925
     25 CAV         0.3310  -20.4220  -31.4900 C.ar      1 BK7        -0.0104
     26 CAX        -1.0380  -20.3610  -31.2220 C.2       1 BK7         0.0707
     27 CAY         3.1090  -20.4040  -31.6500 C.ar      1 BK7        -0.0285
     28 CAZ         2.3630  -20.9230  -32.6810 C.ar      1 BK7        -0.0244
     29 CBC        -3.9360  -18.2120  -28.8760 C.3       1 BK7        -0.0028
     30 NBD        -2.8980  -19.5540  -30.6690 N.pl3     1 BK7        -0.1833
     31 H          -5.0512  -23.5503  -30.5952 H         1 BK7         0.1030
     32 H           8.9258  -22.1809  -31.0141 H         1 BK7         0.0256
     33 H           8.5181  -20.4579  -31.3171 H         1 BK7         0.0256
     34 H           8.9367  -21.5368  -32.6909 H         1 BK7         0.0256
     35 H           0.0930  -22.8485  -31.6838 H         1 BK7         0.1842
     36 H          -0.7383  -24.4254  -31.6130 H         1 BK7         0.1842
     37 H           4.9452  -21.8585  -34.6846 H         1 BK7         0.0590
     38 H           0.6269  -19.4691  -29.6290 H         1 BK7         0.0611
     39 H           2.4732  -21.8670  -34.6045 H         1 BK7         0.0618
     40 H           3.0710  -19.4891  -29.7420 H         1 BK7         0.0592
     41 H           5.0260  -19.9648  -30.8392 H         1 BK7         0.0499
     42 H           0.3898  -21.3386  -33.4270 H         1 BK7         0.0618
     43 H           6.4166  -21.7980  -30.9050 H         1 BK7         0.0612
     44 H           6.8352  -22.8769  -32.2788 H         1 BK7         0.0612
     45 H          -5.0956  -17.9604  -26.5037 H         1 BK7         0.0814
     46 H          -6.2290  -16.6219  -26.8919 H         1 BK7         0.0814
     47 H          -2.0520  -16.0603  -26.9133 H         1 BK7         0.0814
     48 H          -2.7844  -17.6183  -26.4005 H         1 BK7         0.0814
     49 H          -5.3394  -16.6009  -29.2226 H         1 BK7         0.0320
     50 H          -6.0978  -18.1675  -28.7783 H         1 BK7         0.0320
     51 H          -1.8117  -17.8859  -28.6472 H         1 BK7         0.0320
     52 H          -2.7252  -16.4607  -29.2481 H         1 BK7         0.0320
     53 H          -3.6506  -17.6261  -30.9182 H         1 BK7         0.0628
     54 H          -4.8809  -18.9109  -30.6688 H         1 BK7         0.0628
     55 H          -4.2399  -15.7318  -25.9843 H         1 BK7         0.2013
     56 H          -4.2651  -15.3448  -27.5840 H         1 BK7         0.2013
     57 H          -3.8774  -19.1350  -28.2804 H         1 BK7         0.0332
@<TRIPOS>BOND
     1    1    2 ar 
     2    6    1 ar 
     3    3    2 ar 
     4    4    3 ar 
     5    5    4 ar 
     6   30    4 1  
     7    5    6 ar 
     8   26    5 1  
     9    6    8 1  
    10   15    7 1  
    11   11    9 ar 
    12    9   24 ar 
    13   10   12 ar 
    14   25   10 ar 
    15   28   11 ar 
    16   12   27 ar 
    17   13   24 ar 
    18   27   13 ar 
    19   25   14 ar 
    20   14   28 ar 
    21   23   15 1  
    22   18   16 1  
    23   16   22 1  
    24   19   17 1  
    25   17   22 1  
    26   29   18 1  
    27   29   19 1  
    28   20   29 1  
    29   30   20 1  
    30   26   21 2  
    31   21   30 1  
    32   24   23 1  
    33   25   26 1  
    34   27   28 ar 
    35    2   31 1  
    36    7   32 1  
    37    7   33 1  
    38    7   34 1  
    39    8   35 1  
    40    8   36 1  
    41    9   37 1  
    42   10   38 1  
    43   11   39 1  
    44   12   40 1  
    45   13   41 1  
    46   14   42 1  
    47   15   43 1  
    48   15   44 1  
    49   16   45 1  
    50   16   46 1  
    51   17   47 1  
    52   17   48 1  
    53   18   49 1  
    54   18   50 1  
    55   19   51 1  
    56   19   52 1  
    57   20   53 1  
    58   20   54 1  
    59   22   55 1  
    60   22   56 1  
    61   29   57 1  
@<TRIPOS>SUBSTRUCTURE
     1 BK7         1

