### 
### Created by X-TOOL on Mon Sep 10 21:13:17 2018
### 

@<TRIPOS>MOLECULE
4mxc_ligand
   65    69     1     0     0
SMALL
GAST_HUCK


@<TRIPOS>ATOM
      1 C4        -10.1310   19.8590  -30.9890 C.ar      1 DWF         0.1888
      2 C5        -11.4480   19.4510  -30.7280 C.ar      1 DWF         0.0095
      3 C6        -12.4230   20.4240  -30.4960 C.ar      1 DWF         0.0041
      4 N1        -12.0790   21.7250  -30.5520 N.ar      1 DWF        -0.2663
      5 N3         -9.8510   21.1670  -31.0220 N.ar      1 DWF        -0.2232
      6 CAA        -5.8980   22.0780  -28.4080 C.3       1 DWF         0.0565
      7 SBP        -5.0100   23.4790  -28.9910 S.o2      1 DWF        -0.0245
      8 OAD        -3.5830   23.2490  -28.9180 O.2       1 DWF        -0.1726
      9 OAE        -5.1460   24.6540  -28.1530 O.2       1 DWF        -0.1726
     10 CAW        -5.5020   23.7620  -30.6640 C.3       1 DWF         0.0964
     11 CBG        -6.8790   24.3520  -30.7110 C.ar      1 DWF        -0.0319
     12 CAS        -8.0180   23.5380  -30.7330 C.ar      1 DWF        -0.0358
     13 CAJ        -6.9860   25.7330  -30.7380 C.ar      1 DWF        -0.0703
     14 CAH        -8.2300   26.3390  -30.7890 C.ar      1 DWF        -0.0779
     15 CAK        -9.3630   25.5360  -30.8200 C.ar      1 DWF        -0.0451
     16 CBJ        -9.2680   24.1500  -30.7940 C.ar      1 DWF         0.0585
     17 NBB       -10.5290   23.4670  -30.8300 N.pl3     1 DWF        -0.2455
     18 C2        -10.8090   22.0660  -30.7990 C.ar      1 DWF         0.1984
     19 OBC        -9.0780   18.9990  -31.2230 O.3       1 DWF        -0.2423
     20 CBN        -9.2360   17.7440  -30.6860 C.ar      1 DWF         0.1423
     21 CBK        -9.3320   16.6750  -31.5500 C.ar      1 DWF         0.1541
     22 FAG        -9.2900   16.9170  -32.8560 F         1 DWF        -0.1920
     23 CAT        -9.4900   15.3790  -31.0750 C.ar      1 DWF        -0.0135
     24 CAR        -9.2700   17.5600  -29.3130 C.ar      1 DWF        -0.0406
     25 CAQ        -9.4250   16.2650  -28.8320 C.ar      1 DWF        -0.0509
     26 CBI        -9.5090   15.1920  -29.6940 C.ar      1 DWF         0.0545
     27 NBA        -9.7130   13.8930  -29.1110 N.am      1 DWF        -0.2523
     28 CBE        -9.5950   12.6310  -29.7520 C.2       1 DWF         0.1857
     29 OAC        -9.2340   12.4710  -30.9000 O.2       1 DWF        -0.3768
     30 CBO        -9.9440   11.4990  -28.8460 C.3       1 DWF         0.1770
     31 CAU       -10.5320   10.3290  -29.5690 C.2       1 DWF        -0.0248
     32 CAV        -9.1030   10.2980  -29.1560 C.2       1 DWF        -0.0248
     33 CBD       -10.3040   11.6570  -27.4060 C.2       1 DWF         0.1872
     34 OAB       -10.3400   12.7920  -26.9200 O.2       1 DWF        -0.3759
     35 NAZ       -10.5960   10.5230  -26.6170 N.am      1 DWF        -0.2483
     36 CBH       -10.9280   10.6810  -25.2240 C.ar      1 DWF         0.0617
     37 CAO       -11.9540   11.5410  -24.8250 C.ar      1 DWF        -0.0423
     38 CAM       -12.2210   11.6560  -23.4630 C.ar      1 DWF        -0.0414
     39 CBF       -11.4820   10.9330  -22.5460 C.ar      1 DWF         0.1160
     40 FAF       -11.7580   11.0620  -21.2490 F         1 DWF        -0.1961
     41 CAN       -10.4650   10.0830  -22.9520 C.ar      1 DWF        -0.0414
     42 CAP       -10.1890    9.9580  -24.3090 C.ar      1 DWF        -0.0423
     43 H1        -11.7045   18.3980  -30.7068 H         1 DWF         0.0604
     44 H2        -13.4440   20.1355  -30.2736 H         1 DWF         0.0856
     45 H3         -5.7434   21.2337  -29.0959 H         1 DWF         0.0465
     46 H4         -6.9702   22.3183  -28.3577 H         1 DWF         0.0465
     47 H5         -5.5359   21.8054  -27.4057 H         1 DWF         0.0465
     48 H6         -5.4982   22.8068  -31.2094 H         1 DWF         0.0661
     49 H7         -4.7934   24.4575  -31.1375 H         1 DWF         0.0661
     50 H8         -7.9294   22.4580  -30.7033 H         1 DWF         0.0472
     51 H9         -6.0901   26.3430  -30.7191 H         1 DWF         0.0462
     52 H10        -8.3180   27.4193  -30.8044 H         1 DWF         0.0571
     53 H11       -10.3415   26.0002  -30.8654 H         1 DWF         0.0480
     54 H12       -11.3564   24.0778  -30.8867 H         1 DWF         0.2176
     55 H13        -9.5949   14.5417  -31.7554 H         1 DWF         0.0468
     56 H14        -9.1785   18.4005  -28.6345 H         1 DWF         0.0513
     57 H15        -9.4807   16.0961  -27.7627 H         1 DWF         0.0451
     58 H16        -9.9669   13.8765  -28.1439 H         1 DWF         0.2219
     59 H17       -11.3843    9.8496  -30.0482 H         1 DWF         0.1226
     60 H18        -8.1457    9.7807  -29.1115 H         1 DWF         0.1226
     61 H19       -10.5724    9.6103  -27.0250 H         1 DWF         0.2237
     62 H20       -12.5260   12.1028  -25.5546 H         1 DWF         0.0496
     63 H21       -13.0111   12.3148  -23.1211 H         1 DWF         0.0567
     64 H22        -9.8925    9.5232  -22.2213 H         1 DWF         0.0567
     65 H23        -9.3987    9.2972  -24.6463 H         1 DWF         0.0496
@<TRIPOS>BOND
     1    1    2 ar 
     2    5    1 ar 
     3    1   19 1  
     4    3    2 ar 
     5    4    3 ar 
     6   18    4 ar 
     7   18    5 ar 
     8    7    6 1  
     9    7    8 2  
    10    7    9 2  
    11   10    7 1  
    12   11   10 1  
    13   12   11 ar 
    14   11   13 ar 
    15   16   12 ar 
    16   14   13 ar 
    17   15   14 ar 
    18   16   15 ar 
    19   17   16 1  
    20   17   18 1  
    21   19   20 1  
    22   20   21 ar 
    23   20   24 ar 
    24   21   22 1  
    25   21   23 ar 
    26   23   26 ar 
    27   24   25 ar 
    28   25   26 ar 
    29   26   27 1  
    30   27   28 am 
    31   28   29 2  
    32   28   30 1  
    33   30   31 1  
    34   30   32 1  
    35   30   33 1  
    36   31   32 2  
    37   33   34 2  
    38   33   35 am 
    39   35   36 1  
    40   36   37 ar 
    41   36   42 ar 
    42   37   38 ar 
    43   38   39 ar 
    44   39   40 1  
    45   39   41 ar 
    46   41   42 ar 
    47    2   43 1  
    48    3   44 1  
    49    6   45 1  
    50    6   46 1  
    51    6   47 1  
    52   10   48 1  
    53   10   49 1  
    54   12   50 1  
    55   13   51 1  
    56   14   52 1  
    57   15   53 1  
    58   17   54 1  
    59   23   55 1  
    60   24   56 1  
    61   25   57 1  
    62   27   58 1  
    63   31   59 1  
    64   32   60 1  
    65   35   61 1  
    66   37   62 1  
    67   38   63 1  
    68   41   64 1  
    69   42   65 1  
@<TRIPOS>SUBSTRUCTURE
     1 DWF         1

