### 
### Created by X-TOOL on Mon Sep 10 21:13:18 2018
### 

@<TRIPOS>MOLECULE
4my6_ligand
   87    93     1     0     0
SMALL
GAST_HUCK


@<TRIPOS>ATOM
      1 C32        20.9950   -8.6690  -17.3670 C.2       1 3VH         0.1752
      2 O5         21.1490   -9.7410  -16.7700 O.2       1 3VH        -0.3972
      3 C33        20.7270   -8.6650  -18.8460 C.3       1 3VH         0.0258
      4 CL         24.0640   -9.5550  -13.9650 Cl        1 3VH        -0.0772
      5 C15        24.4720   -8.9890  -15.5390 C.ar      1 3VH         0.0414
      6 C19        25.3810   -9.7580  -16.3060 C.ar      1 3VH        -0.0546
      7 C18        25.7120   -9.2810  -17.5660 C.ar      1 3VH        -0.0682
      8 C17        25.1970   -8.0910  -18.0780 C.ar      1 3VH        -0.0684
      9 C16        24.2970   -7.3180  -17.2960 C.ar      1 3VH        -0.0595
     10 C14        23.9600   -7.7500  -16.0060 C.ar      1 3VH        -0.0245
     11 C13        22.9810   -6.9540  -15.1660 C.3       1 3VH         0.0220
     12 C12        21.5230   -7.4530  -15.2960 C.3       1 3VH         0.1393
     13 N4         21.0700   -7.4650  -16.7200 N.am      1 3VH        -0.2641
     14 C11        20.6400   -6.5130  -14.5610 C.2       1 3VH         0.1941
     15 O4         20.2920   -5.4710  -15.0640 O.2       1 3VH        -0.3954
     16 N5         20.2740   -6.8100  -13.2720 N.am      1 3VH        -0.3091
     17 C30        20.6160   -8.0600  -12.5670 C.3       1 3VH         0.0196
     18 C29        20.3000   -7.7250  -11.1040 C.3       1 3VH        -0.0431
     19 C34        19.1750   -6.7160  -11.1890 C.3       1 3VH        -0.0572
     20 C35        19.4970   -5.8610  -12.4310 C.3       1 3VH         0.0974
     21 C31        20.3740   -4.6990  -12.0720 C.2       1 3VH         0.1734
     22 O3         21.6160   -4.7110  -12.0360 O.2       1 3VH        -0.3756
     23 N3         19.7340   -3.5420  -11.7770 N.am      1 3VH        -0.2279
     24 C26        18.2340   -5.4310  -13.1550 C.2       1 3VH        -0.0496
     25 C28        17.6380   -4.2430  -12.9030 C.2       1 3VH         0.0132
     26 C27        18.2850   -3.3060  -11.9120 C.3       1 3VH         0.1228
     27 C24        18.1550   -1.8210  -12.2470 C.3       1 3VH         0.0024
     28 C9         19.3780   -1.2160  -11.5350 C.3       1 3VH        -0.0049
     29 C10        20.4600   -2.3030  -11.4820 C.3       1 3VH         0.1386
     30 C20        21.0890   -2.3760  -10.1140 C.2       1 3VH         0.2072
     31 O6         20.7270   -3.2250   -9.2940 O.2       1 3VH        -0.3941
     32 N2         22.0920   -1.4860   -9.8070 N.am      1 3VH        -0.2478
     33 C22        22.7160   -0.5270  -10.7890 C.3       1 3VH         0.0389
     34 C23        24.1050   -0.2480  -10.2500 C.3       1 3VH        -0.0186
     35 C8         23.8190   -0.3060   -8.7450 C.3       1 3VH         0.0181
     36 C21        22.8400   -1.4820   -8.5560 C.3       1 3VH         0.1432
     37 C25        21.9740   -1.2590   -7.3430 C.2       1 3VH         0.2100
     38 O7         20.7500   -0.9780   -7.3840 O.2       1 3VH        -0.3939
     39 C7         25.0100   -0.5090   -7.8730 C.2       1 3VH        -0.0890
     40 C6         25.0730   -1.1990   -6.7110 C.2       1 3VH        -0.0730
     41 C5         23.9960   -1.9440   -6.0000 C.3       1 3VH         0.0643
     42 C4         24.3050   -1.9910   -4.4970 C.3       1 3VH        -0.0192
     43 C3         23.0310   -1.6200   -3.7720 C.3       1 3VH        -0.0139
     44 C2         21.9630   -1.2710   -4.8160 C.3       1 3VH         0.0993
     45 N1         22.6110   -1.3860   -6.1380 N.am      1 3VH        -0.2443
     46 C1         21.5240    0.1300   -4.5540 C.2       1 3VH         0.0605
     47 O2         20.5060    0.3100   -3.8070 O.co2     1 3VH        -0.5666
     48 O1         22.1980    1.0570   -5.0850 O.co2     1 3VH        -0.5666
     49 H1         20.6192   -7.6278  -19.1963 H         1 3VH         0.0467
     50 H2         19.7999   -9.2199  -19.0522 H         1 3VH         0.0467
     51 H3         21.5658   -9.1443  -19.3720 H         1 3VH         0.0467
     52 H4         25.8009  -10.6815  -15.9241 H         1 3VH         0.0605
     53 H5         26.3983   -9.8565  -18.1766 H         1 3VH         0.0559
     54 H6         25.4821   -7.7567  -19.0690 H         1 3VH         0.0601
     55 H7         23.8748   -6.4022  -17.6937 H         1 3VH         0.0557
     56 H8         23.0205   -5.9021  -15.4852 H         1 3VH         0.0475
     57 H9         23.2836   -7.0287  -14.1111 H         1 3VH         0.0475
     58 H10        21.4421   -8.4649  -14.8724 H         1 3VH         0.0823
     59 H11        20.8279   -6.6152  -17.1883 H         1 3VH         0.1884
     60 H12        21.6799   -8.3085  -12.6953 H         1 3VH         0.0508
     61 H13        19.9983   -8.8974  -12.9236 H         1 3VH         0.0508
     62 H14        21.1781   -7.2891  -10.6051 H         1 3VH         0.0273
     63 H15        19.9772   -8.6242  -10.5588 H         1 3VH         0.0273
     64 H16        19.1485   -6.0897  -10.2851 H         1 3VH         0.0137
     65 H17        18.2076   -7.2252  -11.3107 H         1 3VH         0.0137
     66 H18        17.7959   -6.0967  -13.8972 H         1 3VH         0.0510
     67 H19        16.7111   -3.9685  -13.4044 H         1 3VH         0.1562
     68 H20        17.8029   -3.4853  -10.9397 H         1 3VH         0.1001
     69 H21        17.2171   -1.4040  -11.8514 H         1 3VH         0.0347
     70 H22        18.2023   -1.6519  -13.3329 H         1 3VH         0.0347
     71 H23        19.1050   -0.9068  -10.5153 H         1 3VH         0.0317
     72 H24        19.7471   -0.3447  -12.0959 H         1 3VH         0.0317
     73 H25        21.2392   -2.1152  -12.2354 H         1 3VH         0.0807
     74 H26        22.1306    0.4026  -10.8444 H         1 3VH         0.0526
     75 H27        22.7752   -0.9832  -11.7882 H         1 3VH         0.0526
     76 H28        24.4720    0.7420  -10.5585 H         1 3VH         0.0309
     77 H29        24.8260   -1.0191  -10.5591 H         1 3VH         0.0309
     78 H30        23.3359    0.6349   -8.4429 H         1 3VH         0.0471
     79 H31        23.3844   -2.4300   -8.4337 H         1 3VH         0.0826
     80 H32        25.9375   -0.0485   -8.2102 H         1 3VH         0.0456
     81 H33        26.0484   -1.2118   -6.2270 H         1 3VH         0.0473
     82 H34        23.9885   -2.9690   -6.3992 H         1 3VH         0.0684
     83 H35        25.1016   -1.2729   -4.2524 H         1 3VH         0.0309
     84 H36        24.6228   -3.0037   -4.2081 H         1 3VH         0.0309
     85 H37        23.2130   -0.7513   -3.1222 H         1 3VH         0.0308
     86 H38        22.6902   -2.4694   -3.1618 H         1 3VH         0.0308
     87 H39        21.1052   -1.9564   -4.7495 H         1 3VH         0.0730
@<TRIPOS>BOND
     1    1    2 2  
     2    1    3 1  
     3   13    1 am 
     4    5    4 1  
     5    5    6 ar 
     6   10    5 ar 
     7    6    7 ar 
     8    8    7 ar 
     9    9    8 ar 
    10   10    9 ar 
    11   11   10 1  
    12   12   11 1  
    13   12   13 1  
    14   12   14 1  
    15   14   15 2  
    16   14   16 am 
    17   16   17 1  
    18   16   20 1  
    19   17   18 1  
    20   18   19 1  
    21   19   20 1  
    22   20   21 1  
    23   20   24 1  
    24   21   22 2  
    25   21   23 am 
    26   23   26 1  
    27   23   29 1  
    28   24   25 2  
    29   25   26 1  
    30   26   27 1  
    31   27   28 1  
    32   28   29 1  
    33   29   30 1  
    34   30   31 2  
    35   30   32 am 
    36   32   33 1  
    37   32   36 1  
    38   33   34 1  
    39   34   35 1  
    40   35   36 1  
    41   35   39 1  
    42   36   37 1  
    43   37   38 2  
    44   37   45 am 
    45   39   40 2  
    46   40   41 1  
    47   41   42 1  
    48   41   45 1  
    49   42   43 1  
    50   43   44 1  
    51   44   45 1  
    52   44   46 1  
    53   46   47 ar 
    54   46   48 ar 
    55    3   49 1  
    56    3   50 1  
    57    3   51 1  
    58    6   52 1  
    59    7   53 1  
    60    8   54 1  
    61    9   55 1  
    62   11   56 1  
    63   11   57 1  
    64   12   58 1  
    65   13   59 1  
    66   17   60 1  
    67   17   61 1  
    68   18   62 1  
    69   18   63 1  
    70   19   64 1  
    71   19   65 1  
    72   24   66 1  
    73   25   67 1  
    74   26   68 1  
    75   27   69 1  
    76   27   70 1  
    77   28   71 1  
    78   28   72 1  
    79   29   73 1  
    80   33   74 1  
    81   33   75 1  
    82   34   76 1  
    83   34   77 1  
    84   35   78 1  
    85   36   79 1  
    86   39   80 1  
    87   40   81 1  
    88   41   82 1  
    89   42   83 1  
    90   42   84 1  
    91   43   85 1  
    92   43   86 1  
    93   44   87 1  
@<TRIPOS>SUBSTRUCTURE
     1 3VH         1

