### 
### Created by X-TOOL on Mon Sep 10 21:13:16 2018
### 

@<TRIPOS>MOLECULE
4myd_ligand
   27    27     1     0     0
SMALL
GAST_HUCK


@<TRIPOS>ATOM
      1 O1         23.4220   76.2480   11.7760 O.co2     1 164        -0.5658
      2 C7         24.4100   75.5300   11.9730 C.2       1 164         0.0536
      3 O2         24.5120   74.4810   12.6240 O.co2     1 164        -0.5658
      4 C2         25.6720   75.9730   11.2300 C.3       1 164         0.0842
      5 C3         26.1440   77.3360   11.7490 C.3       1 164         0.1100
      6 C4         27.0820   77.2430   12.9060 C.2       1 164        -0.0426
      7 C5         27.8720   76.1770   13.0620 C.2       1 164        -0.0715
      8 C6         27.8030   75.0680   12.1370 C.2       1 164        -0.0645
      9 O9         26.7120   78.0780   10.7150 O.3       1 164        -0.3724
     10 C1         26.7790   74.9430   11.2610 C.2       1 164         0.0220
     11 C8         26.7670   73.8210   10.3060 C.2       1 164         0.1245
     12 O3         25.7860   73.7520    9.5230 O.2       1 164        -0.3873
     13 C9         27.8870   72.8000   10.2930 C.3       1 164         0.0314
     14 C10        29.1360   73.3130    9.6460 C.3       1 164         0.0149
     15 C11        30.2040   72.2960    9.2840 C.2       1 164         0.0369
     16 O5         29.9310   71.0850    9.4120 O.co2     1 164        -0.5689
     17 O4         31.2420   72.8800    8.8780 O.co2     1 164        -0.5689
     18 H          25.3934   76.1046   10.1741 H         1 164         0.0670
     19 H          25.2520   77.8765   12.0986 H         1 164         0.0843
     20 H          27.1230   78.0538   13.6318 H         1 164         0.0752
     21 H          28.5744   76.1431   13.8935 H         1 164         0.0439
     22 H          28.5918   74.3172   12.1453 H         1 164         0.0552
     23 H          26.9063   78.9545   11.0254 H         1 164         0.2144
     24 H          27.5456   71.9116    9.7415 H         1 164         0.0496
     25 H          28.1191   72.5204   11.3312 H         1 164         0.0496
     26 H          29.5914   74.0380   10.3365 H         1 164         0.0454
     27 H          28.8406   73.8255    8.7186 H         1 164         0.0454
@<TRIPOS>BOND
     1    1    2 ar 
     2    2    3 ar 
     3    2    4 1  
     4    4    5 1  
     5    4   10 1  
     6    5    6 1  
     7    5    9 1  
     8    6    7 2  
     9    7    8 1  
    10    8   10 2  
    11   10   11 1  
    12   11   12 2  
    13   11   13 1  
    14   13   14 1  
    15   14   15 1  
    16   15   16 ar 
    17   15   17 ar 
    18    4   18 1  
    19    5   19 1  
    20    6   20 1  
    21    7   21 1  
    22    8   22 1  
    23    9   23 1  
    24   13   24 1  
    25   13   25 1  
    26   14   26 1  
    27   14   27 1  
@<TRIPOS>SUBSTRUCTURE
     1 164         1

