### 
### Created by X-TOOL on Mon Sep 10 21:13:20 2018
### 

@<TRIPOS>MOLECULE
4myh_ligand
   36    35     1     0     0
SMALL
GAST_HUCK


@<TRIPOS>ATOM
      1 N1         49.2940  -60.7770  -92.4120 N.4       1 GSH         0.2328
      2 CA1        48.2180  -59.9210  -91.9700 C.3       1 GSH         0.0304
      3 C1         46.9120  -60.4880  -92.4440 C.2       1 GSH         0.0846
      4 O11        46.0750  -60.9780  -91.6090 O.co2     1 GSH        -0.5643
      5 O12        46.6260  -60.4550  -93.6950 O.co2     1 GSH        -0.5643
      6 CB1        48.4300  -58.4990  -92.4360 C.3       1 GSH         0.0193
      7 CG1        48.6640  -57.5370  -91.2930 C.3       1 GSH         0.0441
      8 CD1        48.2690  -56.1430  -91.7890 C.2       1 GSH         0.1785
      9 OE1        49.1190  -55.2200  -91.7290 O.2       1 GSH        -0.3969
     10 N2         46.9190  -55.9620  -92.3020 N.am      1 GSH        -0.2648
     11 CA2        46.3830  -54.7170  -92.8240 C.3       1 GSH         0.1395
     12 C2         45.7070  -53.7730  -91.8220 C.2       1 GSH         0.2039
     13 O2         44.8760  -52.9380  -92.1900 O.2       1 GSH        -0.3944
     14 CB2        45.6420  -54.9130  -94.1330 C.3       1 GSH         0.0311
     15 SG2        46.5580  -54.1030  -95.3970 S.3       1 GSH        -0.1735
     16 N3         46.0900  -53.8470  -90.4230 N.am      1 GSH        -0.2722
     17 CA3        45.5140  -52.9750  -89.4140 C.3       1 GSH         0.0833
     18 C3         46.2500  -51.6570  -89.4160 C.2       1 GSH         0.0570
     19 O31        45.6490  -50.5860  -89.0790 O.co2     1 GSH        -0.5669
     20 O32        47.4650  -51.6180  -89.7490 O.co2     1 GSH        -0.5669
     21 H          50.1741  -60.4006  -92.0962 H         1 GSH         0.2010
     22 H          49.2918  -60.8268  -93.4188 H         1 GSH         0.2010
     23 H          49.1671  -61.7009  -92.0295 H         1 GSH         0.2010
     24 H          48.2091  -59.9153  -90.8701 H         1 GSH         0.1026
     25 H          47.5378  -58.1744  -92.9916 H         1 GSH         0.0363
     26 H          49.3056  -58.4739  -93.1014 H         1 GSH         0.0363
     27 H          49.7248  -57.5474  -91.0024 H         1 GSH         0.0505
     28 H          48.0444  -57.8196  -90.4292 H         1 GSH         0.0505
     29 H          46.3128  -56.7573  -92.2945 H         1 GSH         0.1883
     30 H          47.2831  -54.1563  -93.1164 H         1 GSH         0.0808
     31 H          44.6352  -54.4756  -94.0620 H         1 GSH         0.0422
     32 H          45.5604  -55.9863  -94.3596 H         1 GSH         0.0422
     33 H          46.0852  -54.2187  -96.2797 H         1 GSH         0.1019
     34 H          46.7738  -54.5215  -90.1447 H         1 GSH         0.1873
     35 H          45.6068  -53.4463  -88.4244 H         1 GSH         0.0689
     36 H          44.4513  -52.8029  -89.6400 H         1 GSH         0.0689
@<TRIPOS>BOND
     1    1    2 1  
     2    2    3 1  
     3    2    6 1  
     4    3    4 ar 
     5    3    5 ar 
     6    6    7 1  
     7    7    8 1  
     8    8    9 2  
     9    8   10 am 
    10   10   11 1  
    11   11   12 1  
    12   11   14 1  
    13   12   13 2  
    14   12   16 am 
    15   14   15 1  
    16   16   17 1  
    17   17   18 1  
    18   18   19 ar 
    19   18   20 ar 
    20    1   21 1  
    21    1   22 1  
    22    1   23 1  
    23    2   24 1  
    24    6   25 1  
    25    6   26 1  
    26    7   27 1  
    27    7   28 1  
    28   10   29 1  
    29   11   30 1  
    30   14   31 1  
    31   14   32 1  
    32   15   33 1  
    33   16   34 1  
    34   17   35 1  
    35   17   36 1  
@<TRIPOS>SUBSTRUCTURE
     1 GSH         1

