### 
### Created by X-TOOL on Mon Sep 10 21:13:18 2018
### 

@<TRIPOS>MOLECULE
4myq_ligand
   43    45     1     0     0
SMALL
GAST_HUCK


@<TRIPOS>ATOM
      1 C2        -17.7070   32.6790   -7.6990 C.ar      1 19T         0.0958
      2 C4        -16.9960   30.5010   -7.3390 C.ar      1 19T         0.0250
      3 C5        -15.7960   31.0330   -6.8280 C.ar      1 19T         0.0273
      4 C9        -19.8550   35.5620   -8.9820 C.2       1 19T         0.1029
      5 O26       -15.3430   38.8990   -3.7860 O.co2     1 19T        -0.5667
      6 C24       -14.7370   39.1950   -4.8370 C.2       1 19T         0.0446
      7 O25       -15.0800   40.1180   -5.5630 O.co2     1 19T        -0.5667
      8 C23       -13.4800   38.4800   -5.2500 C.3       1 19T         0.0283
      9 C20       -13.7920   37.0090   -5.5720 C.ar      1 19T        -0.0413
     10 C19       -14.5480   36.6580   -6.7060 C.ar      1 19T        -0.0679
     11 C18       -14.7710   35.2800   -7.0210 C.ar      1 19T        -0.0446
     12 C21       -13.2520   36.0210   -4.7830 C.ar      1 19T        -0.0679
     13 C22       -13.4460   34.6950   -5.0770 C.ar      1 19T        -0.0446
     14 C17       -14.2120   34.2950   -6.1650 C.ar      1 19T         0.0559
     15 N16       -14.4410   32.9480   -6.3630 N.pl3     1 19T        -0.2625
     16 C6        -15.5980   32.4320   -6.8220 C.ar      1 19T         0.1361
     17 C14       -14.7000   30.1180   -6.3430 C.3       1 19T        -0.0182
     18 C15       -13.6440   29.9980   -7.4360 C.3       1 19T        -0.0566
     19 C13       -17.2150   28.9930   -7.4070 C.3       1 19T        -0.0168
     20 N3        -17.9370   31.3340   -7.7830 N.ar      1 19T        -0.2939
     21 N7        -16.5420   33.1910   -7.2460 N.ar      1 19T        -0.2690
     22 C7        -18.6340   33.6030   -8.2230 C.2       1 19T         0.0627
     23 C11       -19.8080   33.2590   -8.8600 C.2       1 19T        -0.0580
     24 C10       -20.5170   34.4050   -9.2950 C.2       1 19T        -0.0516
     25 S8        -18.4040   35.2560   -8.1820 S.3       1 19T        -0.0185
     26 CL1       -20.4560   37.2330   -9.3890 Cl        1 19T        -0.0487
     27 H         -12.7487   38.5259   -4.4296 H         1 19T         0.0567
     28 H         -13.0606   38.9670   -6.1427 H         1 19T         0.0567
     29 H         -14.9619   37.4324   -7.3416 H         1 19T         0.0532
     30 H         -15.3519   34.9956   -7.8909 H         1 19T         0.0519
     31 H         -12.6635   36.2941   -3.9146 H         1 19T         0.0532
     32 H         -12.9906   33.9411   -4.4451 H         1 19T         0.0519
     33 H         -13.6760   32.2935   -6.1452 H         1 19T         0.2120
     34 H         -15.1179   29.1249   -6.1215 H         1 19T         0.0405
     35 H         -14.2448   30.5356   -5.4329 H         1 19T         0.0405
     36 H         -12.8374   29.3324   -7.0950 H         1 19T         0.0250
     37 H         -13.2298   30.9929   -7.6565 H         1 19T         0.0250
     38 H         -14.1028   29.5821   -8.3451 H         1 19T         0.0250
     39 H         -18.2074   28.7855   -7.8338 H         1 19T         0.0421
     40 H         -17.1552   28.5677   -6.3943 H         1 19T         0.0421
     41 H         -16.4405   28.5382   -8.0420 H         1 19T         0.0421
     42 H         -20.1470   32.2350   -9.0096 H         1 19T         0.0513
     43 H         -21.4730   34.3703   -9.8154 H         1 19T         0.0456
@<TRIPOS>BOND
     1    1   20 ar 
     2    1   21 ar 
     3   22    1 1  
     4    2    3 ar 
     5    2   19 1  
     6   20    2 ar 
     7   16    3 ar 
     8    3   17 1  
     9    4   24 2  
    10   25    4 1  
    11    4   26 1  
    12    6    5 ar 
    13    6    7 ar 
    14    8    6 1  
    15    9    8 1  
    16   10    9 ar 
    17   12    9 ar 
    18   11   10 ar 
    19   14   11 ar 
    20   13   12 ar 
    21   14   13 ar 
    22   15   14 1  
    23   16   15 1  
    24   21   16 ar 
    25   17   18 1  
    26   22   23 2  
    27   22   25 1  
    28   23   24 1  
    29    8   27 1  
    30    8   28 1  
    31   10   29 1  
    32   11   30 1  
    33   12   31 1  
    34   13   32 1  
    35   15   33 1  
    36   17   34 1  
    37   17   35 1  
    38   18   36 1  
    39   18   37 1  
    40   18   38 1  
    41   19   39 1  
    42   19   40 1  
    43   19   41 1  
    44   23   42 1  
    45   24   43 1  
@<TRIPOS>SUBSTRUCTURE
     1 19T         1

