### 
### Created by X-TOOL on Mon Sep 10 21:13:13 2018
### 

@<TRIPOS>MOLECULE
4mz4_ligand
   49    53     1     0     0
SMALL
GAST_HUCK


@<TRIPOS>ATOM
      1 C1         28.8710   43.3020   41.5260 C.ar      1 2F3         0.0424
      2 C2         27.6340   43.1240   40.8470 C.ar      1 2F3        -0.0006
      3 C3         27.5450   43.3270   39.4470 C.ar      1 2F3        -0.0496
      4 C7         26.6270   42.5670   43.0020 C.ar      1 2F3         0.0158
      5 C8         26.5240   42.7520   41.6090 C.ar      1 2F3        -0.0325
      6 C9         27.8910   42.7400   43.5590 C.ar      1 2F3         0.0177
      7 C10        23.0380   45.9050   46.0710 C.2       1 2F3         0.0244
      8 C11        24.2840   43.8180   48.2010 C.ar      1 2F3        -0.0713
      9 C12        24.9310   42.7620   48.8860 C.ar      1 2F3        -0.0261
     10 C13        24.3340   43.8570   46.7790 C.ar      1 2F3        -0.0218
     11 C14        25.0040   42.8220   46.0880 C.ar      1 2F3         0.0647
     12 C15        24.2000   44.2660   44.5300 C.2       1 2F3         0.1007
     13 C16        23.8270   44.7390   45.7930 C.2       1 2F3        -0.0046
     14 C19        23.9150   44.9160   43.2530 C.2       1 2F3         0.0840
     15 C20        25.4250   42.1380   43.7570 C.3       1 2F3         0.0900
     16 C21        21.7220   46.0860   45.3350 C.2       1 2F3         0.1713
     17 C22        21.3690   48.1240   46.6100 C.2       1 2F3         0.0380
     18 C24        23.3710   46.8190   47.0080 C.2       1 2F3        -0.0365
     19 C4         28.6770   43.7050   38.7230 C.ar      1 2F3        -0.0583
     20 C5         29.8850   43.8880   39.3800 C.ar      1 2F3        -0.0580
     21 C6         29.9780   43.6880   40.7660 C.ar      1 2F3        -0.0418
     22 N1         28.9940   43.1070   42.8640 N.ar      1 2F3        -0.2982
     23 N2         24.8900   43.0740   44.7520 N.pl3     1 2F3        -0.2486
     24 C17        25.6070   41.7860   48.1480 C.ar      1 2F3         0.1224
     25 C18        25.6430   41.7770   46.7580 C.ar      1 2F3        -0.0120
     26 O1         23.9020   46.1230   43.0820 O.co2     1 2F3        -0.5607
     27 N3         20.9840   47.2090   45.6630 N.2       1 2F3        -0.2516
     28 C23        22.5200   47.9710   47.2860 C.3       1 2F3         0.0463
     29 O2         21.3470   45.2720   44.4740 O.2       1 2F3        -0.3929
     30 O3         23.5850   44.0490   42.2770 O.co2     1 2F3        -0.5607
     31 C25        24.9260   42.6810   50.3950 C.3       1 2F3        -0.0356
     32 F1         26.2570   40.8090   48.7960 F         1 2F3        -0.1941
     33 H1         26.5977   43.1887   38.9385 H         1 2F3         0.0635
     34 H2         25.5677   42.6032   41.1207 H         1 2F3         0.0681
     35 H3         28.0001   42.5690   44.6238 H         1 2F3         0.0835
     36 H4         23.7567   44.5879   48.7526 H         1 2F3         0.0474
     37 H5         25.6793   41.2058   44.2826 H         1 2F3         0.0774
     38 H6         24.6275   41.9408   43.0256 H         1 2F3         0.0774
     39 H7         20.7342   48.9845   46.8162 H         1 2F3         0.1320
     40 H8         24.2959   46.6932   47.5689 H         1 2F3         0.0787
     41 H9         28.6124   43.8550   37.6514 H         1 2F3         0.0635
     42 H10        30.7630   44.1875   38.8191 H         1 2F3         0.0634
     43 H11        30.9320   43.8366   41.2589 H         1 2F3         0.0639
     44 H12        26.1488   40.9873   46.2143 H         1 2F3         0.0517
     45 H13        22.2599   47.9257   48.3538 H         1 2F3         0.0792
     46 H14        23.1253   48.8691   47.0938 H         1 2F3         0.0792
     47 H15        24.3509   43.5241   50.8055 H         1 2F3         0.0365
     48 H16        25.9598   42.7262   50.7681 H         1 2F3         0.0365
     49 H17        24.4636   41.7339   50.7099 H         1 2F3         0.0365
@<TRIPOS>BOND
     1    2    1 ar 
     2    1   21 ar 
     3   22    1 ar 
     4    2    3 ar 
     5    5    2 ar 
     6    3   19 ar 
     7    4    5 ar 
     8    4    6 ar 
     9   15    4 1  
    10    6   22 ar 
    11   13    7 1  
    12    7   16 1  
    13    7   18 2  
    14    8    9 ar 
    15   10    8 ar 
    16    9   24 ar 
    17    9   31 1  
    18   11   10 ar 
    19   13   10 1  
    20   23   11 1  
    21   11   25 ar 
    22   12   13 2  
    23   12   14 1  
    24   23   12 1  
    25   14   26 ar 
    26   14   30 ar 
    27   15   23 1  
    28   16   27 1  
    29   16   29 2  
    30   27   17 2  
    31   17   28 1  
    32   18   28 1  
    33   19   20 ar 
    34   20   21 ar 
    35   24   25 ar 
    36   24   32 1  
    37    3   33 1  
    38    5   34 1  
    39    6   35 1  
    40    8   36 1  
    41   15   37 1  
    42   15   38 1  
    43   17   39 1  
    44   18   40 1  
    45   19   41 1  
    46   20   42 1  
    47   21   43 1  
    48   25   44 1  
    49   28   45 1  
    50   28   46 1  
    51   31   47 1  
    52   31   48 1  
    53   31   49 1  
@<TRIPOS>SUBSTRUCTURE
     1 2F3         1

