### 
### Created by X-TOOL on Mon Sep 10 21:13:18 2018
### 

@<TRIPOS>MOLECULE
4n00_ligand
   48    52     1     0     0
SMALL
GAST_HUCK


@<TRIPOS>ATOM
      1 C1         27.6130   17.0160    9.9950 C.ar      1 2EX         0.0488
      2 C2         28.5940   17.6570    9.1870 C.ar      1 2EX        -0.0399
      3 C3         29.1120   18.9080    9.6160 C.ar      1 2EX        -0.0422
      4 C4         28.6120   19.4820   10.8160 C.ar      1 2EX         0.0039
      5 N5         27.6640   18.8850   11.5690 N.ar      1 2EX        -0.2657
      6 C6         27.1780   17.6880   11.1680 C.ar      1 2EX         0.2208
      7 C7         27.0790   15.7830    9.5460 C.ar      1 2EX         0.0080
      8 C8         27.9290   14.7110    9.1580 C.ar      1 2EX        -0.0321
      9 C9         27.3670   13.5060    8.6700 C.ar      1 2EX         0.0030
     10 C10        25.9610   13.3680    8.5470 C.ar      1 2EX         0.1312
     11 C11        25.1000   14.4270    8.9380 C.ar      1 2EX         0.0377
     12 C12        25.6680   15.6320    9.4230 C.ar      1 2EX        -0.0347
     13 O13        25.4630   12.1740    8.0810 O.3       1 2EX        -0.2872
     14 C14        24.1320   12.1150    7.5820 C.3       1 2EX         0.0945
     15 C15        23.1620   12.8220    8.5550 C.3       1 2EX         0.0417
     16 C16        23.5710   14.2920    8.7970 C.3       1 2EX         0.1823
     17 C17        23.7260   10.6320    7.4370 C.3       1 2EX         0.0028
     18 C18        22.2430   10.5430    7.0040 C.3       1 2EX         0.0505
     19 O19        21.4150   11.2270    7.9470 O.3       1 2EX        -0.3801
     20 C20        21.6920   12.6270    8.0940 C.3       1 2EX         0.0488
     21 N21        22.8280   14.8520    9.9280 N.pl3     1 2EX        -0.2695
     22 C22        22.1570   15.8900    9.5460 C.cat     1 2EX         0.3203
     23 N23        22.3130   16.2030    8.2300 N.am      1 2EX        -0.2187
     24 C24        23.1480   15.2780    7.6870 C.2       1 2EX         0.2072
     25 O25        23.5380   15.2160    6.5160 O.2       1 2EX        -0.3658
     26 N26        21.3200   16.6680   10.3210 N.pl3     1 2EX        -0.2548
     27 C27        21.6930   17.3150    7.5020 C.3       1 2EX         0.0236
     28 F28        26.2430   17.1320   11.9580 F         1 2EX        -0.1521
     29 H          28.9378   17.2010    8.2656 H         1 2EX         0.0710
     30 H          29.8755   19.4161    9.0381 H         1 2EX         0.0646
     31 H          29.0079   20.4378   11.1397 H         1 2EX         0.0789
     32 H          29.0051   14.8159    9.2356 H         1 2EX         0.0840
     33 H          28.0156   12.6842    8.3888 H         1 2EX         0.0635
     34 H          25.0176   16.4521    9.7049 H         1 2EX         0.0796
     35 H          24.0861   12.6087    6.6001 H         1 2EX         0.0669
     36 H          23.2532   12.3140    9.5264 H         1 2EX         0.0282
     37 H          23.8576   10.1198    8.4015 H         1 2EX         0.0318
     38 H          24.3593   10.1511    6.6770 H         1 2EX         0.0318
     39 H          21.9412    9.4864    6.9538 H         1 2EX         0.0561
     40 H          22.1247   11.0056    6.0130 H         1 2EX         0.0561
     41 H          21.5407   13.1333    7.1292 H         1 2EX         0.0555
     42 H          21.0128   13.0576    8.8445 H         1 2EX         0.0555
     43 H          22.8382   14.4749   10.8865 H         1 2EX         0.3096
     44 H          21.1889   16.4473   11.3185 H         1 2EX         0.3199
     45 H          20.8267   17.4690    9.9016 H         1 2EX         0.3199
     46 H          21.0678   17.9013    8.1914 H         1 2EX         0.0484
     47 H          21.0683   16.9177    6.6884 H         1 2EX         0.0484
     48 H          22.4778   17.9601    7.0802 H         1 2EX         0.0484
@<TRIPOS>BOND
     1    1    2 ar 
     2    1    6 ar 
     3    1    7 1  
     4    2    3 ar 
     5    3    4 ar 
     6    4    5 ar 
     7    5    6 ar 
     8    6   28 1  
     9    7    8 ar 
    10    7   12 ar 
    11    8    9 ar 
    12    9   10 ar 
    13   10   11 ar 
    14   10   13 1  
    15   11   12 ar 
    16   11   16 1  
    17   13   14 1  
    18   14   15 1  
    19   14   17 1  
    20   15   16 1  
    21   15   20 1  
    22   16   21 1  
    23   16   24 1  
    24   17   18 1  
    25   18   19 1  
    26   19   20 1  
    27   21   22 ar 
    28   22   23 ar 
    29   22   26 ar 
    30   23   24 am 
    31   23   27 1  
    32   24   25 2  
    33    2   29 1  
    34    3   30 1  
    35    4   31 1  
    36    8   32 1  
    37    9   33 1  
    38   12   34 1  
    39   14   35 1  
    40   15   36 1  
    41   17   37 1  
    42   17   38 1  
    43   18   39 1  
    44   18   40 1  
    45   20   41 1  
    46   20   42 1  
    47   21   43 1  
    48   26   44 1  
    49   26   45 1  
    50   27   46 1  
    51   27   47 1  
    52   27   48 1  
@<TRIPOS>SUBSTRUCTURE
     1 2EX         1

