### 
### Created by X-TOOL on Mon Sep 10 21:13:13 2018
### 

@<TRIPOS>MOLECULE
4n07_ligand
   27    29     1     0     0
SMALL
GAST_HUCK


@<TRIPOS>ATOM
      1 CAG         5.1010   -1.3990   43.5440 C.3       1 2J9        -0.0285
      2 CAH         6.0740   -2.3840   42.8900 C.3       1 2J9        -0.0285
      3 CAN         4.6010   -2.7790   43.1110 C.3       1 2J9         0.0389
      4 NAO         3.5560   -3.0070   42.0460 N.pl3     1 2J9        -0.2895
      5 CAI         4.0160   -4.0210   41.0710 C.3       1 2J9         0.1058
      6 NAJ         3.5070   -3.7250   39.7030 N.am      1 2J9        -0.2282
      7 SAP         1.8630   -3.8130   39.6760 S.o2      1 2J9         0.0654
      8 OAA         1.4130   -5.2670   39.7860 O.2       1 2J9        -0.1523
      9 OAB         1.3320   -3.1550   38.4170 O.2       1 2J9        -0.1523
     10 CAM         1.3180   -2.9660   41.1100 C.ar      1 2J9         0.1237
     11 CAL         2.2450   -2.6600   42.1510 C.ar      1 2J9         0.0647
     12 CAE         1.7920   -1.9940   43.3040 C.ar      1 2J9        -0.0439
     13 CAD         0.4450   -1.6380   43.4190 C.ar      1 2J9        -0.0398
     14 CAK        -0.4540   -1.9520   42.3960 C.ar      1 2J9         0.1198
     15 FAC        -1.7590   -1.5970   42.5490 F         1 2J9        -0.1946
     16 CAF        -0.0490   -2.6310   41.2280 C.ar      1 2J9        -0.0133
     17 H1          4.7778   -0.5015   42.9963 H         1 2J9         0.0288
     18 H2          5.1973   -1.1610   44.6136 H         1 2J9         0.0288
     19 H3          6.8665   -2.8555   43.4897 H         1 2J9         0.0288
     20 H4          6.4470   -2.1960   41.8724 H         1 2J9         0.0288
     21 H5          4.3983   -3.5187   43.8995 H         1 2J9         0.0548
     22 H6          3.6504   -5.0104   41.3832 H         1 2J9         0.0733
     23 H7          5.1158   -4.0261   41.0509 H         1 2J9         0.0733
     24 H8          4.0810   -3.5045   38.9144 H         1 2J9         0.1692
     25 H9          2.4862   -1.7571   44.1022 H         1 2J9         0.0507
     26 H10         0.0970   -1.1172   44.3037 H         1 2J9         0.0571
     27 H11        -0.7599   -2.8861   40.4504 H         1 2J9         0.0591
@<TRIPOS>BOND
     1    1    2 1  
     2    1    3 1  
     3    2    3 1  
     4    3    4 1  
     5    4    5 1  
     6    4   11 1  
     7    5    6 1  
     8    6    7 am 
     9    7    8 2  
    10    7    9 2  
    11    7   10 1  
    12   10   11 ar 
    13   10   16 ar 
    14   11   12 ar 
    15   12   13 ar 
    16   13   14 ar 
    17   14   15 1  
    18   14   16 ar 
    19    1   17 1  
    20    1   18 1  
    21    2   19 1  
    22    2   20 1  
    23    3   21 1  
    24    5   22 1  
    25    5   23 1  
    26    6   24 1  
    27   12   25 1  
    28   13   26 1  
    29   16   27 1  
@<TRIPOS>SUBSTRUCTURE
     1 2J9         1

