### 
### Created by X-TOOL on Mon Sep 10 21:13:20 2018
### 

@<TRIPOS>MOLECULE
4n1b_ligand
   59    63     1     0     0
SMALL
GAST_HUCK


@<TRIPOS>ATOM
      1 C2         16.1620  -23.8440  -32.8680 C.2       1 2FS         0.0404
      2 C4         17.3630  -24.2600  -33.6590 C.3       1 2FS         0.0314
      3 C6         17.6200  -25.7520  -33.5600 C.3       1 2FS        -0.0362
      4 C7         18.8170  -26.0890  -34.4110 C.3       1 2FS        -0.0510
      5 C8         18.4680  -25.7790  -35.8450 C.3       1 2FS        -0.0505
      6 C9         18.2590  -24.2890  -36.0010 C.3       1 2FS        -0.0314
      7 C12        15.8210  -24.0860  -35.6470 C.2       1 2FS         0.1856
      8 O13        15.1940  -25.0650  -35.2670 O.2       1 2FS        -0.3963
      9 C16        14.8460  -21.0070  -35.8380 C.3       1 2FS        -0.0009
     10 C18        13.0630  -22.4180  -36.8840 C.ar      1 2FS        -0.0138
     11 C19        11.7450  -22.5990  -37.2390 C.ar      1 2FS        -0.0646
     12 C20        10.8070  -21.6320  -36.9660 C.ar      1 2FS        -0.0754
     13 C21        11.1840  -20.4720  -36.3330 C.ar      1 2FS        -0.0755
     14 C22        12.4970  -20.2840  -35.9750 C.ar      1 2FS        -0.0667
     15 C27        14.5300  -26.0650  -39.0250 C.3       1 2FS         0.0706
     16 C28        15.7940  -26.7910  -39.2780 C.ar      1 2FS        -0.0003
     17 C29        16.0170  -28.1460  -39.3230 C.ar      1 2FS        -0.0524
     18 C30        17.3020  -28.5840  -39.5810 C.ar      1 2FS        -0.0641
     19 C31        18.3380  -27.6900  -39.7880 C.ar      1 2FS        -0.0630
     20 C32        18.1120  -26.3300  -39.7420 C.ar      1 2FS        -0.0484
     21 O1         15.4070  -24.9040  -32.4690 O.co2     1 2FS        -0.5686
     22 O3         15.8930  -22.6750  -32.6220 O.co2     1 2FS        -0.5686
     23 C10        17.1810  -23.7570  -35.0810 C.3       1 2FS         0.0632
     24 N14        15.3430  -23.2210  -36.6230 N.am      1 2FS        -0.2560
     25 C15        15.7450  -21.8370  -36.7160 C.3       1 2FS         0.0448
     26 C17        13.4360  -21.2520  -36.2460 C.ar      1 2FS        -0.0368
     27 C23        14.0480  -23.4930  -37.2050 C.3       1 2FS         0.0966
     28 C25        14.1500  -23.6040  -38.7120 C.3       1 2FS         0.0674
     29 N26        14.9890  -24.6970  -39.1190 N.am      1 2FS        -0.2572
     30 C33        16.8260  -25.9240  -39.4850 C.ar      1 2FS         0.0535
     31 C34        16.3350  -24.5600  -39.3860 C.2       1 2FS         0.2048
     32 O35        17.0360  -23.5670  -39.5190 O.2       1 2FS        -0.3882
     33 H          18.2435  -23.7548  -33.2354 H         1 2FS         0.0493
     34 H          16.7404  -26.3048  -33.9216 H         1 2FS         0.0287
     35 H          17.8201  -26.0253  -32.5135 H         1 2FS         0.0287
     36 H          19.0602  -27.1568  -34.3080 H         1 2FS         0.0266
     37 H          19.6807  -25.4843  -34.0975 H         1 2FS         0.0266
     38 H          17.5449  -26.3098  -36.1209 H         1 2FS         0.0267
     39 H          19.2886  -26.1050  -36.5010 H         1 2FS         0.0267
     40 H          17.9698  -24.0801  -37.0415 H         1 2FS         0.0293
     41 H          19.2038  -23.7741  -35.7725 H         1 2FS         0.0293
     42 H          15.0883  -19.9410  -35.9601 H         1 2FS         0.0431
     43 H          14.9840  -21.2963  -34.7857 H         1 2FS         0.0431
     44 H          11.4442  -23.5128  -37.7385 H         1 2FS         0.0538
     45 H           9.7718  -21.7842  -37.2495 H         1 2FS         0.0541
     46 H          10.4471  -19.7070  -36.1166 H         1 2FS         0.0541
     47 H          12.7944  -19.3685  -35.4766 H         1 2FS         0.0537
     48 H          14.1251  -26.2899  -38.0273 H         1 2FS         0.0699
     49 H          13.7713  -26.2922  -39.7884 H         1 2FS         0.0699
     50 H          15.2091  -28.8504  -39.1610 H         1 2FS         0.0569
     51 H          17.5024  -29.6485  -39.6220 H         1 2FS         0.0635
     52 H          19.3363  -28.0620  -39.9881 H         1 2FS         0.0572
     53 H          18.9118  -25.6158  -39.9012 H         1 2FS         0.0651
     54 H          17.2729  -22.6612  -35.0531 H         1 2FS         0.0559
     55 H          16.7874  -21.7322  -36.3809 H         1 2FS         0.0545
     56 H          15.6590  -21.4970  -37.7586 H         1 2FS         0.0545
     57 H          13.6791  -24.4464  -36.7989 H         1 2FS         0.0727
     58 H          14.5700  -22.6680  -39.1088 H         1 2FS         0.0568
     59 H          13.1422  -23.7579  -39.1251 H         1 2FS         0.0568
@<TRIPOS>BOND
     1    2    1 1  
     2    1   21 ar 
     3    1   22 ar 
     4    2    3 1  
     5   23    2 1  
     6    3    4 1  
     7    5    4 1  
     8    6    5 1  
     9   23    6 1  
    10    7    8 2  
    11    7   23 1  
    12   24    7 am 
    13   25    9 1  
    14   26    9 1  
    15   10   11 ar 
    16   10   26 ar 
    17   27   10 1  
    18   11   12 ar 
    19   12   13 ar 
    20   14   13 ar 
    21   26   14 ar 
    22   15   16 1  
    23   29   15 1  
    24   16   17 ar 
    25   16   30 ar 
    26   17   18 ar 
    27   18   19 ar 
    28   20   19 ar 
    29   30   20 ar 
    30   24   25 1  
    31   27   24 1  
    32   28   27 1  
    33   28   29 1  
    34   29   31 am 
    35   30   31 1  
    36   31   32 2  
    37    2   33 1  
    38    3   34 1  
    39    3   35 1  
    40    4   36 1  
    41    4   37 1  
    42    5   38 1  
    43    5   39 1  
    44    6   40 1  
    45    6   41 1  
    46    9   42 1  
    47    9   43 1  
    48   11   44 1  
    49   12   45 1  
    50   13   46 1  
    51   14   47 1  
    52   15   48 1  
    53   15   49 1  
    54   17   50 1  
    55   18   51 1  
    56   19   52 1  
    57   20   53 1  
    58   23   54 1  
    59   25   55 1  
    60   25   56 1  
    61   27   57 1  
    62   28   58 1  
    63   28   59 1  
@<TRIPOS>SUBSTRUCTURE
     1 2FS         1

