### 
### Created by X-TOOL on Mon Sep 10 21:13:17 2018
### 

@<TRIPOS>MOLECULE
4n1t_ligand
   27    28     1     0     0
SMALL
GAST_HUCK


@<TRIPOS>ATOM
      1 C13        16.2810  -10.7210    2.6500 C.ar      1 2GD        -0.0020
      2 N01        17.4760  -13.1170    5.7870 N.pl3     1 2GD        -0.3069
      3 C02        17.0860  -12.2500    4.7540 C.ar      1 2GD         0.1672
      4 N03        15.7540  -12.1010    4.4600 N.ar      1 2GD        -0.2715
      5 C04        15.3470  -11.2810    3.4220 C.ar      1 2GD         0.0387
      6 C05        13.8890  -11.2650    3.1270 C.ar      1 2GD         0.0135
      7 C06        13.4250  -11.6570    1.9000 C.ar      1 2GD        -0.0483
      8 C07        12.0300  -11.7020    1.6790 C.ar      1 2GD        -0.0572
      9 C08        11.1680  -11.3390    2.6560 C.ar      1 2GD        -0.0443
     10 C09        11.6610  -10.9470    3.8460 C.ar      1 2GD         0.0583
     11 CL1        10.6300  -10.5160    5.1210 Cl        1 2GD        -0.0692
     12 C11        13.0310  -10.9050    4.0990 C.ar      1 2GD         0.0677
     13 CL2        13.5790  -10.3550    5.6010 Cl        1 2GD        -0.0654
     14 C14        17.6680  -10.8520    3.0430 C.ar      1 2GD         0.1111
     15 N15        18.6820  -10.2420    2.2580 N.pl3     1 2GD        -0.3074
     16 C16        18.3850   -9.4420    1.0840 C.3       1 2GD         0.0175
     17 N17        18.0250  -11.5950    4.0700 N.ar      1 2GD        -0.2451
     18 H          16.0074  -10.1812    1.7506 H         1 2GD         0.0562
     19 H          16.7634  -13.6304    6.3250 H         1 2GD         0.1823
     20 H          18.4748  -13.2397    6.0069 H         1 2GD         0.1823
     21 H          14.1166  -11.9285    1.1107 H         1 2GD         0.0655
     22 H          11.6478  -12.0300    0.7191 H         1 2GD         0.0627
     23 H          10.0980  -11.3633    2.4838 H         1 2GD         0.0649
     24 H          19.6662  -10.3723    2.5323 H         1 2GD         0.1836
     25 H          19.3238   -9.0761    0.6426 H         1 2GD         0.0486
     26 H          17.7576   -8.5859    1.3728 H         1 2GD         0.0486
     27 H          17.8487  -10.0576    0.3469 H         1 2GD         0.0486
@<TRIPOS>BOND
     1    5    1 ar 
     2    1   14 ar 
     3    3    2 1  
     4    4    3 ar 
     5    3   17 ar 
     6    4    5 ar 
     7    5    6 1  
     8    6    7 ar 
     9    6   12 ar 
    10    7    8 ar 
    11    8    9 ar 
    12    9   10 ar 
    13   10   11 1  
    14   10   12 ar 
    15   12   13 1  
    16   14   15 1  
    17   14   17 ar 
    18   15   16 1  
    19    1   18 1  
    20    2   19 1  
    21    2   20 1  
    22    7   21 1  
    23    8   22 1  
    24    9   23 1  
    25   15   24 1  
    26   16   25 1  
    27   16   26 1  
    28   16   27 1  
@<TRIPOS>SUBSTRUCTURE
     1 2GD         1

