### 
### Created by X-TOOL on Mon Sep 10 21:13:17 2018
### 

@<TRIPOS>MOLECULE
4n1u_ligand
   29    31     1     0     0
SMALL
GAST_HUCK


@<TRIPOS>ATOM
      1 C13         0.7230   75.9940   15.3760 C.ar      1 2GE        -0.0020
      2 C17         2.3590   74.5480   18.9490 C.2       1 2GE        -0.0564
      3 N01         3.0900   78.0900   12.8540 N.pl3     1 2GE        -0.3069
      4 C02         2.2970   77.3640   13.7310 C.ar      1 2GE         0.1672
      5 N03         0.9890   77.3550   13.4910 N.ar      1 2GE        -0.2715
      6 C04         0.1560   76.6970   14.3020 C.ar      1 2GE         0.0387
      7 C05        -1.2910   76.6320   13.9570 C.ar      1 2GE         0.0135
      8 C06        -1.6140   76.2800   12.6400 C.ar      1 2GE        -0.0483
      9 C07        -2.9530   76.2180   12.2390 C.ar      1 2GE        -0.0572
     10 C08        -3.9700   76.3920   13.1580 C.ar      1 2GE        -0.0443
     11 C09        -3.6250   76.7000   14.4600 C.ar      1 2GE         0.0583
     12 CL1        -4.7740   76.9150   15.7370 Cl        1 2GE        -0.0692
     13 C11        -2.3030   76.7930   14.8440 C.ar      1 2GE         0.0677
     14 CL2        -1.9500   77.2090   16.4700 Cl        1 2GE        -0.0654
     15 C14         2.1090   76.0330   15.5950 C.ar      1 2GE         0.1121
     16 N15         2.7200   75.3710   16.6990 N.pl3     1 2GE        -0.2944
     17 C16         1.9420   74.4540   17.5190 C.3       1 2GE         0.0770
     18 C18         1.0900   75.1910   18.5110 C.2       1 2GE        -0.0564
     19 N19         2.8870   76.6840   14.7340 N.ar      1 2GE        -0.2451
     20 H           0.0879   75.4183   16.0395 H         1 2GE         0.0562
     21 H           3.0724   74.3154   19.7383 H         1 2GE         0.0596
     22 H           2.6559   78.6155   12.0818 H         1 2GE         0.1823
     23 H           4.1128   78.1034   12.9751 H         1 2GE         0.1823
     24 H          -0.8256   76.0554   11.9308 H         1 2GE         0.0655
     25 H          -3.1945   76.0319   11.1988 H         1 2GE         0.0627
     26 H          -5.0089   76.2898   12.8659 H         1 2GE         0.0649
     27 H           3.7122   75.5414   16.9168 H         1 2GE         0.1849
     28 H           1.6422   73.5231   17.0156 H         1 2GE         0.0648
     29 H           0.1976   75.7710   18.7414 H         1 2GE         0.0596
@<TRIPOS>BOND
     1    1    6 ar 
     2   15    1 ar 
     3   17    2 1  
     4    2   18 2  
     5    4    3 1  
     6    4    5 ar 
     7   19    4 ar 
     8    6    5 ar 
     9    6    7 1  
    10    7    8 ar 
    11    7   13 ar 
    12    8    9 ar 
    13    9   10 ar 
    14   11   10 ar 
    15   11   12 1  
    16   13   11 ar 
    17   13   14 1  
    18   16   15 1  
    19   15   19 ar 
    20   16   17 1  
    21   17   18 1  
    22    1   20 1  
    23    2   21 1  
    24    3   22 1  
    25    3   23 1  
    26    8   24 1  
    27    9   25 1  
    28   10   26 1  
    29   16   27 1  
    30   17   28 1  
    31   18   29 1  
@<TRIPOS>SUBSTRUCTURE
     1 2GE         1

