### 
### Created by X-TOOL on Sat Nov 28 16:03:05 2015
### 

@<TRIPOS>MOLECULE
4n3l_ligand
   90    94     1     0     0
SMALL
GAST_HUCK


@<TRIPOS>ATOM
      1 C2         15.5700   27.8160   11.5850 C.2       1 2FN         0.0959
      2 C4         16.4110   26.7960   11.3430 C.2       1 2FN        -0.0591
      3 C5         16.3080   25.7980   12.2520 C.2       1 2FN        -0.0635
      4 C6         15.4040   26.0380   13.2180 C.2       1 2FN         0.0719
      5 O8         14.3750   25.6670   15.3050 O.3       1 2FN        -0.1786
      6 C7         15.0510   25.2350   14.2170 C.2       1 2FN         0.1597
      7 O31        10.6050   19.2190   13.4080 O.2       1 2FN        -0.3875
      8 C21        10.9290   20.2920   12.9110 C.2       1 2FN         0.2012
      9 C22         9.8760   21.1850   12.2370 C.3       1 2FN         0.0629
     10 C30         9.5550   20.5630   10.8820 C.3       1 2FN         0.0078
     11 C29         8.4660   21.3400   10.1470 C.3       1 2FN        -0.0293
     12 N25         7.8400   22.3600   11.0020 N.4       1 2FN         0.2372
     13 C26         6.6490   22.9250   10.3290 C.3       1 2FN        -0.0266
     14 C28         7.0180   23.6440    9.0340 C.3       1 2FN        -0.0218
     15 C27         5.6270   21.8370   10.0110 C.3       1 2FN        -0.0218
     16 C24         7.4290   21.7540   12.2760 C.3       1 2FN        -0.0293
     17 C23         8.6150   21.2140   13.0820 C.3       1 2FN         0.0078
     18 N20        12.2020   20.7170   12.8700 N.am      1 2FN        -0.2405
     19 C19        13.1430   19.9100   13.3840 C.ar      1 2FN         0.1258
     20 C14        13.8350   20.2410   14.5550 C.ar      1 2FN         0.1070
     21 O13        13.5180   21.4070   15.1920 O.3       1 2FN        -0.3161
     22 C12        14.6590   22.0010   15.8380 C.3       1 2FN         0.1055
     23 C11        14.6870   23.4700   15.3970 C.2       1 2FN         0.0557
     24 N9         14.1510   24.4660   16.0950 N.2       1 2FN        -0.1567
     25 C10        15.2230   23.9070   14.2550 C.2       1 2FN        -0.0207
     26 S3         14.6630   27.4770   12.9680 S.3       1 2FN        -0.0237
     27 CL1        15.4090   29.2820   10.6450 Cl        1 2FN        -0.0551
     28 C18        13.4330   18.7320   12.6980 C.ar      1 2FN         0.1045
     29 C17        14.4150   17.8630   13.1870 C.ar      1 2FN        -0.0567
     30 C16        15.1020   18.1970   14.3610 C.ar      1 2FN        -0.0940
     31 C15        14.8160   19.3790   15.0430 C.ar      1 2FN        -0.0565
     32 O32        12.7020   18.5100   11.5650 O.3       1 2FN        -0.3275
     33 C33        12.6260   17.1550   11.1100 C.3       1 2FN         0.0688
     34 C34        11.5290   17.0750   10.0350 C.3       1 2FN        -0.0020
     35 C35        11.7350   15.8400    9.1510 C.3       1 2FN         0.0532
     36 O36        12.8710   16.0180    8.2840 O.3       1 2FN        -0.3486
     37 C37        12.8960   14.9840    7.2750 C.3       1 2FN         0.1879
     38 C46        12.7650   15.5840    5.8340 C.3       1 2FN         0.1341
     39 O47        11.9780   14.7320    4.9820 O.3       1 2FN        -0.3841
     40 C44        14.1540   15.7550    5.2490 C.3       1 2FN         0.1141
     41 O45        14.8880   16.6030    6.1340 O.3       1 2FN        -0.3864
     42 C42        14.8660   14.3900    5.1560 C.3       1 2FN         0.1119
     43 O42        14.5730   13.7330    3.9190 O.3       1 2FN        -0.3865
     44 C39        14.4320   13.4390    6.2950 C.3       1 2FN         0.1130
     45 O38        14.1360   14.2050    7.4710 O.3       1 2FN        -0.3405
     46 C40        15.4950   12.3500    6.5110 C.3       1 2FN         0.0730
     47 O41        16.2760   12.1930    5.3200 O.3       1 2FN        -0.3924
     48 H          17.1035   26.7745   10.5028 H         1 2FN         0.0439
     49 H          16.9017   24.8863   12.2052 H         1 2FN         0.0451
     50 H          10.2658   22.2056   12.1087 H         1 2FN         0.0545
     51 H           9.2124   19.5292   11.0366 H         1 2FN         0.0344
     52 H          10.4668   20.5590   10.2667 H         1 2FN         0.0344
     53 H           7.6915   20.6343    9.8121 H         1 2FN         0.0816
     54 H           8.9129   21.8360    9.2728 H         1 2FN         0.0816
     55 H           8.5042   23.0970   11.1802 H         1 2FN         0.2036
     56 H           6.1859   23.6524   11.0119 H         1 2FN         0.0846
     57 H           6.1078   24.0478    8.5667 H         1 2FN         0.0284
     58 H           7.4999   22.9346    8.3452 H         1 2FN         0.0284
     59 H           7.7121   24.4677    9.2569 H         1 2FN         0.0284
     60 H           4.7557   22.2869    9.5126 H         1 2FN         0.0284
     61 H           5.3055   21.3518   10.9444 H         1 2FN         0.0284
     62 H           6.0832   21.0882    9.3468 H         1 2FN         0.0284
     63 H           6.7395   20.9234   12.0647 H         1 2FN         0.0816
     64 H           6.9119   22.5158   12.8778 H         1 2FN         0.0816
     65 H           8.7815   21.8616   13.9554 H         1 2FN         0.0344
     66 H           8.3850   20.1931   13.4210 H         1 2FN         0.0344
     67 H          12.4402   21.6025   12.4710 H         1 2FN         0.2183
     68 H          15.5822   21.4916   15.5246 H         1 2FN         0.0757
     69 H          14.5559   21.9334   16.9311 H         1 2FN         0.0757
     70 H          15.7097   23.2971   13.4954 H         1 2FN         0.0373
     71 H          14.6414   16.9415   12.6629 H         1 2FN         0.0412
     72 H          15.8649   17.5288   14.7438 H         1 2FN         0.0436
     73 H          15.3550   19.6270   15.9502 H         1 2FN         0.0412
     74 H          12.3734   16.4925   11.9510 H         1 2FN         0.0608
     75 H          13.5920   16.8507   10.6808 H         1 2FN         0.0608
     76 H          11.5682   17.9789    9.4094 H         1 2FN         0.0313
     77 H          10.5461   17.0102   10.5245 H         1 2FN         0.0313
     78 H          10.8352   15.6800    8.5388 H         1 2FN         0.0562
     79 H          11.9037   14.9617    9.7914 H         1 2FN         0.0562
     80 H          12.0378   14.3147    7.4348 H         1 2FN         0.0937
     81 H          12.2758   16.5670    5.8996 H         1 2FN         0.0671
     82 H          12.3926   13.8796    4.9184 H         1 2FN         0.2101
     83 H          14.0896   16.2097    4.2495 H         1 2FN         0.0648
     84 H          14.9351   16.1982    6.9921 H         1 2FN         0.2100
     85 H          15.9503   14.5616    5.2251 H         1 2FN         0.0647
     86 H          15.0242   12.8975    3.8909 H         1 2FN         0.2100
     87 H          13.5042   12.9347    5.9872 H         1 2FN         0.0647
     88 H          14.9992   11.3978    6.7510 H         1 2FN         0.0584
     89 H          16.1525   12.6411    7.3434 H         1 2FN         0.0584
     90 H          15.7082   11.9410    4.6013 H         1 2FN         0.2095
@<TRIPOS>BOND
     1    1    2 2  
     2   26    1 1  
     3    1   27 1  
     4    3    2 1  
     5    4    3 2  
     6    6    4 1  
     7    4   26 1  
     8    5    6 1  
     9   24    5 1  
    10    6   25 2  
    11    8    7 2  
    12    8    9 1  
    13   18    8 am 
    14    9   10 1  
    15    9   17 1  
    16   10   11 1  
    17   11   12 1  
    18   12   13 1  
    19   16   12 1  
    20   13   14 1  
    21   13   15 1  
    22   17   16 1  
    23   19   18 1  
    24   20   19 ar 
    25   19   28 ar 
    26   21   20 1  
    27   20   31 ar 
    28   22   21 1  
    29   23   22 1  
    30   23   24 2  
    31   23   25 1  
    32   28   29 ar 
    33   28   32 1  
    34   29   30 ar 
    35   30   31 ar 
    36   32   33 1  
    37   33   34 1  
    38   34   35 1  
    39   35   36 1  
    40   36   37 1  
    41   37   38 1  
    42   37   45 1  
    43   38   39 1  
    44   38   40 1  
    45   40   41 1  
    46   40   42 1  
    47   42   43 1  
    48   42   44 1  
    49   44   45 1  
    50   44   46 1  
    51   46   47 1  
    52    2   48 1  
    53    3   49 1  
    54    9   50 1  
    55   10   51 1  
    56   10   52 1  
    57   11   53 1  
    58   11   54 1  
    59   12   55 1  
    60   13   56 1  
    61   14   57 1  
    62   14   58 1  
    63   14   59 1  
    64   15   60 1  
    65   15   61 1  
    66   15   62 1  
    67   16   63 1  
    68   16   64 1  
    69   17   65 1  
    70   17   66 1  
    71   18   67 1  
    72   22   68 1  
    73   22   69 1  
    74   25   70 1  
    75   29   71 1  
    76   30   72 1  
    77   31   73 1  
    78   33   74 1  
    79   33   75 1  
    80   34   76 1  
    81   34   77 1  
    82   35   78 1  
    83   35   79 1  
    84   37   80 1  
    85   38   81 1  
    86   39   82 1  
    87   40   83 1  
    88   41   84 1  
    89   42   85 1  
    90   43   86 1  
    91   44   87 1  
    92   46   88 1  
    93   46   89 1  
    94   47   90 1  
@<TRIPOS>SUBSTRUCTURE
     1 2FN         1

