### 
### Created by X-TOOL on Mon Sep 10 21:13:15 2018
### 

@<TRIPOS>MOLECULE
4n3r_ligand
   56    60     1     0     0
SMALL
GAST_HUCK


@<TRIPOS>ATOM
      1 C1        -11.0590   39.7610   27.7340 C.ar      1 2GU        -0.0370
      2 C2        -11.8950   38.5990   27.9180 C.ar      1 2GU         0.0226
      3 C3        -12.9990   38.5640   28.7990 C.ar      1 2GU         0.0327
      4 N1        -13.7390   37.4010   28.8920 N.ar      1 2GU        -0.2426
      5 C4        -13.3900   36.2520   28.1460 C.ar      1 2GU         0.1853
      6 N2        -14.0400   35.0670   28.1930 N.pl3     1 2GU        -0.3028
      7 N3        -12.3300   36.2190   27.2730 N.ar      1 2GU        -0.2670
      8 C5        -11.5530   37.3340   27.1280 C.ar      1 2GU         0.0410
      9 C6        -10.4370   37.3510   26.1980 C.ar      1 2GU        -0.0405
     10 C7         -9.6230   38.5580   26.0370 C.ar      1 2GU        -0.0488
     11 C8         -9.9150   39.7960   26.8010 C.ar      1 2GU        -0.0127
     12 C9         -9.0870   41.0460   26.7250 C.ar      1 2GU        -0.0152
     13 C10        -7.6450   40.9380   26.7830 C.ar      1 2GU        -0.0348
     14 C11        -9.6630   42.3760   26.6490 C.ar      1 2GU        -0.0515
     15 C12        -8.8960   43.5800   26.6340 C.ar      1 2GU        -0.0215
     16 C13        -7.4850   43.4410   26.6930 C.ar      1 2GU         0.1547
     17 F1         -6.9090   44.6370   26.6440 F         1 2GU        -0.1769
     18 C14        -6.8250   42.1170   26.7710 C.ar      1 2GU         0.0938
     19 C15        -5.3620   41.8830   26.8720 C.2       1 2GU         0.2461
     20 O1         -4.7020   40.9490   26.4150 O.2       1 2GU        -0.3670
     21 N4         -4.8030   42.9080   27.5900 N.am      1 2GU        -0.2142
     22 C16        -3.5010   42.8600   27.9140 C.ar      1 2GU         0.0924
     23 C17        -3.0500   41.8240   28.7920 C.ar      1 2GU         0.0126
     24 C18        -2.6330   43.8180   27.3180 C.ar      1 2GU        -0.0172
     25 C19        -1.2090   43.7600   27.5900 C.ar      1 2GU        -0.0595
     26 C20        -0.7310   42.6890   28.4920 C.ar      1 2GU        -0.0501
     27 C21        -1.6600   41.7540   29.0640 C.ar      1 2GU         0.0865
     28 N5         -1.2310   40.7630   29.8490 N.am      1 2GU        -0.2143
     29 C22         0.0330   40.2510   29.9060 C.2       1 2GU         0.2053
     30 O2          0.2060   39.2230   30.4730 O.2       1 2GU        -0.3776
     31 C23         1.1190   41.0560   29.2630 C.3       1 2GU         0.0071
     32 C24         0.7680   42.5390   28.8590 C.3       1 2GU        -0.0596
     33 C25         1.0790   43.5720   30.0130 C.3       1 2GU        -0.1032
     34 C26         1.6510   42.7760   27.5810 C.3       1 2GU        -0.1032
     35 H1        -11.2820   40.6523   28.3093 H         1 2GU         0.0676
     36 H2        -13.2606   39.4336   29.3910 H         1 2GU         0.1002
     37 H3        -14.8573   34.9520   28.8092 H         1 2GU         0.1835
     38 H4        -13.7178   34.2795   27.6126 H         1 2GU         0.1835
     39 H5        -10.2051   36.4643   25.6192 H         1 2GU         0.0619
     40 H6         -8.7890   38.5466   25.3446 H         1 2GU         0.0679
     41 H7         -7.1804   39.9600   26.8359 H         1 2GU         0.0666
     42 H8        -10.7426   42.4604   26.6006 H         1 2GU         0.0647
     43 H9         -9.3689   44.5539   26.5801 H         1 2GU         0.0617
     44 H10        -5.3623   43.6879   27.8712 H         1 2GU         0.2436
     45 H11        -3.7452   41.1188   29.2329 H         1 2GU         0.0455
     46 H12        -3.0332   44.5855   26.6654 H         1 2GU         0.0570
     47 H13        -0.5221   44.4735   27.1495 H         1 2GU         0.0746
     48 H14        -1.9076   40.3522   30.4601 H         1 2GU         0.2459
     49 H15         1.4270   40.5273   28.3489 H         1 2GU         0.0352
     50 H16         1.9638   41.0950   29.9664 H         1 2GU         0.0352
     51 H17         0.8162   44.5862   29.6779 H         1 2GU         0.0071
     52 H18         2.1501   43.5337   30.2606 H         1 2GU         0.0071
     53 H19         0.4873   43.3155   30.9041 H         1 2GU         0.0071
     54 H20         1.3928   42.0313   26.8137 H         1 2GU         0.0071
     55 H21         2.7139   42.6760   27.8460 H         1 2GU         0.0071
     56 H22         1.4644   43.7865   27.1886 H         1 2GU         0.0071
@<TRIPOS>BOND
     1    1    2 ar 
     2    1   11 ar 
     3    2    3 ar 
     4    2    8 ar 
     5    3    4 ar 
     6    4    5 ar 
     7    5    6 1  
     8    5    7 ar 
     9    7    8 ar 
    10    8    9 ar 
    11    9   10 ar 
    12   10   11 ar 
    13   11   12 1  
    14   12   13 ar 
    15   12   14 ar 
    16   13   18 ar 
    17   14   15 ar 
    18   15   16 ar 
    19   16   17 1  
    20   16   18 ar 
    21   18   19 1  
    22   19   20 2  
    23   19   21 am 
    24   21   22 1  
    25   22   23 ar 
    26   22   24 ar 
    27   23   27 ar 
    28   24   25 ar 
    29   25   26 ar 
    30   26   27 ar 
    31   26   32 1  
    32   27   28 1  
    33   28   29 am 
    34   29   30 2  
    35   29   31 1  
    36   31   32 1  
    37   32   33 1  
    38   32   34 1  
    39    1   35 1  
    40    3   36 1  
    41    6   37 1  
    42    6   38 1  
    43    9   39 1  
    44   10   40 1  
    45   13   41 1  
    46   14   42 1  
    47   15   43 1  
    48   21   44 1  
    49   23   45 1  
    50   24   46 1  
    51   25   47 1  
    52   28   48 1  
    53   31   49 1  
    54   31   50 1  
    55   33   51 1  
    56   33   52 1  
    57   33   53 1  
    58   34   54 1  
    59   34   55 1  
    60   34   56 1  
@<TRIPOS>SUBSTRUCTURE
     1 2GU         1

