### 
### Created by X-TOOL on Mon Sep 10 21:13:20 2018
### 

@<TRIPOS>MOLECULE
4n4s_ligand
   56    60     1     0     0
SMALL
GAST_HUCK


@<TRIPOS>ATOM
      1 CAL       -14.7550   14.4550    1.7480 C.3       1 2H1        -0.0337
      2 CAK       -14.9230   14.0570    0.2870 C.3       1 2H1         0.0757
      3 CAM       -14.0650   12.8260   -0.0400 C.3       1 2H1        -0.0337
      4 NAG       -14.5340   15.1730   -0.5610 N.pl3     1 2H1        -0.1803
      5 NAH       -13.4790   15.7770   -0.5360 N.2       1 2H1        -0.1927
      6 C4        -15.3400   15.6760   -1.4940 C.ar      1 2H1         0.1638
      7 N3        -16.5860   15.3130   -1.8390 N.ar      1 2H1        -0.2674
      8 C2        -17.2350   15.9920   -2.8500 C.ar      1 2H1         0.0566
      9 N1        -16.5670   17.0390   -3.4770 N.ar      1 2H1        -0.2656
     10 C6        -15.3250   17.3750   -3.0790 C.ar      1 2H1         0.1275
     11 NAJ       -14.6880   18.3610   -3.7150 N.pl3     1 2H1        -0.3126
     12 C5        -14.6970   16.6970   -2.0930 C.ar      1 2H1         0.0873
     13 CAI       -13.5000   16.7240   -1.4670 C.2       1 2H1         0.0708
     14 CAN       -12.4560   17.5490   -1.6330 C.ar      1 2H1        -0.0148
     15 CAS       -12.6570   18.9290   -1.6480 C.ar      1 2H1        -0.0516
     16 CAO       -11.1540   17.0500   -1.7190 C.ar      1 2H1        -0.0522
     17 CAP       -10.0700   17.9110   -1.8560 C.ar      1 2H1        -0.0272
     18 CAX        -8.7730   17.3890   -1.9630 C.3       1 2H1        -0.0293
     19 CAQ       -10.2860   19.2920   -1.8950 C.ar      1 2H1         0.0378
     20 NAT        -9.2470   20.1380   -2.0360 N.ar      1 2H1        -0.2789
     21 CAR       -11.5850   19.7980   -1.7940 C.ar      1 2H1        -0.0068
     22 CAW       -11.8100   21.1730   -1.8290 C.ar      1 2H1        -0.0403
     23 CAV       -10.7160   22.0250   -1.9680 C.ar      1 2H1         0.0005
     24 CAU        -9.4230   21.4840   -2.0700 C.ar      1 2H1         0.1660
     25 OAY        -8.3460   22.3240   -2.2130 O.3       1 2H1        -0.2840
     26 CAZ        -7.1410   21.6300   -2.5590 C.3       1 2H1         0.1093
     27 CBA        -6.1530   22.1010   -1.6770 C.ar      1 2H1        -0.0121
     28 CBB        -5.6870   23.4100   -1.7800 C.ar      1 2H1        -0.0577
     29 CBC        -4.7050   23.8720   -0.9100 C.ar      1 2H1        -0.0685
     30 CBD        -4.1830   23.0370    0.0710 C.ar      1 2H1        -0.0687
     31 CBE        -4.6420   21.7330    0.1850 C.ar      1 2H1        -0.0685
     32 CBF        -5.6200   21.2680   -0.6890 C.ar      1 2H1        -0.0577
     33 H         -15.0481   13.6137    2.3932 H         1 2H1         0.0259
     34 H         -15.3924   15.3243    1.9669 H         1 2H1         0.0259
     35 H         -13.7032   14.7142    1.9388 H         1 2H1         0.0259
     36 H         -15.9795   13.8138    0.1010 H         1 2H1         0.0656
     37 H         -14.2002   12.5553   -1.0976 H         1 2H1         0.0259
     38 H         -14.3743   11.9839    0.5965 H         1 2H1         0.0259
     39 H         -13.0059   13.0571    0.1467 H         1 2H1         0.0259
     40 H         -18.2401   15.7165   -3.1482 H         1 2H1         0.1030
     41 H         -13.7376   18.6317   -3.4245 H         1 2H1         0.1842
     42 H         -15.1469   18.8510   -4.4962 H         1 2H1         0.1842
     43 H         -13.6602   19.3266   -1.5446 H         1 2H1         0.0568
     44 H         -10.9865   15.9798   -1.6785 H         1 2H1         0.0553
     45 H          -8.8142   16.2910   -1.9107 H         1 2H1         0.0396
     46 H          -8.1542   17.7724   -1.1383 H         1 2H1         0.0396
     47 H          -8.3331   17.6940   -2.9240 H         1 2H1         0.0396
     48 H         -12.8150   21.5714   -1.7498 H         1 2H1         0.0743
     49 H         -10.8615   23.0988   -1.9973 H         1 2H1         0.0662
     50 H          -6.8596   21.8491   -3.5996 H         1 2H1         0.0788
     51 H          -7.2765   20.5453   -2.4364 H         1 2H1         0.0788
     52 H          -6.0905   24.0697   -2.5396 H         1 2H1         0.0557
     53 H          -4.3442   24.8904   -0.9976 H         1 2H1         0.0599
     54 H          -3.4184   23.4043    0.7459 H         1 2H1         0.0559
     55 H          -4.2409   21.0794    0.9511 H         1 2H1         0.0599
     56 H          -5.9730   20.2467   -0.6026 H         1 2H1         0.0557
@<TRIPOS>BOND
     1    1    2 1  
     2    2    3 1  
     3    2    4 1  
     4    4    5 1  
     5    4    6 1  
     6    5   13 2  
     7    6    7 ar 
     8    6   12 ar 
     9    7    8 ar 
    10    8    9 ar 
    11    9   10 ar 
    12   10   11 1  
    13   10   12 ar 
    14   12   13 1  
    15   13   14 1  
    16   14   15 ar 
    17   14   16 ar 
    18   15   21 ar 
    19   16   17 ar 
    20   17   18 1  
    21   17   19 ar 
    22   19   20 ar 
    23   19   21 ar 
    24   20   24 ar 
    25   21   22 ar 
    26   22   23 ar 
    27   23   24 ar 
    28   24   25 1  
    29   25   26 1  
    30   26   27 1  
    31   27   28 ar 
    32   27   32 ar 
    33   28   29 ar 
    34   29   30 ar 
    35   30   31 ar 
    36   31   32 ar 
    37    1   33 1  
    38    1   34 1  
    39    1   35 1  
    40    2   36 1  
    41    3   37 1  
    42    3   38 1  
    43    3   39 1  
    44    8   40 1  
    45   11   41 1  
    46   11   42 1  
    47   15   43 1  
    48   16   44 1  
    49   18   45 1  
    50   18   46 1  
    51   18   47 1  
    52   22   48 1  
    53   23   49 1  
    54   26   50 1  
    55   26   51 1  
    56   28   52 1  
    57   29   53 1  
    58   30   54 1  
    59   31   55 1  
    60   32   56 1  
@<TRIPOS>SUBSTRUCTURE
     1 2H1         1

