### 
### Created by X-TOOL on Mon Sep 10 21:13:16 2018
### 

@<TRIPOS>MOLECULE
4n4t_ligand
   56    60     1     0     0
SMALL
GAST_HUCK


@<TRIPOS>ATOM
      1 C12        -7.2950   46.6320   28.4240 C.ar      1 2GV        -0.0576
      2 C13        -7.4840   47.2320   29.7220 C.ar      1 2GV        -0.0685
      3 C14        -6.6190   46.7990   30.8230 C.ar      1 2GV        -0.0687
      4 C15        -5.5650   45.7910   30.6860 C.ar      1 2GV        -0.0685
      5 C16        -5.3840   45.2010   29.3900 C.ar      1 2GV        -0.0576
      6 C17        -6.2560   45.6300   28.2730 C.ar      1 2GV        -0.0091
      7 C7         -6.1720   45.0680   26.9140 C.3       1 2GV         0.1351
      8 C8         -4.9910   45.5460   26.1540 C.3       1 2GV         0.1313
      9 C9         -4.2930   46.8490   26.4120 C.3       1 2GV        -0.0271
     10 C10        -5.2800   45.4350   24.6970 C.3       1 2GV        -0.0271
     11 O1         -3.9980   44.3890   26.6200 O.3       1 2GV        -0.2475
     12 C11        -4.6880   43.1960   26.8960 C.2       1 2GV         0.3567
     13 O2         -4.0010   42.1940   27.0070 O.2       1 2GV        -0.3662
     14 N2         -6.0190   43.5770   26.9710 N.am      1 2GV        -0.1764
     15 C18        -8.3450   43.0950   26.7280 C.ar      1 2GV        -0.0396
     16 C19        -6.9900   42.7030   27.0710 C.ar      1 2GV         0.0751
     17 C20        -6.5870   41.3870   27.5280 C.ar      1 2GV        -0.0396
     18 C21        -7.5430   40.3980   27.6550 C.ar      1 2GV        -0.0675
     19 C5         -8.9290   40.7310   27.3160 C.ar      1 2GV        -0.0322
     20 C22        -9.3270   42.0750   26.8590 C.ar      1 2GV        -0.0675
     21 C1         -9.8530   39.6090   27.4280 C.ar      1 2GV        -0.0087
     22 C23       -11.0320   39.7720   28.2100 C.ar      1 2GV        -0.0335
     23 C24       -11.9610   38.7200   28.4190 C.ar      1 2GV         0.0670
     24 C25       -11.5980   37.4560   27.7780 C.ar      1 2GV         0.1262
     25 N3        -10.4590   37.3110   27.0120 N.ar      1 2GV        -0.2802
     26 C26        -9.5630   38.3140   26.7890 C.ar      1 2GV         0.0046
     27 N1        -13.4210   40.3200   29.8140 N.ar      1 2GV        -0.2615
     28 C2        -14.6240   40.6110   30.4240 C.ar      1 2GV         0.0260
     29 C3        -15.7280   39.6590   30.4160 C.ar      1 2GV        -0.0111
     30 C4        -15.4830   38.3970   29.7250 C.ar      1 2GV         0.0260
     31 N5        -14.2650   38.1390   29.1210 N.ar      1 2GV        -0.2615
     32 C6        -13.1950   39.0690   29.1340 C.ar      1 2GV         0.1286
     33 N4        -12.2590   36.3120   27.8890 N.pl3     1 2GV        -0.3182
     34 H1         -7.9135   46.9222   27.5824 H         1 2GV         0.0558
     35 H2         -8.2476   47.9852   29.8794 H         1 2GV         0.0599
     36 H3         -6.7681   47.2516   31.7967 H         1 2GV         0.0559
     37 H4         -4.9471   45.5025   31.5287 H         1 2GV         0.0599
     38 H5         -4.6182   44.4505   29.2310 H         1 2GV         0.0558
     39 H6         -7.0908   45.3330   26.3703 H         1 2GV         0.0821
     40 H7         -3.4521   46.9594   25.7115 H         1 2GV         0.0263
     41 H8         -3.9144   46.8640   27.4447 H         1 2GV         0.0263
     42 H9         -5.0008   47.6788   26.2689 H         1 2GV         0.0263
     43 H10        -5.7922   44.4824   24.4963 H         1 2GV         0.0263
     44 H11        -4.3367   45.4701   24.1323 H         1 2GV         0.0263
     45 H12        -5.9246   46.2704   24.3863 H         1 2GV         0.0263
     46 H13        -8.5913   44.0967   26.3948 H         1 2GV         0.0507
     47 H14        -5.5496   41.1822   27.7667 H         1 2GV         0.0507
     48 H15        -7.2755   39.4043   27.9956 H         1 2GV         0.0581
     49 H16       -10.3642   42.2848   26.6238 H         1 2GV         0.0581
     50 H17       -11.2273   40.7372   28.6632 H         1 2GV         0.0725
     51 H18        -8.6830   38.1662   26.1735 H         1 2GV         0.0799
     52 H19       -14.7507   41.5669   30.9192 H         1 2GV         0.0934
     53 H20       -16.6758   39.8758   30.8954 H         1 2GV         0.0758
     54 H21       -16.2675   37.6500   29.6843 H         1 2GV         0.0934
     55 H22       -11.9220   35.4726   27.3963 H         1 2GV         0.1796
     56 H23       -13.1095   36.2627   28.4679 H         1 2GV         0.1796
@<TRIPOS>BOND
     1    1    2 ar 
     2    6    1 ar 
     3    2    3 ar 
     4    4    3 ar 
     5    5    4 ar 
     6    6    5 ar 
     7    7    6 1  
     8    7    8 1  
     9   14    7 1  
    10    8    9 1  
    11    8   10 1  
    12   11    8 1  
    13   12   11 1  
    14   12   13 2  
    15   14   12 am 
    16   16   14 1  
    17   15   16 ar 
    18   20   15 ar 
    19   17   16 ar 
    20   18   17 ar 
    21   19   18 ar 
    22   19   20 ar 
    23   21   19 1  
    24   22   21 ar 
    25   21   26 ar 
    26   23   22 ar 
    27   23   24 ar 
    28   32   23 1  
    29   24   25 ar 
    30   24   33 1  
    31   25   26 ar 
    32   27   28 ar 
    33   27   32 ar 
    34   28   29 ar 
    35   29   30 ar 
    36   30   31 ar 
    37   31   32 ar 
    38    1   34 1  
    39    2   35 1  
    40    3   36 1  
    41    4   37 1  
    42    5   38 1  
    43    7   39 1  
    44    9   40 1  
    45    9   41 1  
    46    9   42 1  
    47   10   43 1  
    48   10   44 1  
    49   10   45 1  
    50   15   46 1  
    51   17   47 1  
    52   18   48 1  
    53   20   49 1  
    54   22   50 1  
    55   26   51 1  
    56   28   52 1  
    57   29   53 1  
    58   30   54 1  
    59   33   55 1  
    60   33   56 1  
@<TRIPOS>SUBSTRUCTURE
     1 2GV         1

