### 
### Created by X-TOOL on Mon Sep 10 21:13:16 2018
### 

@<TRIPOS>MOLECULE
4n4v_ligand
   62    66     1     0     0
SMALL
GAST_HUCK


@<TRIPOS>ATOM
      1 C5         -7.1940   46.2450   28.4490 C.ar      1 2GY        -0.0580
      2 C7         -7.6030   46.7400   29.7560 C.ar      1 2GY        -0.0685
      3 C8         -6.7110   46.5230   30.9000 C.ar      1 2GY        -0.0687
      4 C9         -5.4260   45.8300   30.7980 C.ar      1 2GY        -0.0685
      5 C10        -5.0070   45.3300   29.4890 C.ar      1 2GY        -0.0580
      6 C12        -5.9000   45.5420   28.3170 C.ar      1 2GY        -0.0147
      7 C13        -5.5880   45.0560   26.9480 C.3       1 2GY         0.1133
      8 C14        -4.3340   45.6840   26.2640 C.3       1 2GY         0.1256
      9 C15        -3.7490   46.9810   26.7470 C.3       1 2GY        -0.0276
     10 C16        -4.0580   45.6700   24.7780 C.3       1 2GY        -0.0276
     11 O1         -3.3460   44.6000   26.7270 O.3       1 2GY        -0.2531
     12 C11        -4.0760   43.3540   26.8780 C.2       1 2GY         0.3253
     13 O2         -3.6480   42.2580   26.9070 O.2       1 2GY        -0.3773
     14 N2         -5.3210   43.6290   26.9140 N.am      1 2GY        -0.2284
     15 C17        -6.1080   42.4550   26.8860 C.3       1 2GY         0.0498
     16 C18        -6.4270   42.0410   28.3250 C.3       1 2GY        -0.0276
     17 C19        -7.5850   41.1180   28.4080 C.3       1 2GY        -0.0390
     18 C20        -8.6250   41.2640   27.2920 C.3       1 2GY        -0.0065
     19 C21        -8.3450   41.8550   25.9100 C.3       1 2GY        -0.0390
     20 C22        -7.2010   42.8230   25.8780 C.3       1 2GY        -0.0276
     21 C1         -9.4110   40.0740   27.2950 C.ar      1 2GY        -0.0217
     22 C23       -10.6270   40.1790   28.0580 C.ar      1 2GY        -0.0360
     23 C24       -11.4930   39.0570   28.1880 C.ar      1 2GY         0.0621
     24 C25       -10.9890   37.8920   27.4940 C.ar      1 2GY         0.1205
     25 N3         -9.8070   37.8540   26.7660 N.ar      1 2GY        -0.2869
     26 C26        -8.9700   38.8960   26.6160 C.ar      1 2GY         0.0012
     27 N1        -13.2950   40.3870   29.5850 N.ar      1 2GY        -0.2617
     28 C2        -14.5900   40.4870   30.1330 C.ar      1 2GY         0.0260
     29 C3        -15.5460   39.4130   30.0610 C.ar      1 2GY        -0.0111
     30 C4        -15.0600   38.2270   29.3810 C.ar      1 2GY         0.0260
     31 N5        -13.7710   38.1380   28.8390 N.ar      1 2GY        -0.2617
     32 C6        -12.8170   39.1980   28.8990 C.ar      1 2GY         0.1274
     33 N4        -11.6350   36.7020   27.5350 N.pl3     1 2GY        -0.3211
     34 H1         -7.8304   46.3901   27.5835 H         1 2GY         0.0557
     35 H2         -8.5470   47.2580   29.8809 H         1 2GY         0.0599
     36 H3         -7.0193   46.8949   31.8704 H         1 2GY         0.0559
     37 H4         -4.7997   45.6906   31.6718 H         1 2GY         0.0599
     38 H5         -4.0611   44.8132   29.3741 H         1 2GY         0.0557
     39 H6         -6.4686   45.2738   26.3259 H         1 2GY         0.0754
     40 H7         -2.8763   47.2418   26.1302 H         1 2GY         0.0263
     41 H8         -3.4375   46.8745   27.7966 H         1 2GY         0.0263
     42 H9         -4.5048   47.7762   26.6677 H         1 2GY         0.0263
     43 H10        -4.4579   44.7438   24.3395 H         1 2GY         0.0263
     44 H11        -2.9726   45.7181   24.6062 H         1 2GY         0.0263
     45 H12        -4.5427   46.5378   24.3068 H         1 2GY         0.0263
     46 H13        -5.5315   41.6246   26.4522 H         1 2GY         0.0560
     47 H14        -6.6538   42.9446   28.9098 H         1 2GY         0.0289
     48 H15        -5.5455   41.5399   28.7514 H         1 2GY         0.0289
     49 H16        -8.0913   41.2946   29.3685 H         1 2GY         0.0289
     50 H17        -7.2003   40.0879   28.3802 H         1 2GY         0.0289
     51 H18        -9.2991   42.0288   27.7052 H         1 2GY         0.0451
     52 H19        -9.2501   42.3787   25.5685 H         1 2GY         0.0289
     53 H20        -8.1174   41.0286   25.2206 H         1 2GY         0.0289
     54 H21        -6.7660   42.8250   24.8677 H         1 2GY         0.0289
     55 H22        -7.5797   43.8279   26.1162 H         1 2GY         0.0289
     56 H23       -10.8845   41.1173   28.5360 H         1 2GY         0.0678
     57 H24        -8.0538   38.8474   26.0387 H         1 2GY         0.0748
     58 H25       -14.8770   41.4079   30.6276 H         1 2GY         0.0934
     59 H26       -16.5436   39.4843   30.4791 H         1 2GY         0.0758
     60 H27       -15.7221   37.3737   29.2884 H         1 2GY         0.0934
     61 H28       -11.2514   35.8901   27.0304 H         1 2GY         0.1776
     62 H29       -12.5098   36.6091   28.0707 H         1 2GY         0.1776
@<TRIPOS>BOND
     1    1    2 ar 
     2    6    1 ar 
     3    2    3 ar 
     4    4    3 ar 
     5    5    4 ar 
     6    6    5 ar 
     7    7    6 1  
     8    7    8 1  
     9   14    7 1  
    10    8    9 1  
    11    8   10 1  
    12   11    8 1  
    13   12   11 1  
    14   12   13 2  
    15   14   12 am 
    16   15   14 1  
    17   16   15 1  
    18   20   15 1  
    19   17   16 1  
    20   18   17 1  
    21   18   19 1  
    22   21   18 1  
    23   19   20 1  
    24   22   21 ar 
    25   21   26 ar 
    26   23   22 ar 
    27   23   24 ar 
    28   32   23 1  
    29   24   25 ar 
    30   24   33 1  
    31   25   26 ar 
    32   27   28 ar 
    33   27   32 ar 
    34   28   29 ar 
    35   29   30 ar 
    36   30   31 ar 
    37   31   32 ar 
    38    1   34 1  
    39    2   35 1  
    40    3   36 1  
    41    4   37 1  
    42    5   38 1  
    43    7   39 1  
    44    9   40 1  
    45    9   41 1  
    46    9   42 1  
    47   10   43 1  
    48   10   44 1  
    49   10   45 1  
    50   15   46 1  
    51   16   47 1  
    52   16   48 1  
    53   17   49 1  
    54   17   50 1  
    55   18   51 1  
    56   19   52 1  
    57   19   53 1  
    58   20   54 1  
    59   20   55 1  
    60   22   56 1  
    61   26   57 1  
    62   28   58 1  
    63   29   59 1  
    64   30   60 1  
    65   33   61 1  
    66   33   62 1  
@<TRIPOS>SUBSTRUCTURE
     1 2GY         1

