### 
### Created by X-TOOL on Mon Sep 10 21:13:19 2018
### 

@<TRIPOS>MOLECULE
4n5g_ligand
   51    54     1     0     0
SMALL
GAST_HUCK


@<TRIPOS>ATOM
      1 C01         7.5280    7.6010   24.0980 C.3       1 K09        -0.0473
      2 C02         6.1790    7.7970   23.4440 C.2       1 K09        -0.0693
      3 C03         5.6560    7.0340   22.2940 C.2       1 K09        -0.0694
      4 C04         4.2520    7.5720   21.9690 C.ar      1 K09        -0.0519
      5 C05         3.9490    8.6290   22.8980 C.ar      1 K09        -0.0438
      6 C06         5.1630    8.7930   23.8430 C.2       1 K09        -0.0295
      7 C07         5.3290    9.6540   24.8750 C.2       1 K09        -0.0290
      8 C08         4.5240   10.9170   25.1170 C.ar      1 K09         0.0005
      9 C09         4.0130   11.1530   26.3840 C.ar      1 K09        -0.0452
     10 C10         3.2790   12.3020   26.6430 C.ar      1 K09        -0.0471
     11 C11         3.0640   13.2230   25.6310 C.ar      1 K09        -0.0285
     12 C12         3.5810   12.9960   24.3650 C.ar      1 K09        -0.0471
     13 C13         4.3160   11.8450   24.1070 C.ar      1 K09        -0.0452
     14 C14         2.2670   14.4770   25.9160 C.3       1 K09        -0.0074
     15 C15         2.7810   15.1690   27.1600 C.3       1 K09        -0.0510
     16 C16         0.7910   14.1730   26.0360 C.3       1 K09        -0.0510
     17 C17         2.7160    9.2820   22.8040 C.ar      1 K09        -0.0708
     18 C18         1.7850    8.9160   21.8170 C.ar      1 K09        -0.0375
     19 C19         2.0930    7.8700   20.9020 C.ar      1 K09         0.1225
     20 C20         3.3280    7.2070   20.9900 C.ar      1 K09        -0.0375
     21 F21         1.4480    7.6100   20.2140 F         1 K09        -0.1881
     22 C22         6.3690    5.9130   21.5670 C.3       1 K09        -0.0243
     23 C23         5.7880    4.5640   21.9260 C.3       1 K09         0.0114
     24 C24         5.6740    4.3850   23.4250 C.2       1 K09         0.1193
     25 N25         6.6850    4.1100   24.2720 N.2       1 K09        -0.1814
     26 N26         6.1750    4.0350   25.5090 N.2       1 K09        -0.0595
     27 N27         4.8570    4.2600   25.4460 N.pl3     1 K09        -0.1153
     28 N28         4.5380    4.4790   24.1550 N.2       1 K09        -0.1626
     29 H           8.0678    6.7890   23.5888 H         1 K09         0.0337
     30 H           7.3875    7.3400   25.1573 H         1 K09         0.0337
     31 H           8.1102    8.5313   24.0237 H         1 K09         0.0337
     32 H           6.1105    9.4187   25.5960 H         1 K09         0.0965
     33 H           4.1879   10.4354   27.1775 H         1 K09         0.0699
     34 H           2.8755   12.4780   27.6336 H         1 K09         0.0593
     35 H           3.4116   13.7180   23.5743 H         1 K09         0.0593
     36 H           4.7260   11.6727   23.1184 H         1 K09         0.0699
     37 H           2.4017   15.1630   25.0668 H         1 K09         0.0484
     38 H           2.1874   16.0761   27.3467 H         1 K09         0.0258
     39 H           3.8363   15.4444   27.0169 H         1 K09         0.0258
     40 H           2.6928   14.4895   28.0205 H         1 K09         0.0258
     41 H           0.4444   13.6714   25.1204 H         1 K09         0.0258
     42 H           0.2334   15.1111   26.1736 H         1 K09         0.0258
     43 H           0.6212   13.5152   26.9011 H         1 K09         0.0258
     44 H           2.4760   10.0783   23.4993 H         1 K09         0.0585
     45 H           0.8328    9.4300   21.7525 H         1 K09         0.0538
     46 H           3.5638    6.4092   20.2950 H         1 K09         0.0558
     47 H           7.4339    5.9285   21.8423 H         1 K09         0.0393
     48 H           6.2682    6.0688   20.4828 H         1 K09         0.0393
     49 H           6.4400    3.7758   21.5214 H         1 K09         0.0462
     50 H           4.7866    4.4767   21.4793 H         1 K09         0.0462
     51 H           4.2033    4.2649   26.2420 H         1 K09         0.2882
@<TRIPOS>BOND
     1    1    2 1  
     2    2    3 2  
     3    2    6 1  
     4    3    4 1  
     5    3   22 1  
     6    4    5 ar 
     7    4   20 ar 
     8    5    6 1  
     9    5   17 ar 
    10    6    7 2  
    11    7    8 1  
    12    8    9 ar 
    13    8   13 ar 
    14    9   10 ar 
    15   10   11 ar 
    16   11   12 ar 
    17   11   14 1  
    18   12   13 ar 
    19   14   15 1  
    20   14   16 1  
    21   17   18 ar 
    22   18   19 ar 
    23   19   20 ar 
    24   19   21 1  
    25   22   23 1  
    26   23   24 1  
    27   24   25 1  
    28   24   28 2  
    29   25   26 2  
    30   26   27 1  
    31   27   28 1  
    32    1   29 1  
    33    1   30 1  
    34    1   31 1  
    35    7   32 1  
    36    9   33 1  
    37   10   34 1  
    38   12   35 1  
    39   13   36 1  
    40   14   37 1  
    41   15   38 1  
    42   15   39 1  
    43   15   40 1  
    44   16   41 1  
    45   16   42 1  
    46   16   43 1  
    47   17   44 1  
    48   18   45 1  
    49   20   46 1  
    50   22   47 1  
    51   22   48 1  
    52   23   49 1  
    53   23   50 1  
    54   27   51 1  
@<TRIPOS>SUBSTRUCTURE
     1 K09         1

