### 
### Created by X-TOOL on Fri Sep 26 17:34:59 2014
### 

@<TRIPOS>MOLECULE
4n6h_ligand
   58    65     1     0     0
SMALL
GAST_HUCK


@<TRIPOS>ATOM
      1 CAB        -6.2170  -65.8630   71.5100 C.ar      1 EJ4         0.1404
      2 CAC        -6.8570  -67.0210   71.1040 C.ar      1 EJ4         0.1486
      3 CAE        -7.7160  -68.8490   69.8180 C.3       1 EJ4         0.1185
      4 CAF        -6.7520  -69.0270   68.7740 C.2       1 EJ4         0.0631
      5 CAG        -5.5200  -69.6670   68.8950 C.2       1 EJ4        -0.0444
      6 CAH        -4.8560  -69.4920   67.7250 C.ar      1 EJ4        -0.0319
      7 CAI        -3.6160  -69.8700   67.3110 C.ar      1 EJ4        -0.0799
      8 CAJ        -3.1530  -69.5700   66.0210 C.ar      1 EJ4        -0.0830
      9 CAK        -3.9780  -68.8000   65.1880 C.ar      1 EJ4        -0.0802
     10 CAL        -5.2350  -68.4110   65.6570 C.ar      1 EJ4        -0.0483
     11 CAM        -5.6310  -68.7660   66.9030 C.ar      1 EJ4         0.0559
     12 CAO        -5.0890  -70.3410   70.0880 C.3       1 EJ4        -0.0166
     13 CAP        -6.2310  -70.5970   71.0880 C.3       1 EJ4         0.0934
     14 CAR        -5.7380  -70.8350   72.5040 C.3       1 EJ4         0.0126
     15 CAT        -7.8760  -70.2150   73.4650 C.3       1 EJ4        -0.0401
     16 CAU        -8.3340  -69.6940   72.1470 C.3       1 EJ4        -0.0314
     17 CAV        -7.1990  -69.3510   71.1610 C.3       1 EJ4         0.0327
     18 CAW        -6.4490  -68.2130   71.6690 C.ar      1 EJ4        -0.0148
     19 CAX        -5.4660  -68.3450   72.5850 C.ar      1 EJ4        -0.0295
     20 CAY        -4.8120  -67.1720   73.0070 C.ar      1 EJ4        -0.0497
     21 CAZ        -5.1810  -65.9180   72.4600 C.ar      1 EJ4        -0.0203
     22 NAN        -6.7660  -68.5140   67.5360 N.pl3     1 EJ4        -0.2799
     23 NAS        -6.8900  -71.3460   73.3550 N.4       1 EJ4         0.2401
     24 OAA        -6.6150  -64.6770   70.9250 O.3       1 EJ4        -0.3351
     25 OAD        -7.8440  -67.2600   70.1540 O.3       1 EJ4        -0.2919
     26 OAQ        -6.9650  -71.8500   70.6610 O.3       1 EJ4        -0.3921
     27 CBA        -5.1360  -69.6390   73.0820 C.3       1 EJ4         0.0328
     28 CBB        -6.5950  -71.8760   74.7000 C.3       1 EJ4        -0.0285
     29 CBC        -5.5530  -73.0170   74.6130 C.3       1 EJ4        -0.0007
     30 CBD        -4.0700  -72.7160   74.9220 C.3       1 EJ4        -0.0450
     31 CBE        -4.8990  -73.4520   75.9530 C.3       1 EJ4        -0.0450
     32 H1         -8.6758  -69.3088   69.5400 H         1 EJ4         0.0727
     33 H2         -2.9723  -70.4145   67.9924 H         1 EJ4         0.0510
     34 H3         -2.1869  -69.9226   65.6784 H         1 EJ4         0.0500
     35 H4         -3.6458  -68.5117   64.1972 H         1 EJ4         0.0502
     36 H5         -5.8928  -67.8258   65.0247 H         1 EJ4         0.0531
     37 H6         -4.3245  -69.7230   70.5816 H         1 EJ4         0.0341
     38 H7         -4.6505  -71.3088   69.8034 H         1 EJ4         0.0341
     39 H8         -4.9633  -71.6151   72.4698 H         1 EJ4         0.0901
     40 H9         -8.7545  -70.5724   74.0222 H         1 EJ4         0.0805
     41 H10        -7.4007  -69.3917   74.0184 H         1 EJ4         0.0805
     42 H11        -8.9213  -68.7810   72.3246 H         1 EJ4         0.0204
     43 H12        -8.9744  -70.4571   71.6805 H         1 EJ4         0.0204
     44 H13        -4.0256  -67.2281   73.7509 H         1 EJ4         0.0519
     45 H14        -4.6715  -65.0127   72.7696 H         1 EJ4         0.0719
     46 H15        -7.5560  -67.9922   67.1304 H         1 EJ4         0.2217
     47 H16        -7.3195  -72.1002   72.8423 H         1 EJ4         0.2039
     48 H17        -7.3230  -64.8480   70.3151 H         1 EJ4         0.2424
     49 H18        -7.2901  -71.7389   69.7753 H         1 EJ4         0.2092
     50 H19        -4.0473  -69.7500   72.9704 H         1 EJ4         0.0529
     51 H20        -5.3971  -69.6410   74.1505 H         1 EJ4         0.0529
     52 H21        -7.5215  -72.2646   75.1478 H         1 EJ4         0.0817
     53 H22        -6.1950  -71.0670   75.3288 H         1 EJ4         0.0817
     54 H23        -5.8320  -73.7456   73.8376 H         1 EJ4         0.0352
     55 H24        -3.7503  -71.6812   75.1144 H         1 EJ4         0.0270
     56 H25        -3.2781  -73.2487   74.3751 H         1 EJ4         0.0270
     57 H26        -4.7094  -74.5173   76.1507 H         1 EJ4         0.0270
     58 H27        -5.1816  -72.9498   76.8900 H         1 EJ4         0.0270
@<TRIPOS>BOND
     1    2    1 ar 
     2    1   21 ar 
     3    1   24 1  
     4    2   18 ar 
     5   25    2 1  
     6    3    4 1  
     7   17    3 1  
     8    3   25 1  
     9    5    4 2  
    10    4   22 1  
    11    5    6 1  
    12   12    5 1  
    13    6    7 ar 
    14    6   11 ar 
    15    7    8 ar 
    16    8    9 ar 
    17   10    9 ar 
    18   11   10 ar 
    19   22   11 1  
    20   13   12 1  
    21   14   13 1  
    22   13   17 1  
    23   13   26 1  
    24   23   14 1  
    25   14   27 1  
    26   15   16 1  
    27   15   23 1  
    28   16   17 1  
    29   17   18 1  
    30   18   19 ar 
    31   19   20 ar 
    32   19   27 1  
    33   20   21 ar 
    34   23   28 1  
    35   28   29 1  
    36   29   30 1  
    37   29   31 1  
    38   30   31 1  
    39    3   32 1  
    40    7   33 1  
    41    8   34 1  
    42    9   35 1  
    43   10   36 1  
    44   12   37 1  
    45   12   38 1  
    46   14   39 1  
    47   15   40 1  
    48   15   41 1  
    49   16   42 1  
    50   16   43 1  
    51   20   44 1  
    52   21   45 1  
    53   22   46 1  
    54   23   47 1  
    55   24   48 1  
    56   26   49 1  
    57   27   50 1  
    58   27   51 1  
    59   28   52 1  
    60   28   53 1  
    61   29   54 1  
    62   30   55 1  
    63   30   56 1  
    64   31   57 1  
    65   31   58 1  
@<TRIPOS>SUBSTRUCTURE
     1 EJ4         1

