### 
### Created by X-TOOL on Mon Sep 10 21:13:12 2018
### 

@<TRIPOS>MOLECULE
4n6y_ligand
   44    46     1     0     0
SMALL
GAST_HUCK


@<TRIPOS>ATOM
      1 O1         22.6580   34.5430    2.3720 O.2       1 2HV        -0.3828
      2 C5         22.6240   34.7090    1.1500 C.2       1 2HV         0.2192
      3 C3         23.0080   36.0070    0.5480 C.2       1 2HV         0.0725
      4 N1         23.1310   36.1350   -0.8210 N.2       1 2HV        -0.3054
      5 C4         23.2250   37.1340    1.2710 C.2       1 2HV         0.0211
      6 S          23.5820   38.4520    0.2310 S.3       1 2HV         0.0248
      7 C2         23.4310   37.3740   -1.1180 C.2       1 2HV         0.2096
      8 N          23.6110   37.7410   -2.4380 N.am      1 2HV        -0.1942
      9 C1         23.8250   39.0090   -2.9220 C.2       1 2HV         0.2119
     10 O          23.8630   40.0020   -2.2040 O.2       1 2HV        -0.3804
     11 C          24.0120   39.0980   -4.4050 C.3       1 2HV         0.0337
     12 N2         22.2910   33.7630    0.2440 N.am      1 2HV        -0.2400
     13 C6         21.5340   32.5720    0.4020 C.ar      1 2HV         0.0852
     14 C11        21.2700   31.7320   -0.7020 C.ar      1 2HV         0.0636
     15 C10        20.8120   30.4380   -0.4760 C.ar      1 2HV        -0.0570
     16 C9         20.5460   30.0020    0.8090 C.ar      1 2HV        -0.0892
     17 C8         20.7330   30.8410    1.8780 C.ar      1 2HV        -0.0890
     18 C7         21.2120   32.1240    1.6880 C.ar      1 2HV        -0.0522
     19 N3         21.3900   32.1850   -2.0500 N.pl3     1 2HV        -0.3139
     20 C16        20.9330   33.5160   -2.4660 C.3       1 2HV         0.0242
     21 C15        20.6560   33.5960   -3.9460 C.3       1 2HV        -0.0336
     22 C14        21.8570   33.1440   -4.7370 C.3       1 2HV        -0.0495
     23 C13        22.2760   31.7490   -4.3200 C.3       1 2HV        -0.0336
     24 C12        22.5180   31.6700   -2.8320 C.3       1 2HV         0.0242
     25 H1         23.1792   37.1941    2.3574 H         1 2HV         0.0720
     26 H2         23.5824   37.0044   -3.1138 H         1 2HV         0.2409
     27 H3         24.1756   40.1473   -4.6916 H         1 2HV         0.0474
     28 H4         23.1136   38.7154   -4.9115 H         1 2HV         0.0474
     29 H5         24.8842   38.4968   -4.7014 H         1 2HV         0.0474
     30 H6         22.6307   33.9274   -0.6821 H         1 2HV         0.2209
     31 H7         20.6625   29.7664   -1.3136 H         1 2HV         0.0466
     32 H8         20.1879   28.9920    0.9724 H         1 2HV         0.0454
     33 H9         20.5035   30.4954    2.8795 H         1 2HV         0.0466
     34 H10        21.3385   32.7849    2.5379 H         1 2HV         0.0459
     35 H11        21.7111   34.2511   -2.2128 H         1 2HV         0.0508
     36 H12        20.0087   33.7578   -1.9208 H         1 2HV         0.0508
     37 H13        20.4180   34.6361   -4.2133 H         1 2HV         0.0284
     38 H14        19.7995   32.9498   -4.1887 H         1 2HV         0.0284
     39 H15        22.6900   33.8400   -4.5589 H         1 2HV         0.0266
     40 H16        21.6044   33.1407   -5.8076 H         1 2HV         0.0266
     41 H17        23.2027   31.4804   -4.8483 H         1 2HV         0.0284
     42 H18        21.4803   31.0398   -4.5916 H         1 2HV         0.0284
     43 H19        22.6860   30.6181   -2.5577 H         1 2HV         0.0508
     44 H20        23.4140   32.2600   -2.5889 H         1 2HV         0.0508
@<TRIPOS>BOND
     1    1    2 2  
     2    2    3 1  
     3    2   12 am 
     4    3    4 1  
     5    3    5 2  
     6    4    7 2  
     7    5    6 1  
     8    6    7 1  
     9    7    8 1  
    10    8    9 am 
    11    9   10 2  
    12    9   11 1  
    13   12   13 1  
    14   13   14 ar 
    15   13   18 ar 
    16   14   15 ar 
    17   14   19 1  
    18   15   16 ar 
    19   16   17 ar 
    20   17   18 ar 
    21   19   20 1  
    22   19   24 1  
    23   20   21 1  
    24   21   22 1  
    25   22   23 1  
    26   23   24 1  
    27    5   25 1  
    28    8   26 1  
    29   11   27 1  
    30   11   28 1  
    31   11   29 1  
    32   12   30 1  
    33   15   31 1  
    34   16   32 1  
    35   17   33 1  
    36   18   34 1  
    37   20   35 1  
    38   20   36 1  
    39   21   37 1  
    40   21   38 1  
    41   22   39 1  
    42   22   40 1  
    43   23   41 1  
    44   23   42 1  
    45   24   43 1  
    46   24   44 1  
@<TRIPOS>SUBSTRUCTURE
     1 2HV         1

