### 
### Created by X-TOOL on Mon Sep 10 21:13:12 2018
### 

@<TRIPOS>MOLECULE
4n6z_ligand
   43    45     1     0     0
SMALL
GAST_HUCK


@<TRIPOS>ATOM
      1 O         -18.6500   36.5270    1.6050 O.2       1 2HW        -0.3721
      2 C10       -18.9010   36.8130    0.4370 C.2       1 2HW         0.2508
      3 C11       -19.8770   37.9010    0.0910 C.ar      1 2HW         0.1758
      4 C14       -20.5690   38.6950    1.0570 C.ar      1 2HW         0.1613
      5 N6        -20.3570   38.5810    2.3760 N.pl3     1 2HW        -0.3113
      6 N5        -21.4520   39.6370    0.6490 N.ar      1 2HW        -0.2543
      7 C13       -21.6260   39.8100   -0.6680 C.ar      1 2HW         0.0303
      8 C12       -20.9390   39.0590   -1.5960 C.ar      1 2HW         0.0324
      9 N4        -20.0760   38.1000   -1.2290 N.ar      1 2HW        -0.2654
     10 N3        -18.3300   36.2290   -0.6450 N.am      1 2HW        -0.2298
     11 C9        -17.4020   35.1610   -0.7190 C.ar      1 2HW         0.1132
     12 C8        -16.9560   34.4490    0.3940 C.ar      1 2HW         0.0164
     13 N2        -16.0220   33.4960    0.3470 N.ar      1 2HW        -0.3330
     14 C7        -15.4890   33.2230   -0.8430 C.ar      1 2HW        -0.0201
     15 C6        -15.8470   33.8580   -2.0130 C.ar      1 2HW        -0.0296
     16 C5        -16.8260   34.8480   -1.9580 C.ar      1 2HW         0.0847
     17 N1        -17.2400   35.5260   -3.1270 N.pl3     1 2HW        -0.3001
     18 C3        -18.5150   35.0980   -3.7150 C.3       1 2HW         0.0273
     19 C2        -19.0580   36.1470   -4.6550 C.3       1 2HW        -0.0281
     20 C1        -18.0070   36.5470   -5.6880 C.3       1 2HW        -0.0061
     21 C4        -16.2160   35.9080   -4.1010 C.3       1 2HW         0.0696
     22 C         -16.7400   37.0180   -4.9930 C.3       1 2HW        -0.0042
     23 N         -15.6770   37.3540   -5.9470 N.4       1 2HW         0.2221
     24 H1        -20.8799   39.1753    3.0349 H         1 2HW         0.1815
     25 H2        -19.6712   37.8991    2.7303 H         1 2HW         0.1815
     26 H3        -22.3268   40.5617   -1.0128 H         1 2HW         0.0913
     27 H4        -21.1001   39.2480   -2.6512 H         1 2HW         0.0819
     28 H5        -18.6064   36.6109   -1.5269 H         1 2HW         0.2241
     29 H6        -17.3948   34.6838    1.3570 H         1 2HW         0.0647
     30 H7        -14.7267   32.4540   -0.8944 H         1 2HW         0.0652
     31 H8        -15.3779   33.5934   -2.9537 H         1 2HW         0.0554
     32 H9        -19.2432   34.9265   -2.9086 H         1 2HW         0.0514
     33 H10       -18.3579   34.1627   -4.2723 H         1 2HW         0.0514
     34 H11       -19.3493   37.0349   -4.0748 H         1 2HW         0.0286
     35 H12       -19.9393   35.7435   -5.1751 H         1 2HW         0.0286
     36 H13       -18.4029   37.3614   -6.3125 H         1 2HW         0.0321
     37 H14       -17.7723   35.6794   -6.3222 H         1 2HW         0.0321
     38 H15       -15.9567   35.0356   -4.7187 H         1 2HW         0.0570
     39 H16       -15.3199   36.2601   -3.5690 H         1 2HW         0.0570
     40 H17       -16.9756   37.9046   -4.3860 H         1 2HW         0.0870
     41 H18       -15.9938   38.0913   -6.5570 H         1 2HW         0.1997
     42 H19       -15.4477   36.5397   -6.4951 H         1 2HW         0.1997
     43 H20       -14.8593   37.6619   -5.4443 H         1 2HW         0.1997
@<TRIPOS>BOND
     1    1    2 2  
     2    2    3 1  
     3    2   10 am 
     4    3    4 ar 
     5    3    9 ar 
     6    4    5 1  
     7    4    6 ar 
     8    6    7 ar 
     9    7    8 ar 
    10    8    9 ar 
    11   10   11 1  
    12   11   12 ar 
    13   11   16 ar 
    14   12   13 ar 
    15   13   14 ar 
    16   14   15 ar 
    17   15   16 ar 
    18   16   17 1  
    19   17   18 1  
    20   17   21 1  
    21   18   19 1  
    22   19   20 1  
    23   20   22 1  
    24   21   22 1  
    25   22   23 1  
    26    5   24 1  
    27    5   25 1  
    28    7   26 1  
    29    8   27 1  
    30   10   28 1  
    31   12   29 1  
    32   14   30 1  
    33   15   31 1  
    34   18   32 1  
    35   18   33 1  
    36   19   34 1  
    37   19   35 1  
    38   20   36 1  
    39   20   37 1  
    40   21   38 1  
    41   21   39 1  
    42   22   40 1  
    43   23   41 1  
    44   23   42 1  
    45   23   43 1  
@<TRIPOS>SUBSTRUCTURE
     1 2HW         1

