### 
### Created by X-TOOL on Mon Sep 10 21:13:13 2018
### 

@<TRIPOS>MOLECULE
4n70_ligand
   56    59     1     0     0
SMALL
GAST_HUCK


@<TRIPOS>ATOM
      1 C1        -18.9280   37.0040   -4.8710 C.3       1 2HX         0.0072
      2 C2        -18.3960   35.7790   -4.1200 C.3       1 2HX         0.0322
      3 N3        -16.9570   35.9070   -3.7820 N.pl3     1 2HX        -0.2997
      4 C4        -16.0240   36.2020   -4.8740 C.3       1 2HX         0.0720
      5 C5        -16.4900   37.4920   -5.5700 C.3       1 2HX         0.0225
      6 C6        -17.9850   37.3370   -6.0680 C.3       1 2HX         0.1037
      7 C7        -16.5040   35.1370   -2.7190 C.ar      1 2HX         0.0847
      8 C8        -15.5390   34.1490   -2.9500 C.ar      1 2HX        -0.0296
      9 C9        -15.0920   33.3670   -1.8910 C.ar      1 2HX        -0.0201
     10 N10       -15.5810   33.4920   -0.6480 N.ar      1 2HX        -0.3330
     11 C11       -16.5070   34.4520   -0.4270 C.ar      1 2HX         0.0164
     12 C12       -17.0230   35.2730   -1.4350 C.ar      1 2HX         0.1134
     13 N13       -17.9840   36.2680   -1.2130 N.am      1 2HX        -0.2293
     14 C14       -20.3760   36.7320   -5.2990 C.3       1 2HX        -0.0580
     15 C15       -18.3790   36.7390    0.0190 C.2       1 2HX         0.2466
     16 C16       -19.3030   37.9030   -0.0040 C.ar      1 2HX         0.1206
     17 O17       -18.0220   36.3280    1.1060 O.2       1 2HX        -0.3697
     18 C18       -19.7720   38.4960    1.2040 C.ar      1 2HX        -0.0177
     19 C19       -20.5960   39.6200    1.0390 C.ar      1 2HX        -0.0041
     20 C20       -20.9000   40.0940   -0.2680 C.ar      1 2HX         0.1710
     21 C21       -20.3980   39.4380   -1.3920 C.ar      1 2HX         0.0919
     22 N22       -19.5950   38.3340   -1.2670 N.ar      1 2HX        -0.2760
     23 C23       -20.7370   39.8740   -2.7570 C.ar      1 2HX         0.0691
     24 F24       -21.7040   41.1730   -0.4340 F         1 2HX        -0.1699
     25 N25       -15.6420   37.8590   -6.7170 N.4       1 2HX         0.2240
     26 C26       -22.1080   40.0160   -3.1920 C.ar      1 2HX         0.1427
     27 C27       -22.4820   40.4490   -4.5010 C.ar      1 2HX        -0.0297
     28 C28       -21.4930   40.8040   -5.4680 C.ar      1 2HX        -0.0640
     29 C29       -20.2390   40.5610   -4.9410 C.ar      1 2HX        -0.0297
     30 C30       -19.7390   40.2170   -3.7000 C.ar      1 2HX         0.1427
     31 F31       -18.4530   40.0890   -3.4400 F         1 2HX        -0.1814
     32 F32       -23.0650   39.6880   -2.2890 F         1 2HX        -0.1814
     33 O33       -18.3500   38.5910   -6.6960 O.3       1 2HX        -0.3858
     34 H1        -18.9286   37.8669   -4.1888 H         1 2HX         0.0344
     35 H2        -18.5331   34.8894   -4.7523 H         1 2HX         0.0518
     36 H3        -18.9688   35.6587   -3.1886 H         1 2HX         0.0518
     37 H4        -16.0197   35.3710   -5.5947 H         1 2HX         0.0571
     38 H5        -15.0105   36.3423   -4.4700 H         1 2HX         0.0571
     39 H6        -16.4458   38.3088   -4.8345 H         1 2HX         0.0895
     40 H7        -18.0480   36.5239   -6.8061 H         1 2HX         0.0654
     41 H8        -15.1433   33.9950   -3.9474 H         1 2HX         0.0554
     42 H9        -14.3199   32.6291   -2.0765 H         1 2HX         0.0652
     43 H10       -16.8687   34.5929    0.5851 H         1 2HX         0.0647
     44 H11       -18.4202   36.6704   -2.0179 H         1 2HX         0.2243
     45 H12       -20.9843   36.5050   -4.4111 H         1 2HX         0.0234
     46 H13       -20.3998   35.8753   -5.9885 H         1 2HX         0.0234
     47 H14       -20.7822   37.6207   -5.8042 H         1 2HX         0.0234
     48 H15       -19.5107   38.1064    2.1813 H         1 2HX         0.0735
     49 H16       -21.0010   40.1272    1.9072 H         1 2HX         0.0726
     50 H17       -14.6872   37.9602   -6.4101 H         1 2HX         0.1998
     51 H18       -15.9636   38.7309   -7.1073 H         1 2HX         0.1998
     52 H19       -15.6947   37.1371   -7.4185 H         1 2HX         0.1998
     53 H20       -23.5319   40.5090   -4.7641 H         1 2HX         0.0574
     54 H21       -21.6938   41.2005   -6.4567 H         1 2HX         0.0609
     55 H22       -19.4558   40.6660   -5.6831 H         1 2HX         0.0574
     56 H23       -19.2451   38.5380   -7.0098 H         1 2HX         0.2101
@<TRIPOS>BOND
     1    1    2 1  
     2    1    6 1  
     3    1   14 1  
     4    2    3 1  
     5    3    4 1  
     6    3    7 1  
     7    4    5 1  
     8    5    6 1  
     9    5   25 1  
    10    6   33 1  
    11    7    8 ar 
    12    7   12 ar 
    13    8    9 ar 
    14    9   10 ar 
    15   10   11 ar 
    16   11   12 ar 
    17   12   13 1  
    18   13   15 am 
    19   15   16 1  
    20   15   17 2  
    21   16   18 ar 
    22   16   22 ar 
    23   18   19 ar 
    24   19   20 ar 
    25   20   21 ar 
    26   20   24 1  
    27   21   22 ar 
    28   21   23 1  
    29   23   26 ar 
    30   23   30 ar 
    31   26   27 ar 
    32   26   32 1  
    33   27   28 ar 
    34   28   29 ar 
    35   29   30 ar 
    36   30   31 1  
    37    1   34 1  
    38    2   35 1  
    39    2   36 1  
    40    4   37 1  
    41    4   38 1  
    42    5   39 1  
    43    6   40 1  
    44    8   41 1  
    45    9   42 1  
    46   11   43 1  
    47   13   44 1  
    48   14   45 1  
    49   14   46 1  
    50   14   47 1  
    51   18   48 1  
    52   19   49 1  
    53   25   50 1  
    54   25   51 1  
    55   25   52 1  
    56   27   53 1  
    57   28   54 1  
    58   29   55 1  
    59   33   56 1  
@<TRIPOS>SUBSTRUCTURE
     1 2HX         1

