### 
### Created by X-TOOL on Mon Sep 10 21:13:19 2018
### 

@<TRIPOS>MOLECULE
4n7e_ligand
   33    34     1     0     0
SMALL
GAST_HUCK


@<TRIPOS>ATOM
      1 C13       -29.7770   39.7990   14.3930 C.ar      1 2JQ        -0.0255
      2 C15       -31.3400   40.5770   12.7670 C.ar      1 2JQ        -0.0134
      3 C17       -33.8020   40.1420   13.0420 C.2       1 2JQ         0.0730
      4 C20       -28.8810   41.0290   12.4330 C.3       1 2JQ         0.3792
      5 O01       -33.9810   39.4970   16.0620 O.2       1 2JQ        -0.3577
      6 C02       -33.1670   38.7700   15.5400 C.2       1 2JQ         0.2581
      7 N03       -33.1430   37.3690   15.7220 N.am      1 2JQ        -0.2149
      8 C04       -34.0670   36.6280   16.4980 C.ar      1 2JQ         0.1303
      9 C05       -35.2570   37.1840   16.9510 C.ar      1 2JQ        -0.0209
     10 C06       -36.1560   36.4390   17.6930 C.ar      1 2JQ        -0.0635
     11 C07       -35.8030   35.1230   17.9610 C.ar      1 2JQ        -0.0497
     12 C08       -34.5990   34.5950   17.5000 C.ar      1 2JQ         0.0069
     13 C09       -34.2420   33.1610   17.8140 C.3       1 2JQ        -0.0198
     14 N10       -33.7610   35.3490   16.7820 N.ar      1 2JQ        -0.2864
     15 C11       -32.0850   39.3730   14.6920 C.ar      1 2JQ         0.0977
     16 C12       -30.7920   39.2570   15.1360 C.ar      1 2JQ        -0.0105
     17 C14       -30.0440   40.4660   13.2230 C.ar      1 2JQ         0.0543
     18 C16       -32.3700   40.0340   13.5160 C.ar      1 2JQ         0.0579
     19 O18       -34.1990   41.2060   12.4930 O.co2     1 2JQ        -0.5590
     20 O19       -34.5830   39.1580   13.1800 O.co2     1 2JQ        -0.5590
     21 F21       -27.8450   41.3290   13.2350 F         1 2JQ        -0.2192
     22 F22       -29.2390   42.0980   11.7010 F         1 2JQ        -0.2192
     23 F23       -28.4960   40.0420   11.6240 F         1 2JQ        -0.2192
     24 H         -28.7522   39.7003   14.7323 H         1 2JQ         0.0874
     25 H         -31.5505   41.0839   11.8322 H         1 2JQ         0.0895
     26 H         -32.4139   36.8591   15.2655 H         1 2JQ         0.2313
     27 H         -35.4847   38.2182   16.7193 H         1 2JQ         0.0537
     28 H         -37.0893   36.8614   18.0475 H         1 2JQ         0.0671
     29 H         -36.4744   34.4971   18.5376 H         1 2JQ         0.0516
     30 H         -33.2634   32.9217   17.3723 H         1 2JQ         0.0417
     31 H         -35.0074   32.4921   17.3937 H         1 2JQ         0.0417
     32 H         -34.1951   33.0251   18.9046 H         1 2JQ         0.0417
     33 H         -30.5760   38.7418   16.0650 H         1 2JQ         0.0747
@<TRIPOS>BOND
     1   16    1 ar 
     2    1   17 ar 
     3   17    2 ar 
     4    2   18 ar 
     5   18    3 1  
     6    3   19 ar 
     7    3   20 ar 
     8   17    4 1  
     9    4   21 1  
    10    4   22 1  
    11    4   23 1  
    12    6    5 2  
    13    6    7 am 
    14   15    6 1  
    15    7    8 1  
    16    8    9 ar 
    17    8   14 ar 
    18    9   10 ar 
    19   10   11 ar 
    20   12   11 ar 
    21   12   13 1  
    22   14   12 ar 
    23   15   16 ar 
    24   15   18 ar 
    25    1   24 1  
    26    2   25 1  
    27    7   26 1  
    28    9   27 1  
    29   10   28 1  
    30   11   29 1  
    31   13   30 1  
    32   13   31 1  
    33   13   32 1  
    34   16   33 1  
@<TRIPOS>SUBSTRUCTURE
     1 2JQ         1

