### 
### Created by X-TOOL on Mon Sep 10 21:13:12 2018
### 

@<TRIPOS>MOLECULE
4n7j_ligand
   26    27     1     0     0
SMALL
GAST_HUCK


@<TRIPOS>ATOM
      1 O         -23.4900  -28.2720    3.8900 O.2       1 2GQ        -0.3949
      2 C8        -24.5950  -28.4890    4.3840 C.2       1 2GQ         0.1594
      3 C3        -25.8700  -28.4530    3.6250 C.ar      1 2GQ         0.0396
      4 C2        -25.8950  -28.1850    2.2520 C.ar      1 2GQ        -0.0488
      5 C1        -27.1010  -28.1680    1.5570 C.ar      1 2GQ        -0.0622
      6 N         -24.7070  -28.7810    5.7200 N.2       1 2GQ        -0.2740
      7 C7        -25.8550  -29.0280    6.4020 C.2       1 2GQ         0.1320
      8 C6        -27.0480  -28.9700    5.7260 C.3       1 2GQ         0.0740
      9 C4        -27.0880  -28.6930    4.3030 C.ar      1 2GQ         0.0015
     10 C5        -28.2840  -28.6670    3.5760 C.ar      1 2GQ        -0.0500
     11 C         -28.2880  -28.4130    2.2170 C.ar      1 2GQ        -0.0630
     12 N1        -25.7370  -29.3350    7.8010 N.pl3     1 2GQ        -0.2726
     13 C12       -24.4350  -29.5790    8.4000 C.3       1 2GQ         0.0289
     14 C9        -26.8820  -29.3940    8.7270 C.3       1 2GQ         0.0289
     15 H1        -24.9680  -27.9891    1.7254 H         1 2GQ         0.0652
     16 H2        -27.1078  -27.9614    0.4929 H         1 2GQ         0.0579
     17 H3        -27.6461  -28.1863    6.2139 H         1 2GQ         0.0766
     18 H4        -27.5358  -29.9456    5.8684 H         1 2GQ         0.0766
     19 H5        -29.2225  -28.8490    4.0870 H         1 2GQ         0.0578
     20 H6        -29.2237  -28.4063    1.6697 H         1 2GQ         0.0638
     21 H7        -24.5590  -29.7948    9.4715 H         1 2GQ         0.0505
     22 H8        -23.8017  -28.6881    8.2764 H         1 2GQ         0.0505
     23 H9        -23.9592  -30.4387    7.9055 H         1 2GQ         0.0505
     24 H10       -27.8118  -29.1961    8.1735 H         1 2GQ         0.0505
     25 H11       -26.7560  -28.6366    9.5147 H         1 2GQ         0.0505
     26 H12       -26.9330  -30.3933    9.1839 H         1 2GQ         0.0505
@<TRIPOS>BOND
     1    1    2 2  
     2    2    3 1  
     3    2    6 1  
     4    3    4 ar 
     5    3    9 ar 
     6    4    5 ar 
     7    5   11 ar 
     8    6    7 2  
     9    7    8 1  
    10    7   12 1  
    11    8    9 1  
    12    9   10 ar 
    13   10   11 ar 
    14   12   13 1  
    15   12   14 1  
    16    4   15 1  
    17    5   16 1  
    18    8   17 1  
    19    8   18 1  
    20   10   19 1  
    21   11   20 1  
    22   13   21 1  
    23   13   22 1  
    24   13   23 1  
    25   14   24 1  
    26   14   25 1  
    27   14   26 1  
@<TRIPOS>SUBSTRUCTURE
     1 2GQ         1

