### 
### Created by X-TOOL on Mon Sep 10 21:13:12 2018
### 

@<TRIPOS>MOLECULE
4n7m_ligand
   31    33     1     0     0
SMALL
GAST_HUCK


@<TRIPOS>ATOM
      1 O         -23.9910  -28.5270    4.6640 O.2       1 2GQ        -0.3400
      2 C8        -25.1840  -28.6020    4.9780 C.2       1 2GQ         0.3065
      3 C3        -25.6720  -28.8740    6.3460 C.ar      1 2GQ         0.0932
      4 C2        -24.7650  -29.1230    7.3850 C.ar      1 2GQ        -0.0347
      5 C1        -25.2130  -29.3180    8.6840 C.ar      1 2GQ        -0.0518
      6 N         -26.1640  -28.3780    4.0370 N.am      1 2GQ        -0.1298
      7 C7        -27.4890  -28.3940    4.3530 C.2       1 2GQ         0.2702
      8 C6        -27.9910  -28.6210    5.5790 C.3       1 2GQ         0.1185
      9 C4        -27.0600  -28.8600    6.6390 C.ar      1 2GQ         0.0250
     10 C5        -27.4870  -29.0600    7.9630 C.ar      1 2GQ        -0.0379
     11 C         -26.5670  -29.2840    8.9700 C.ar      1 2GQ        -0.0529
     12 N1        -28.3080  -28.1870    3.3860 N.2       1 2GQ        -0.2879
     13 C12       -29.7580  -28.1950    3.5030 C.3       1 2GQ         0.0407
     14 C11       -30.2240  -28.0640    2.0830 C.3       1 2GQ        -0.0300
     15 C10       -29.1130  -28.5600    1.3490 C.3       1 2GQ        -0.0300
     16 C9        -27.9210  -28.0150    2.0260 C.3       1 2GQ         0.0407
     17 H1        -23.7029  -29.1637    7.1719 H         1 2GQ         0.0688
     18 H2        -24.4986  -29.4980    9.4792 H         1 2GQ         0.0664
     19 H3        -25.8943  -28.1978    3.0911 H         1 2GQ         0.3304
     20 H4        -28.6449  -29.5028    5.5095 H         1 2GQ         0.0888
     21 H5        -28.5898  -27.7415    5.8582 H         1 2GQ         0.0888
     22 H6        -28.5454  -29.0384    8.1961 H         1 2GQ         0.0638
     23 H7        -26.9073  -29.4337    9.9883 H         1 2GQ         0.0670
     24 H8        -30.1082  -27.3482    4.1115 H         1 2GQ         0.0530
     25 H9        -30.1115  -29.1370    3.9476 H         1 2GQ         0.0530
     26 H10       -30.4325  -27.0145    1.8280 H         1 2GQ         0.0286
     27 H11       -31.1233  -28.6710    1.9019 H         1 2GQ         0.0286
     28 H12       -29.1552  -28.2134    0.3059 H         1 2GQ         0.0286
     29 H13       -29.0981  -29.6597    1.3697 H         1 2GQ         0.0286
     30 H14       -27.0153  -28.5902    1.7835 H         1 2GQ         0.0530
     31 H15       -27.7598  -26.9554    1.7784 H         1 2GQ         0.0530
@<TRIPOS>BOND
     1    1    2 2  
     2    2    3 1  
     3    2    6 am 
     4    3    4 ar 
     5    3    9 ar 
     6    4    5 ar 
     7    5   11 ar 
     8    6    7 1  
     9    7    8 1  
    10    7   12 2  
    11    8    9 1  
    12    9   10 ar 
    13   10   11 ar 
    14   12   13 1  
    15   12   16 1  
    16   13   14 1  
    17   14   15 1  
    18   15   16 1  
    19    4   17 1  
    20    5   18 1  
    21    6   19 1  
    22    8   20 1  
    23    8   21 1  
    24   10   22 1  
    25   11   23 1  
    26   13   24 1  
    27   13   25 1  
    28   14   26 1  
    29   14   27 1  
    30   15   28 1  
    31   15   29 1  
    32   16   30 1  
    33   16   31 1  
@<TRIPOS>SUBSTRUCTURE
     1 2GQ         1

