### 
### Created by X-TOOL on Mon Sep 10 21:13:16 2018
### 

@<TRIPOS>MOLECULE
4n8d_ligand
   52    54     1     0     0
SMALL
GAST_HUCK


@<TRIPOS>ATOM
      1 C1         17.9940   33.9110   54.6070 C.3       1 2KS         0.0032
      2 C2         18.2790   35.4180   54.8790 C.ar      1 2KS        -0.0418
      3 C3         17.1200   33.2450   55.7300 C.3       1 2KS        -0.0638
      4 C11        19.2280   37.5620   54.0980 C.ar      1 2KS        -0.0324
      5 C12        18.4430   37.3480   56.3660 C.ar      1 2KS        -0.0324
      6 C13        16.2400   31.4030   54.1060 C.3       1 2KS         0.0607
      7 C14        19.0030   38.1390   55.3550 C.ar      1 2KS        -0.0340
      8 C16        15.6190   29.4110   52.8410 C.3       1 2KS         0.0808
      9 C17        15.5180   27.9080   52.9550 C.2       1 2KS        -0.0483
     10 C18        16.3170   27.0460   52.2970 C.2       1 2KS        -0.0646
     11 C19        16.1960   25.5370   52.4070 C.ar      1 2KS        -0.0409
     12 C20        16.2780   24.7730   51.2200 C.ar      1 2KS        -0.0619
     13 C21        15.9770   24.8670   53.6390 C.ar      1 2KS        -0.0619
     14 C22        16.1610   23.3650   51.2650 C.ar      1 2KS        -0.0664
     15 C23        15.8600   23.4590   53.6850 C.ar      1 2KS        -0.0664
     16 C24        15.9640   22.7080   52.4970 C.ar      1 2KS        -0.0664
     17 C4         17.1710   33.7180   53.2820 C.3       1 2KS        -0.0638
     18 C5         19.4150   33.2560   54.5200 C.3       1 2KS        -0.0517
     19 C6         18.8650   36.2150   53.8770 C.ar      1 2KS        -0.0391
     20 C7         18.0780   36.0250   56.1590 C.ar      1 2KS        -0.0391
     21 C8         16.8910   31.7170   55.4930 C.3       1 2KS        -0.0330
     22 C9         16.8740   32.2210   52.9270 C.3       1 2KS        -0.0330
     23 N10        20.1570   33.4130   55.7810 N.4       1 2KS         0.2128
     24 O15        16.3840   29.9550   53.9570 O.3       1 2KS        -0.3613
     25 H          16.1415   33.7468   55.7578 H         1 2KS         0.0178
     26 H          17.6282   33.3784   56.6964 H         1 2KS         0.0178
     27 H          19.6770   38.1446   53.3017 H         1 2KS         0.0698
     28 H          18.2890   37.7850   57.3460 H         1 2KS         0.0698
     29 H          15.1702   31.6561   54.1435 H         1 2KS         0.0598
     30 H          19.2572   39.1762   55.5410 H         1 2KS         0.0856
     31 H          14.6078   29.8440   52.8495 H         1 2KS         0.0765
     32 H          16.1209   29.6700   51.8971 H         1 2KS         0.0765
     33 H          14.7516   27.4959   53.6098 H         1 2KS         0.0758
     34 H          17.0925   27.4542   51.6505 H         1 2KS         0.0431
     35 H          16.4316   25.2704   50.2692 H         1 2KS         0.0579
     36 H          15.8986   25.4415   54.5549 H         1 2KS         0.0579
     37 H          16.2229   22.7883   50.3492 H         1 2KS         0.0605
     38 H          15.6908   22.9583   54.6314 H         1 2KS         0.0605
     39 H          15.8927   21.6269   52.5303 H         1 2KS         0.0579
     40 H          17.7409   34.1632   52.4532 H         1 2KS         0.0178
     41 H          16.2113   34.2442   53.3915 H         1 2KS         0.0178
     42 H          19.9817   33.7370   53.7091 H         1 2KS         0.0715
     43 H          19.3021   32.1837   54.3025 H         1 2KS         0.0715
     44 H          19.0440   35.7791   52.9008 H         1 2KS         0.0850
     45 H          17.6403   35.4511   56.9678 H         1 2KS         0.0850
     46 H          16.2298   31.3350   56.2847 H         1 2KS         0.0283
     47 H          17.8628   31.2045   55.5478 H         1 2KS         0.0283
     48 H          16.1777   32.1983   52.0757 H         1 2KS         0.0283
     49 H          17.8200   31.7387   52.6399 H         1 2KS         0.0283
     50 H          21.0641   32.9824   55.6929 H         1 2KS         0.1986
     51 H          19.6462   32.9703   56.5288 H         1 2KS         0.1986
     52 H          20.2690   34.3937   55.9851 H         1 2KS         0.1986
@<TRIPOS>BOND
     1    1    2 1  
     2    3    1 1  
     3    1   17 1  
     4    1   18 1  
     5    2   19 ar 
     6    2   20 ar 
     7   21    3 1  
     8    4    7 ar 
     9   19    4 ar 
    10    5    7 ar 
    11   20    5 ar 
    12    6   21 1  
    13    6   22 1  
    14   24    6 1  
    15    8    9 1  
    16    8   24 1  
    17    9   10 2  
    18   10   11 1  
    19   11   12 ar 
    20   11   13 ar 
    21   12   14 ar 
    22   13   15 ar 
    23   14   16 ar 
    24   15   16 ar 
    25   17   22 1  
    26   18   23 1  
    27    3   25 1  
    28    3   26 1  
    29    4   27 1  
    30    5   28 1  
    31    6   29 1  
    32    7   30 1  
    33    8   31 1  
    34    8   32 1  
    35    9   33 1  
    36   10   34 1  
    37   12   35 1  
    38   13   36 1  
    39   14   37 1  
    40   15   38 1  
    41   16   39 1  
    42   17   40 1  
    43   17   41 1  
    44   18   42 1  
    45   18   43 1  
    46   19   44 1  
    47   20   45 1  
    48   21   46 1  
    49   21   47 1  
    50   22   48 1  
    51   22   49 1  
    52   23   50 1  
    53   23   51 1  
    54   23   52 1  
@<TRIPOS>SUBSTRUCTURE
     1 2KS         1

