### 
### Created by X-TOOL on Mon Sep 10 21:13:17 2018
### 

@<TRIPOS>MOLECULE
4n8e_ligand
   48    50     1     0     0
SMALL
GAST_HUCK


@<TRIPOS>ATOM
      1 C2         15.4040   29.0900   53.1470 C.2       1 2KV         0.1787
      2 C3         17.9860   33.7120   54.7870 C.3       1 2KV         0.0032
      3 C11        17.1120   31.3230   55.4230 C.3       1 2KV        -0.0364
      4 C12        18.9140   37.4920   54.7140 C.ar      1 2KV         0.0693
      5 C13        17.8490   28.8360   53.5930 C.3       1 2KV         0.0343
      6 C16        19.4740   33.2100   54.7250 C.3       1 2KV        -0.0517
      7 C17        15.2660   27.6350   52.7430 C.3       1 2KV         0.0375
      8 C18        17.8050   35.6920   56.5050 C.ar      1 2KV        -0.0390
      9 C19        18.0190   37.0220   56.9040 C.ar      1 2KV        -0.0319
     10 C20        18.5870   37.9380   56.0040 C.ar      1 2KV        -0.0199
     11 C21        17.7140   27.3020   53.3820 C.3       1 2KV        -0.0304
     12 C22        16.6200   27.0140   52.3130 C.3       1 2KV        -0.0342
     13 N1         16.6020   29.6410   53.5410 N.am      1 2KV        -0.2702
     14 C4         18.1350   35.2220   55.2090 C.ar      1 2KV        -0.0413
     15 C5         16.6050   31.0750   53.9500 C.3       1 2KV         0.0436
     16 O6         14.3490   29.7190   53.1130 O.2       1 2KV        -0.3969
     17 C7         18.7300   36.1620   54.3510 C.ar      1 2KV        -0.0250
     18 C8         17.2250   33.5460   53.4060 C.3       1 2KV        -0.0641
     19 C9         17.2230   32.8230   55.8530 C.3       1 2KV        -0.0641
     20 C10        17.1030   32.0950   52.8560 C.3       1 2KV        -0.0364
     21 CL1        19.6520   38.5270   53.5200 Cl        1 2KV        -0.0626
     22 N15        20.2980   33.5610   55.8950 N.4       1 2KV         0.2128
     23 H          18.1089   30.8681   55.5195 H         1 2KV         0.0280
     24 H          16.4132   30.8241   56.1106 H         1 2KV         0.0280
     25 H          18.5229   29.2193   52.8127 H         1 2KV         0.0522
     26 H          18.3045   28.9952   54.5815 H         1 2KV         0.0522
     27 H          19.9449   33.6473   53.8323 H         1 2KV         0.0715
     28 H          19.4610   32.1139   54.6331 H         1 2KV         0.0715
     29 H          14.5619   27.5668   51.9006 H         1 2KV         0.0502
     30 H          14.8713   27.0662   53.5978 H         1 2KV         0.0502
     31 H          17.3707   34.9983   57.2158 H         1 2KV         0.0852
     32 H          17.7464   37.3401   57.9038 H         1 2KV         0.0698
     33 H          18.7686   38.9653   56.2985 H         1 2KV         0.0862
     34 H          17.4310   26.8256   54.3323 H         1 2KV         0.0286
     35 H          18.6763   26.8939   53.0395 H         1 2KV         0.0286
     36 H          16.9294   27.4498   51.3516 H         1 2KV         0.0290
     37 H          16.5004   25.9263   52.2010 H         1 2KV         0.0290
     38 H          15.5329   31.3107   54.0211 H         1 2KV         0.0558
     39 H          19.0579   35.8387   53.3696 H         1 2KV         0.0857
     40 H          17.7597   34.1454   52.6545 H         1 2KV         0.0178
     41 H          16.2070   33.9424   53.5345 H         1 2KV         0.0178
     42 H          16.2084   33.2266   55.9856 H         1 2KV         0.0178
     43 H          17.7663   32.8756   56.8080 H         1 2KV         0.0178
     44 H          16.3876   32.0934   52.0204 H         1 2KV         0.0280
     45 H          18.0899   31.7707   52.4944 H         1 2KV         0.0280
     46 H          21.2310   33.2008   55.7691 H         1 2KV         0.1986
     47 H          19.8917   33.1586   56.7251 H         1 2KV         0.1986
     48 H          20.3351   34.5637   55.9912 H         1 2KV         0.1986
@<TRIPOS>BOND
     1    1    7 1  
     2   13    1 am 
     3    1   16 2  
     4    2    6 1  
     5    2   14 1  
     6    2   18 1  
     7   19    2 1  
     8   15    3 1  
     9    3   19 1  
    10   10    4 ar 
    11    4   17 ar 
    12    4   21 1  
    13    5   11 1  
    14   13    5 1  
    15    6   22 1  
    16    7   12 1  
    17    8    9 ar 
    18   14    8 ar 
    19    9   10 ar 
    20   11   12 1  
    21   13   15 1  
    22   14   17 ar 
    23   15   20 1  
    24   18   20 1  
    25    3   23 1  
    26    3   24 1  
    27    5   25 1  
    28    5   26 1  
    29    6   27 1  
    30    6   28 1  
    31    7   29 1  
    32    7   30 1  
    33    8   31 1  
    34    9   32 1  
    35   10   33 1  
    36   11   34 1  
    37   11   35 1  
    38   12   36 1  
    39   12   37 1  
    40   15   38 1  
    41   17   39 1  
    42   18   40 1  
    43   18   41 1  
    44   19   42 1  
    45   19   43 1  
    46   20   44 1  
    47   20   45 1  
    48   22   46 1  
    49   22   47 1  
    50   22   48 1  
@<TRIPOS>SUBSTRUCTURE
     1 2KV         1

