### 
### Created by X-TOOL on Mon Sep 10 21:13:18 2018
### 

@<TRIPOS>MOLECULE
4n8q_ligand
   16    16     1     0     0
SMALL
GAST_HUCK


@<TRIPOS>ATOM
      1 OAA       -17.8390  -36.8710   17.5620 O.co2     1 FA0        -0.5660
      2 CAB       -18.5290  -35.8240   17.5760 C.2       1 FA0         0.0533
      3 OAC       -19.4930  -35.6370   18.3450 O.co2     1 FA0        -0.5660
      4 CAD       -18.1980  -34.6730   16.6100 C.ar      1 FA0         0.0231
      5 CAE       -18.7740  -33.4110   16.8320 C.ar      1 FA0        -0.0608
      6 CAF       -18.5000  -32.3410   15.9700 C.ar      1 FA0        -0.0377
      7 CAG       -17.6540  -32.5390   14.8730 C.ar      1 FA0         0.1241
      8 FAH       -17.3580  -31.5180   14.0390 F         1 FA0        -0.1846
      9 CAI       -17.0840  -33.7920   14.6490 C.ar      1 FA0        -0.0076
     10 CAJ       -17.3450  -34.8590   15.5140 C.ar      1 FA0         0.0485
     11 NAK       -16.7790  -36.0450   15.2690 N.pl3     1 FA0        -0.3348
     12 H         -19.4362  -33.2638   17.6775 H         1 FA0         0.0607
     13 H         -18.9400  -31.3671   16.1515 H         1 FA0         0.0502
     14 H         -16.4321  -33.9401   13.7957 H         1 FA0         0.0507
     15 H         -16.9606  -36.8417   15.8961 H         1 FA0         0.1734
     16 H         -16.1613  -36.1622   14.4531 H         1 FA0         0.1734
@<TRIPOS>BOND
     1    1    2 ar 
     2    2    3 ar 
     3    2    4 1  
     4    4    5 ar 
     5    4   10 ar 
     6    5    6 ar 
     7    6    7 ar 
     8    7    8 1  
     9    7    9 ar 
    10    9   10 ar 
    11   10   11 1  
    12    5   12 1  
    13    6   13 1  
    14    9   14 1  
    15   11   15 1  
    16   11   16 1  
@<TRIPOS>SUBSTRUCTURE
     1 FA0         1

