### 
### Created by X-TOOL on Mon Sep 10 21:13:18 2018
### 

@<TRIPOS>MOLECULE
4n8r_ligand
   51    54     1     0     0
SMALL
GAST_HUCK


@<TRIPOS>ATOM
      1 C01        47.0390   -6.8110  113.2700 C.3       1 K08        -0.0474
      2 C02        48.5300   -6.9920  113.1040 C.2       1 K08        -0.0690
      3 C03        49.3990   -6.2380  112.1840 C.2       1 K08        -0.0688
      4 C04        50.8380   -6.7530  112.3570 C.ar      1 K08        -0.0508
      5 C05        50.8220   -7.7920  113.3530 C.ar      1 K08        -0.0408
      6 C06        49.3600   -7.9600  113.8410 C.2       1 K08        -0.0272
      7 C07        48.8320   -8.8070  114.7590 C.2       1 K08        -0.0274
      8 C08        49.5330   -9.9910  115.3840 C.ar      1 K08         0.0018
      9 C09        49.4360  -10.1610  116.7550 C.ar      1 K08        -0.0446
     10 C10        50.0570  -11.2310  117.3650 C.ar      1 K08        -0.0466
     11 C11        50.7710  -12.1420  116.6060 C.ar      1 K08        -0.0281
     12 C12        50.8520  -11.9860  115.2310 C.ar      1 K08        -0.0466
     13 C13        50.2270  -10.9150  114.6130 C.ar      1 K08        -0.0446
     14 C14        51.4330  -13.3190  117.2970 C.3       1 K08        -0.0072
     15 C15        52.9420  -13.2630  117.2860 C.3       1 K08        -0.0509
     16 C16        50.9270  -14.6370  116.7600 C.3       1 K08        -0.0509
     17 C17        52.0270   -8.4240  113.6860 C.ar      1 K08        -0.0701
     18 C18        53.2300   -8.0480  113.0570 C.ar      1 K08        -0.0720
     19 C19        53.2270   -7.0190  112.0720 C.ar      1 K08        -0.0723
     20 C20        52.0260   -6.3790  111.7290 C.ar      1 K08        -0.0715
     21 C21        48.9620   -5.1330  111.2550 C.3       1 K08        -0.0244
     22 C22        49.4590   -3.7950  111.7750 C.3       1 K08         0.0114
     23 C23        49.0620   -3.5720  113.2200 C.2       1 K08         0.1193
     24 N24        49.8440   -3.7360  114.2990 N.2       1 K08        -0.1814
     25 N25        49.1120   -3.4480  115.3870 N.2       1 K08        -0.0595
     26 N26        47.8870   -3.1060  115.0070 N.pl3     1 K08        -0.1153
     27 N27        47.8460   -3.1810  113.6620 N.2       1 K08        -0.1626
     28 H          46.6881   -6.0189  112.5922 H         1 K08         0.0337
     29 H          46.8174   -6.5286  114.3098 H         1 K08         0.0337
     30 H          46.5261   -7.7537  113.0288 H         1 K08         0.0337
     31 H          47.8075   -8.6163  115.0753 H         1 K08         0.0980
     32 H          48.8712   -9.4521  117.3496 H         1 K08         0.0702
     33 H          49.9858  -11.3585  118.4391 H         1 K08         0.0594
     34 H          51.4061  -12.7042  114.6374 H         1 K08         0.0594
     35 H          50.2791  -10.7990  113.5365 H         1 K08         0.0702
     36 H          51.1288  -13.2683  118.3529 H         1 K08         0.0485
     37 H          53.3454  -14.1461  117.8031 H         1 K08         0.0258
     38 H          53.2789  -12.3511  117.8006 H         1 K08         0.0258
     39 H          53.3009  -13.2512  116.2463 H         1 K08         0.0258
     40 H          49.8272  -14.6440  116.7821 H         1 K08         0.0258
     41 H          51.3114  -15.4584  117.3824 H         1 K08         0.0258
     42 H          51.2737  -14.7684  115.7244 H         1 K08         0.0258
     43 H          52.0338   -9.2088  114.4338 H         1 K08         0.0590
     44 H          54.1579   -8.5416  113.3225 H         1 K08         0.0546
     45 H          54.1526   -6.7302  111.5872 H         1 K08         0.0563
     46 H          52.0216   -5.5967  110.9786 H         1 K08         0.0571
     47 H          47.8636   -5.1171  111.1980 H         1 K08         0.0393
     48 H          49.3786   -5.3126  110.2529 H         1 K08         0.0393
     49 H          49.0289   -2.9914  111.1593 H         1 K08         0.0462
     50 H          50.5560   -3.7683  111.6987 H         1 K08         0.0462
     51 H          47.1104   -2.8334  115.6263 H         1 K08         0.2882
@<TRIPOS>BOND
     1    1    2 1  
     2    2    3 2  
     3    2    6 1  
     4    3    4 1  
     5    3   21 1  
     6    4    5 ar 
     7    4   20 ar 
     8    5    6 1  
     9    5   17 ar 
    10    6    7 2  
    11    7    8 1  
    12    8    9 ar 
    13    8   13 ar 
    14    9   10 ar 
    15   10   11 ar 
    16   11   12 ar 
    17   11   14 1  
    18   12   13 ar 
    19   14   15 1  
    20   14   16 1  
    21   17   18 ar 
    22   18   19 ar 
    23   19   20 ar 
    24   21   22 1  
    25   22   23 1  
    26   23   24 1  
    27   23   27 2  
    28   24   25 2  
    29   25   26 1  
    30   26   27 1  
    31    1   28 1  
    32    1   29 1  
    33    1   30 1  
    34    7   31 1  
    35    9   32 1  
    36   10   33 1  
    37   12   34 1  
    38   13   35 1  
    39   14   36 1  
    40   15   37 1  
    41   15   38 1  
    42   15   39 1  
    43   16   40 1  
    44   16   41 1  
    45   16   42 1  
    46   17   43 1  
    47   18   44 1  
    48   19   45 1  
    49   20   46 1  
    50   21   47 1  
    51   21   48 1  
    52   22   49 1  
    53   22   50 1  
    54   26   51 1  
@<TRIPOS>SUBSTRUCTURE
     1 K08         1

