### 
### Created by X-TOOL on Mon Sep 10 21:13:16 2018
### 

@<TRIPOS>MOLECULE
4n98_ligand
   24    25     1     0     0
SMALL
GAST_HUCK


@<TRIPOS>ATOM
      1 C1          7.6940   -2.3870   -9.3480 C.ar      1 4FC        -0.0267
      2 C2          7.1210   -2.1510  -10.5810 C.ar      1 4FC         0.1336
      3 C3          7.4240   -2.9870  -11.6510 C.ar      1 4FC        -0.0267
      4 C4          8.2940   -4.0560  -11.5040 C.ar      1 4FC        -0.0549
      5 C5          8.8810   -4.2920  -10.2690 C.ar      1 4FC        -0.0200
      6 C6          8.5670   -3.4560   -9.1940 C.ar      1 4FC        -0.0549
      7 C7          9.4230   -6.6310  -10.5790 C.ar      1 4FC        -0.0517
      8 C8          9.7430   -5.3670  -10.0680 C.ar      1 4FC        -0.0181
      9 C9         10.9060   -5.2080   -9.3140 C.ar      1 4FC        -0.0517
     10 C10        11.7440   -6.2960   -9.0960 C.ar      1 4FC        -0.0479
     11 C11        11.4420   -7.5500   -9.6100 C.ar      1 4FC         0.0093
     12 C12        10.2710   -7.7140  -10.3570 C.ar      1 4FC        -0.0479
     13 F1          6.2500   -1.1010  -10.7510 F         1 4FC        -0.1824
     14 C13        12.3040   -8.6200   -9.3570 C.2       1 4FC         0.0623
     15 O1         13.4340   -8.4170   -8.8520 O.co2     1 4FC        -0.5609
     16 O2         11.9330   -9.7970   -9.5910 O.co2     1 4FC        -0.5609
     17 H           7.4646   -1.7433   -8.5066 H         1 4FC         0.0607
     18 H           6.9712   -2.7988  -12.6178 H         1 4FC         0.0607
     19 H           8.5139   -4.7019  -12.3463 H         1 4FC         0.0619
     20 H           9.0122   -3.6451   -8.2239 H         1 4FC         0.0619
     21 H           8.5116   -6.7674  -11.1497 H         1 4FC         0.0624
     22 H          11.1558   -4.2383   -8.8989 H         1 4FC         0.0624
     23 H          12.6491   -6.1628   -8.5145 H         1 4FC         0.0649
     24 H          10.0223   -8.6871  -10.7647 H         1 4FC         0.0649
@<TRIPOS>BOND
     1    1    2 ar 
     2    1    6 ar 
     3    2    3 ar 
     4    2   13 1  
     5    3    4 ar 
     6    4    5 ar 
     7    5    6 ar 
     8    5    8 1  
     9    8    7 ar 
    10    7   12 ar 
    11    8    9 ar 
    12    9   10 ar 
    13   10   11 ar 
    14   11   12 ar 
    15   11   14 1  
    16   14   15 ar 
    17   14   16 ar 
    18    1   17 1  
    19    3   18 1  
    20    4   19 1  
    21    6   20 1  
    22    7   21 1  
    23    9   22 1  
    24   10   23 1  
    25   12   24 1  
@<TRIPOS>SUBSTRUCTURE
     1 4FC         1

