### 
### Created by X-TOOL on Mon Sep 10 21:13:16 2018
### 

@<TRIPOS>MOLECULE
4n99_ligand
   24    26     1     0     0
SMALL
GAST_HUCK


@<TRIPOS>ATOM
      1 CL        -20.9160    1.0330  -23.7810 Cl        1 2J1        -0.0781
      2 C1        -22.6740    0.8280  -24.0760 C.ar      1 2J1         0.0407
      3 C2        -23.4770    0.2370  -23.1020 C.ar      1 2J1        -0.0505
      4 C3        -24.8330    0.0970  -23.3720 C.ar      1 2J1         0.0001
      5 C6        -25.9420   -0.4710  -22.5800 C.ar      1 2J1        -0.0014
      6 C7        -25.9580   -1.0870  -21.2020 C.ar      1 2J1        -0.0670
      7 C8        -27.4150   -1.1330  -20.7290 C.ar      1 2J1        -0.0742
      8 C9        -28.4110   -1.6350  -21.7850 C.ar      1 2J1        -0.0724
      9 C10       -28.5170   -0.7580  -23.0380 C.ar      1 2J1        -0.0395
     10 C5        -27.1340   -0.3120  -23.4490 C.ar      1 2J1         0.0668
     11 N         -26.7710    0.2770  -24.6100 N.pl3     1 2J1        -0.2731
     12 C4        -25.4480    0.5480  -24.6490 C.ar      1 2J1         0.0699
     13 C11       -24.6350    1.1360  -25.6160 C.ar      1 2J1        -0.0251
     14 C12       -23.2700    1.2890  -25.3670 C.ar      1 2J1         0.0129
     15 C13       -22.3960    1.9200  -26.4090 C.2       1 2J1         0.0592
     16 O2        -21.8380    2.9820  -26.1960 O.co2     1 2J1        -0.5614
     17 O1        -22.2190    1.3210  -27.5830 O.co2     1 2J1        -0.5614
     18 H         -23.0566   -0.1031  -22.1625 H         1 2J1         0.0590
     19 H         -25.0942   -1.4344  -20.6468 H         1 2J1         0.0581
     20 H         -27.7177   -0.8358  -19.7314 H         1 2J1         0.0519
     21 H         -28.9940   -2.5395  -21.6544 H         1 2J1         0.0573
     22 H         -29.4380   -0.4993  -23.5478 H         1 2J1         0.0541
     23 H         -27.4258    0.4937  -25.3749 H         1 2J1         0.2164
     24 H         -25.0596    1.4722  -26.5550 H         1 2J1         0.0577
@<TRIPOS>BOND
     1    1    2 1  
     2    2    3 ar 
     3    2   14 ar 
     4    3    4 ar 
     5    4    5 1  
     6    4   12 ar 
     7    5    6 ar 
     8    5   10 ar 
     9    6    7 ar 
    10    7    8 ar 
    11    8    9 ar 
    12    9   10 ar 
    13   10   11 1  
    14   11   12 1  
    15   12   13 ar 
    16   13   14 ar 
    17   14   15 1  
    18   15   16 ar 
    19   15   17 ar 
    20    3   18 1  
    21    6   19 1  
    22    7   20 1  
    23    8   21 1  
    24    9   22 1  
    25   11   23 1  
    26   13   24 1  
@<TRIPOS>SUBSTRUCTURE
     1 2J1         1

