### 
### Created by X-TOOL on Mon Sep 10 21:13:15 2018
### 

@<TRIPOS>MOLECULE
4n9a_ligand
   28    30     1     0     0
SMALL
GAST_HUCK


@<TRIPOS>ATOM
      1 C4         10.8890   -6.4000  -11.2550 C.2       1 2J2         0.0540
      2 C5         10.6510   -5.6300  -10.0160 C.2       1 2J2        -0.0461
      3 C6         11.3560   -5.8950   -8.7180 C.3       1 2J2        -0.0417
      4 C7         11.9480   -7.3050   -8.7600 C.3       1 2J2        -0.0470
      5 C8         12.6940   -7.6310  -10.0630 C.3       1 2J2        -0.0266
      6 C10        11.1010   -8.7880  -11.5980 C.2       1 2J2         0.0510
      7 O1          9.9040   -8.8730  -11.3880 O.co2     1 2J2        -0.5660
      8 O          11.7360   -9.8550  -12.0620 O.co2     1 2J2        -0.5660
      9 C9         11.8560   -7.5170  -11.3430 C.3       1 2J2         0.0635
     10 C2          9.6310   -4.6410  -10.3970 C.ar      1 2J2        -0.0308
     11 C1          8.9750   -3.6330   -9.7100 C.ar      1 2J2        -0.0657
     12 N          10.1050   -5.9290  -12.2550 N.pl3     1 2J2        -0.2799
     13 C3          9.3450   -4.9040  -11.8280 C.ar      1 2J2         0.0564
     14 C11         8.4050   -4.1000  -12.4660 C.ar      1 2J2        -0.0475
     15 C12         7.7580   -3.0980  -11.7490 C.ar      1 2J2        -0.0663
     16 C           8.0310   -2.8710  -10.4020 C.ar      1 2J2         0.0187
     17 CL          7.1290   -1.5480   -9.6130 Cl        1 2J2        -0.0834
     18 H          10.6406   -5.8187   -7.8859 H         1 2J2         0.0322
     19 H          12.1617   -5.1594   -8.5775 H         1 2J2         0.0322
     20 H          11.1278   -8.0282   -8.6408 H         1 2J2         0.0279
     21 H          12.6533   -7.4091   -7.9223 H         1 2J2         0.0279
     22 H          13.0675   -8.6632   -9.9919 H         1 2J2         0.0309
     23 H          13.5442   -6.9386  -10.1505 H         1 2J2         0.0309
     24 H          12.5360   -7.3311  -12.1874 H         1 2J2         0.0641
     25 H           9.1883   -3.4409   -8.6647 H         1 2J2         0.0518
     26 H          10.0925   -6.3053  -13.2137 H         1 2J2         0.2218
     27 H           8.1783   -4.2533  -13.5149 H         1 2J2         0.0532
     28 H           7.0234   -2.4789  -12.2511 H         1 2J2         0.0508
@<TRIPOS>BOND
     1    1    2 2  
     2    9    1 1  
     3    1   12 1  
     4    2    3 1  
     5    2   10 1  
     6    4    3 1  
     7    5    4 1  
     8    9    5 1  
     9    6    7 ar 
    10    6    8 ar 
    11    6    9 1  
    12   10   11 ar 
    13   10   13 ar 
    14   11   16 ar 
    15   12   13 1  
    16   13   14 ar 
    17   14   15 ar 
    18   15   16 ar 
    19   16   17 1  
    20    3   18 1  
    21    3   19 1  
    22    4   20 1  
    23    4   21 1  
    24    5   22 1  
    25    5   23 1  
    26    9   24 1  
    27   11   25 1  
    28   12   26 1  
    29   14   27 1  
    30   15   28 1  
@<TRIPOS>SUBSTRUCTURE
     1 2J2         1

