### 
### Created by X-TOOL on Mon Sep 10 21:13:20 2018
### 

@<TRIPOS>MOLECULE
4n9b_ligand
   25    26     1     0     0
SMALL
GAST_HUCK


@<TRIPOS>ATOM
      1 C1         16.9700  -15.7290   -2.0610 C.3       1 2HH         0.0615
      2 N2         15.5340  -15.4500   -2.0400 N.pl3     1 2HH        -0.1924
      3 C3         14.6860  -15.6970   -0.9890 C.2       1 2HH         0.1649
      4 C4         13.4370  -15.2700   -1.4200 C.2       1 2HH        -0.0254
      5 C5         13.6310  -14.7880   -2.7210 C.2       1 2HH         0.0044
      6 N6         14.8970  -14.9240   -3.0220 N.2       1 2HH        -0.2080
      7 C7         15.0330  -16.3040    0.3220 C.2       1 2HH         0.2617
      8 O8         15.9270  -17.1270    0.4080 O.2       1 2HH        -0.3699
      9 N9         14.3380  -15.9280    1.4210 N.am      1 2HH        -0.2242
     10 C10        14.4890  -16.3510    2.7600 C.ar      1 2HH         0.0940
     11 C11        13.6150  -15.7980    3.6840 C.ar      1 2HH        -0.0216
     12 C12        13.6920  -16.1570    5.0120 C.ar      1 2HH        -0.0480
     13 C13        14.6500  -17.0690    5.3900 C.ar      1 2HH        -0.0050
     14 N14        15.4750  -17.5960    4.5150 N.ar      1 2HH        -0.3128
     15 C15        15.4210  -17.2690    3.2390 C.ar      1 2HH         0.0313
     16 H          17.3879  -15.4274   -3.0328 H         1 2HH         0.0605
     17 H          17.1367  -16.8055   -1.9085 H         1 2HH         0.0605
     18 H          17.4651  -15.1638   -1.2576 H         1 2HH         0.0605
     19 H          12.5018  -15.3029   -0.8630 H         1 2HH         0.0432
     20 H          12.8613  -14.3721   -3.3695 H         1 2HH         0.0679
     21 H          13.6152  -15.2554    1.2623 H         1 2HH         0.2278
     22 H          12.8690  -15.0811    3.3604 H         1 2HH         0.0622
     23 H          13.0134  -15.7307    5.7420 H         1 2HH         0.0667
     24 H          14.7254  -17.3586    6.4319 H         1 2HH         0.0691
     25 H          16.1185  -17.7253    2.5459 H         1 2HH         0.0711
@<TRIPOS>BOND
     1    1    2 1  
     2    2    3 1  
     3    2    6 1  
     4    3    4 2  
     5    3    7 1  
     6    4    5 1  
     7    5    6 2  
     8    7    8 2  
     9    7    9 am 
    10    9   10 1  
    11   10   11 ar 
    12   10   15 ar 
    13   11   12 ar 
    14   12   13 ar 
    15   13   14 ar 
    16   14   15 ar 
    17    1   16 1  
    18    1   17 1  
    19    1   18 1  
    20    4   19 1  
    21    5   20 1  
    22    9   21 1  
    23   11   22 1  
    24   12   23 1  
    25   13   24 1  
    26   15   25 1  
@<TRIPOS>SUBSTRUCTURE
     1 2HH         1

