### 
### Created by X-TOOL on Mon Sep 10 21:13:17 2018
### 

@<TRIPOS>MOLECULE
4n9c_ligand
   17    18     1     0     0
SMALL
GAST_HUCK


@<TRIPOS>ATOM
      1 O1         10.9800    9.5740   38.3410 O.2       1 2ZM         0.1742
      2 N2         10.0730    8.7600   38.3090 N.2       1 2ZM         0.3067
      3 O3          9.2510    8.7990   37.4130 O.2       1 2ZM         0.1742
      4 C4          9.9890    7.7050   39.3450 C.ar      1 2ZM         0.1857
      5 C5          8.9580    6.7830   39.3050 C.ar      1 2ZM        -0.0316
      6 C6          8.8710    5.7910   40.2530 C.ar      1 2ZM        -0.0315
      7 C7          9.8230    5.7110   41.2590 C.ar      1 2ZM         0.0890
      8 N8         10.0180    4.8610   42.3370 N.pl3     1 2ZM        -0.2477
      9 C9         11.1370    5.2850   42.9870 C.2       1 2ZM         0.1050
     10 N10        11.6370    6.3260   42.3880 N.2       1 2ZM        -0.3036
     11 C11        10.8720    6.6460   41.3070 C.ar      1 2ZM         0.0427
     12 C12        10.9450    7.6460   40.3340 C.ar      1 2ZM        -0.0168
     13 H           8.2129    6.8433   38.5199 H         1 2ZM         0.0613
     14 H           8.0601    5.0727   40.2145 H         1 2ZM         0.0565
     15 H           9.4269    4.0587   42.5975 H         1 2ZM         0.2358
     16 H          11.5532    4.8198   43.8794 H         1 2ZM         0.1357
     17 H          11.7500    8.3715   40.3576 H         1 2ZM         0.0644
@<TRIPOS>BOND
     1    1    2 2  
     2    2    3 2  
     3    2    4 1  
     4    4    5 ar 
     5    4   12 ar 
     6    5    6 ar 
     7    6    7 ar 
     8    7    8 1  
     9    7   11 ar 
    10    8    9 1  
    11    9   10 2  
    12   10   11 1  
    13   11   12 ar 
    14    5   13 1  
    15    6   14 1  
    16    8   15 1  
    17    9   16 1  
    18   12   17 1  
@<TRIPOS>SUBSTRUCTURE
     1 2ZM         1

