### 
### Created by X-TOOL on Mon Sep 10 21:13:16 2018
### 

@<TRIPOS>MOLECULE
4n9d_ligand
   55    57     1     0     0
SMALL
GAST_HUCK


@<TRIPOS>ATOM
      1 C1         18.8220   -0.2950   -5.1470 C.3       1 2HJ        -0.0835
      2 C2         19.1750    1.1030   -4.6200 C.3       1 2HJ        -0.0447
      3 C3         19.6650    1.9830   -5.7720 C.3       1 2HJ        -0.0835
      4 C4         20.3150    0.9840   -3.6130 C.3       1 2HJ        -0.0835
      5 C5         17.9490    1.7050   -3.9560 C.ar      1 2HJ        -0.0473
      6 C6         17.6400    1.3520   -2.6490 C.ar      1 2HJ        -0.0374
      7 C7         16.5190    1.8870   -2.0380 C.ar      1 2HJ        -0.0055
      8 C8         15.6990    2.7780   -2.7120 C.ar      1 2HJ         0.1363
      9 C9         16.0120    3.1380   -4.0150 C.ar      1 2HJ        -0.0055
     10 C10        17.1290    2.5960   -4.6360 C.ar      1 2HJ        -0.0374
     11 S11        14.2750    3.4500   -1.9030 S.o2      1 2HJ         0.0824
     12 O12        13.5770    2.3390   -1.3460 O.2       1 2HJ        -0.1466
     13 O13        13.6390    4.3460   -2.8280 O.2       1 2HJ        -0.1466
     14 N14        14.8740    4.3680   -0.6460 N.am      1 2HJ        -0.2325
     15 C15        15.8150    5.4780   -0.9210 C.3       1 2HJ         0.0626
     16 C16        15.7040    6.4120    0.2560 C.ar      1 2HJ        -0.0199
     17 C17        14.5510    7.1560    0.3580 C.ar      1 2HJ        -0.0529
     18 C18        14.3910    7.9990    1.4310 C.ar      1 2HJ        -0.0480
     19 C19        15.4000    8.1300    2.3840 C.ar      1 2HJ         0.0493
     20 C20        16.5530    7.3380    2.3090 C.ar      1 2HJ        -0.0480
     21 C21        16.7020    6.4930    1.2210 C.ar      1 2HJ        -0.0529
     22 C22        15.0650    8.9780    3.5350 C.2       1 2HJ         0.2294
     23 O23        14.3010    9.9170    3.4500 O.2       1 2HJ        -0.3751
     24 N24        15.5440    8.5070    4.7050 N.am      1 2HJ        -0.2271
     25 C25        15.2580    8.8920    6.0160 C.ar      1 2HJ         0.0939
     26 C26        16.0010    8.3670    7.0680 C.ar      1 2HJ        -0.0216
     27 C27        15.6050    8.6790    8.3680 C.ar      1 2HJ        -0.0480
     28 C28        14.4750    9.4460    8.5770 C.ar      1 2HJ        -0.0050
     29 N29        13.7600    9.8970    7.5550 N.ar      1 2HJ        -0.3128
     30 C30        14.1020    9.6160    6.3100 C.ar      1 2HJ         0.0313
     31 H          19.7052   -0.7386   -5.6299 H         1 2HJ         0.0139
     32 H          18.0050   -0.2154   -5.8793 H         1 2HJ         0.0139
     33 H          18.5029   -0.9328   -4.3095 H         1 2HJ         0.0139
     34 H          19.9163    2.9828   -5.3884 H         1 2HJ         0.0139
     35 H          18.8726    2.0696   -6.5300 H         1 2HJ         0.0139
     36 H          20.5584    1.5292   -6.2257 H         1 2HJ         0.0139
     37 H          19.9946    0.3553   -2.7691 H         1 2HJ         0.0139
     38 H          20.5838    1.9846   -3.2435 H         1 2HJ         0.0139
     39 H          21.1884    0.5262   -4.1003 H         1 2HJ         0.0139
     40 H          18.2750    0.6593   -2.1086 H         1 2HJ         0.0851
     41 H          16.2794    1.6053   -1.0190 H         1 2HJ         0.0718
     42 H          15.3841    3.8427   -4.5482 H         1 2HJ         0.0718
     43 H          17.3627    2.8700   -5.6584 H         1 2HJ         0.0851
     44 H          14.5975    4.1687    0.2941 H         1 2HJ         0.1704
     45 H          15.5343    5.9969   -1.8494 H         1 2HJ         0.0649
     46 H          16.8425    5.0957   -1.0109 H         1 2HJ         0.0649
     47 H          13.7787    7.0780   -0.3987 H         1 2HJ         0.0570
     48 H          13.4735    8.5664    1.5373 H         1 2HJ         0.0652
     49 H          17.3102    7.3850    3.0833 H         1 2HJ         0.0652
     50 H          17.5994    5.8931    1.1218 H         1 2HJ         0.0570
     51 H          16.2089    7.7649    4.6196 H         1 2HJ         0.2277
     52 H          16.8617    7.7345    6.8829 H         1 2HJ         0.0622
     53 H          16.1823    8.3207    9.2126 H         1 2HJ         0.0667
     54 H          14.1687    9.6823    9.5896 H         1 2HJ         0.0691
     55 H          13.4696    9.9560    5.4979 H         1 2HJ         0.0711
@<TRIPOS>BOND
     1    1    2 1  
     2    2    3 1  
     3    2    4 1  
     4    2    5 1  
     5    5    6 ar 
     6    5   10 ar 
     7    6    7 ar 
     8    7    8 ar 
     9    8    9 ar 
    10    8   11 1  
    11    9   10 ar 
    12   11   12 2  
    13   11   13 2  
    14   11   14 am 
    15   14   15 1  
    16   15   16 1  
    17   16   17 ar 
    18   16   21 ar 
    19   17   18 ar 
    20   18   19 ar 
    21   19   20 ar 
    22   19   22 1  
    23   20   21 ar 
    24   22   23 2  
    25   22   24 am 
    26   24   25 1  
    27   25   26 ar 
    28   25   30 ar 
    29   26   27 ar 
    30   27   28 ar 
    31   28   29 ar 
    32   29   30 ar 
    33    1   31 1  
    34    1   32 1  
    35    1   33 1  
    36    3   34 1  
    37    3   35 1  
    38    3   36 1  
    39    4   37 1  
    40    4   38 1  
    41    4   39 1  
    42    6   40 1  
    43    7   41 1  
    44    9   42 1  
    45   10   43 1  
    46   14   44 1  
    47   15   45 1  
    48   15   46 1  
    49   17   47 1  
    50   18   48 1  
    51   20   49 1  
    52   21   50 1  
    53   24   51 1  
    54   26   52 1  
    55   27   53 1  
    56   28   54 1  
    57   30   55 1  
@<TRIPOS>SUBSTRUCTURE
     1 2HJ         1

