### 
### Created by X-TOOL on Mon Sep 10 21:13:16 2018
### 

@<TRIPOS>MOLECULE
4n9e_ligand
   58    62     1     0     0
SMALL
GAST_HUCK


@<TRIPOS>ATOM
      1 C1          9.3010    4.0900   -5.8250 C.ar      1 2HL        -0.0575
      2 C2         10.0700    3.1910   -6.5390 C.ar      1 2HL        -0.0562
      3 C3         11.4500    3.3180   -6.5430 C.ar      1 2HL        -0.0419
      4 C4         12.0530    4.3460   -5.8080 C.ar      1 2HL         0.0500
      5 C5         11.2510    5.2510   -5.0890 C.ar      1 2HL        -0.0419
      6 C6          9.8760    5.1250   -5.0940 C.ar      1 2HL        -0.0562
      7 C7         13.5350    4.4960   -5.7990 C.2       1 2HL         0.2074
      8 O8         14.1080    4.8900   -6.8030 O.2       1 2HL        -0.3845
      9 N9         14.2650    4.1970   -4.6960 N.am      1 2HL        -0.2724
     10 C10        15.7290    4.3610   -4.7150 C.3       1 2HL         0.0337
     11 C11        16.0770    5.3490   -3.5900 C.3       1 2HL        -0.0272
     12 C12        15.6470    4.7350   -2.2470 C.3       1 2HL        -0.0102
     13 C13        14.1310    4.4530   -2.2070 C.3       1 2HL        -0.0272
     14 C14        13.6350    3.6980   -3.4520 C.3       1 2HL         0.0337
     15 C15        16.1200    5.6320   -1.0820 C.3       1 2HL         0.0612
     16 N16        15.3450    6.8570   -0.8070 N.pl3     1 2HL        -0.2337
     17 C17        14.3870    7.4690   -1.5650 C.2       1 2HL         0.1072
     18 N18        13.9330    8.5270   -0.9580 N.2       1 2HL        -0.3040
     19 C19        14.5610    8.6670    0.2440 C.ar      1 2HL         0.0401
     20 C20        15.4670    7.6050    0.3520 C.ar      1 2HL         0.0905
     21 C21        16.2610    7.4850    1.4840 C.ar      1 2HL        -0.0338
     22 C22        16.1540    8.3950    2.4990 C.ar      1 2HL        -0.0542
     23 C23        15.2810    9.4850    2.3840 C.ar      1 2HL         0.0424
     24 C24        14.4490    9.6000    1.2740 C.ar      1 2HL        -0.0396
     25 C25        15.0810   10.4000    3.5190 C.2       1 2HL         0.2266
     26 O26        14.5470   11.4870    3.4100 O.2       1 2HL        -0.3762
     27 N27        15.4070    9.8340    4.7060 N.am      1 2HL        -0.2275
     28 C28        15.1960   10.2940    6.0060 C.ar      1 2HL         0.0939
     29 C29        15.9540    9.7970    7.0720 C.ar      1 2HL        -0.0216
     30 C30        15.6100   10.2340    8.3420 C.ar      1 2HL        -0.0480
     31 C31        14.5290   11.0810    8.5230 C.ar      1 2HL        -0.0050
     32 N32        13.8050   11.4980    7.4990 N.ar      1 2HL        -0.3128
     33 C33        14.0930   11.1150    6.2730 C.ar      1 2HL         0.0313
     34 H           8.2220    3.9863   -5.8346 H         1 2HL         0.0653
     35 H           9.5957    2.3896   -7.0938 H         1 2HL         0.0629
     36 H          12.0593    2.6252   -7.1121 H         1 2HL         0.0669
     37 H          11.7158    6.0530   -4.5270 H         1 2HL         0.0669
     38 H           9.2560    5.8195   -4.5388 H         1 2HL         0.0629
     39 H          16.0530    4.7630   -5.6863 H         1 2HL         0.0522
     40 H          16.2213    3.3938   -4.5359 H         1 2HL         0.0522
     41 H          15.5436    6.2973   -3.7515 H         1 2HL         0.0288
     42 H          17.1612    5.5348   -3.5822 H         1 2HL         0.0288
     43 H          16.1582    3.7664   -2.1449 H         1 2HL         0.0328
     44 H          13.5962    5.4119   -2.1407 H         1 2HL         0.0288
     45 H          13.9091    3.8470   -1.3163 H         1 2HL         0.0288
     46 H          13.8737    2.6304   -3.3374 H         1 2HL         0.0522
     47 H          12.5451    3.8235   -3.5317 H         1 2HL         0.0522
     48 H          17.1536    5.9383   -1.3007 H         1 2HL         0.0611
     49 H          16.1045    5.0203   -0.1679 H         1 2HL         0.0611
     50 H          14.0505    7.1204   -2.5403 H         1 2HL         0.1358
     51 H          16.9682    6.6673    1.5637 H         1 2HL         0.0561
     52 H          16.7478    8.2725    3.3976 H         1 2HL         0.0591
     53 H          13.7242   10.4036    1.2113 H         1 2HL         0.0618
     54 H          15.8703    8.9502    4.6401 H         1 2HL         0.2276
     55 H          16.7714    9.1032    6.9124 H         1 2HL         0.0622
     56 H          16.1905    9.9109    9.1985 H         1 2HL         0.0667
     57 H          14.2719   11.4082    9.5240 H         1 2HL         0.0690
     58 H          13.4636   11.4417    5.4531 H         1 2HL         0.0711
@<TRIPOS>BOND
     1    1    2 ar 
     2    1    6 ar 
     3    2    3 ar 
     4    3    4 ar 
     5    4    5 ar 
     6    4    7 1  
     7    5    6 ar 
     8    7    8 2  
     9    7    9 am 
    10    9   10 1  
    11    9   14 1  
    12   10   11 1  
    13   11   12 1  
    14   12   13 1  
    15   12   15 1  
    16   13   14 1  
    17   15   16 1  
    18   16   17 1  
    19   16   20 1  
    20   17   18 2  
    21   18   19 1  
    22   19   20 ar 
    23   19   24 ar 
    24   20   21 ar 
    25   21   22 ar 
    26   22   23 ar 
    27   23   24 ar 
    28   23   25 1  
    29   25   26 2  
    30   25   27 am 
    31   27   28 1  
    32   28   29 ar 
    33   28   33 ar 
    34   29   30 ar 
    35   30   31 ar 
    36   31   32 ar 
    37   32   33 ar 
    38    1   34 1  
    39    2   35 1  
    40    3   36 1  
    41    5   37 1  
    42    6   38 1  
    43   10   39 1  
    44   10   40 1  
    45   11   41 1  
    46   11   42 1  
    47   12   43 1  
    48   13   44 1  
    49   13   45 1  
    50   14   46 1  
    51   14   47 1  
    52   15   48 1  
    53   15   49 1  
    54   17   50 1  
    55   21   51 1  
    56   22   52 1  
    57   24   53 1  
    58   27   54 1  
    59   29   55 1  
    60   30   56 1  
    61   31   57 1  
    62   33   58 1  
@<TRIPOS>SUBSTRUCTURE
     1 2HL         1

