### 
### Created by X-TOOL on Mon Sep 10 21:13:20 2018
### 

@<TRIPOS>MOLECULE
4na7_ligand
   82    86     1     0     0
SMALL
GAST_HUCK


@<TRIPOS>ATOM
      1 C1          4.2040   30.5120   21.2050 C.ar      1 1T5        -0.0421
      2 C2          2.9400   29.9970   21.3570 C.ar      1 1T5        -0.0416
      3 C3          5.2680   29.6580   21.0170 C.ar      1 1T5        -0.0416
      4 C4          0.1130   27.4770   28.3820 C.ar      1 1T5        -0.0460
      5 C5         -1.0640   27.9280   28.9490 C.ar      1 1T5        -0.0394
      6 C6          0.3280   24.4150   19.4470 C.ar      1 1T5        -0.0449
      7 C7          2.7380   28.6240   21.3550 C.ar      1 1T5        -0.0534
      8 C8          5.0750   28.2820   21.0250 C.ar      1 1T5        -0.0534
      9 C9          0.5170   24.1120   20.7840 C.ar      1 1T5        -0.0174
     10 C10         1.5740   25.6830   25.6130 C.ar      1 1T5        -0.0641
     11 C11         2.4160   25.5000   27.8610 C.ar      1 1T5        -0.0392
     12 C12        -2.3070   26.2410   27.7820 C.ar      1 1T5        -0.0277
     13 C13         2.1440   25.9850   19.5270 C.ar      1 1T5        -0.0545
     14 C14         3.6320   24.5530   26.0160 C.ar      1 1T5        -0.0370
     15 C15         0.1050   26.4040   27.4980 C.ar      1 1T5        -0.0055
     16 C16         1.4050   25.8980   26.9800 C.ar      1 1T5        -0.0331
     17 C17        -2.2690   27.2700   28.7170 C.ar      1 1T5         0.0526
     18 C18         1.1150   25.3750   18.8110 C.ar      1 1T5         0.0360
     19 C19        -1.1330   25.8170   27.1700 C.ar      1 1T5         0.0222
     20 C20         3.8100   27.7410   21.2330 C.ar      1 1T5        -0.0781
     21 C21         2.6770   25.0050   25.1110 C.ar      1 1T5        -0.0302
     22 C22         2.3820   25.6570   20.8600 C.ar      1 1T5        -0.0498
     23 C23         1.5570   24.7110   21.4980 C.ar      1 1T5         0.0621
     24 C24         3.5410   24.8440   27.3730 C.ar      1 1T5         0.0609
     25 C25         1.0320   25.6610   17.3190 C.cat     1 1T5         0.2350
     26 C26        -3.4570   27.6640   29.5510 C.2       1 1T5         0.2026
     27 C27        -1.2890   24.7710   26.1300 C.2       1 1T5         0.0640
     28 C28         5.1590   25.2500   29.2410 C.2       1 1T5         0.2036
     29 C29         3.3890   26.2400   23.0890 C.3       1 1T5        -0.0550
     30 C30         2.9250   24.8790   23.6170 C.3       1 1T5         0.0614
     31 C31         3.6120   26.2460   21.5510 C.3       1 1T5        -0.0418
     32 C32         4.8430   25.4140   21.1350 C.3       1 1T5        -0.1006
     33 C33         7.5350   24.2870   30.7350 C.3       1 1T5        -0.0606
     34 C34         7.2600   26.7040   31.4110 C.3       1 1T5        -0.0606
     35 C35         6.5040   25.9390   29.1470 C.3       1 1T5         0.0455
     36 C36         7.5040   25.7290   30.2750 C.3       1 1T5        -0.0293
     37 N37         0.5370   24.7470   16.5060 N.pl3     1 1T5        -0.2729
     38 N38         1.7730   24.3500   22.8350 N.pl3     1 1T5        -0.2922
     39 N39         1.6820   26.7890   16.7870 N.pl3     1 1T5        -0.2729
     40 N40        -4.5760   26.9310   29.4620 N.am      1 1T5        -0.3002
     41 N41         4.7710   24.7080   28.0650 N.am      1 1T5        -0.2354
     42 O42        -3.4160   28.7010   30.1880 O.2       1 1T5        -0.3852
     43 O43        -1.5560   25.0880   25.0100 O.co2     1 1T5        -0.5608
     44 O44         4.4860   25.2720   30.2660 O.2       1 1T5        -0.3849
     45 O45        -1.1470   23.5270   26.4950 O.co2     1 1T5        -0.5608
     46 H           4.3632   31.5839   21.2328 H         1 1T5         0.0786
     47 H           2.0960   30.6662   21.4791 H         1 1T5         0.0674
     48 H           6.2620   30.0617   20.8619 H         1 1T5         0.0674
     49 H           1.0497   27.9637   28.6285 H         1 1T5         0.0640
     50 H          -1.0488   28.8067   29.5835 H         1 1T5         0.0687
     51 H          -0.4427   23.8989   18.8860 H         1 1T5         0.0769
     52 H           1.7317   28.2322   21.4497 H         1 1T5         0.0776
     53 H           5.9203   27.6219   20.8673 H         1 1T5         0.0776
     54 H          -0.1434   23.4085   21.2779 H         1 1T5         0.0586
     55 H           0.8246   26.0549   24.9237 H         1 1T5         0.0447
     56 H           2.3228   25.7025   28.9218 H         1 1T5         0.0459
     57 H          -3.2507   25.7703   27.5309 H         1 1T5         0.0703
     58 H           2.7680   26.7253   19.0395 H         1 1T5         0.0743
     59 H           4.4654   23.9609   25.6556 H         1 1T5         0.0450
     60 H           4.3361   26.5039   23.5823 H         1 1T5         0.0154
     61 H           2.6249   26.9918   23.3361 H         1 1T5         0.0154
     62 H           3.7508   24.1650   23.4824 H         1 1T5         0.0716
     63 H           4.9572   25.4498   20.0415 H         1 1T5         0.0073
     64 H           4.7057   24.3707   21.4553 H         1 1T5         0.0073
     65 H           5.7437   25.8284   21.6115 H         1 1T5         0.0073
     66 H           8.2675   24.1773   31.5482 H         1 1T5         0.0234
     67 H           7.8220   23.6397   29.8932 H         1 1T5         0.0234
     68 H           6.5381   23.9963   31.0978 H         1 1T5         0.0234
     69 H           7.2482   27.7308   31.0167 H         1 1T5         0.0234
     70 H           8.0629   26.6068   32.1565 H         1 1T5         0.0234
     71 H           6.2919   26.4816   31.8836 H         1 1T5         0.0234
     72 H           6.3119   27.0200   29.0795 H         1 1T5         0.0510
     73 H           6.9828   25.5930   28.2191 H         1 1T5         0.0510
     74 H           8.5013   25.9543   29.8693 H         1 1T5         0.0320
     75 H           0.4782   24.9346   15.4949 H         1 1T5         0.3180
     76 H           0.2095   23.8459   16.8825 H         1 1T5         0.3180
     77 H           1.1161   23.7001   23.2899 H         1 1T5         0.1922
     78 H           2.0699   27.5050   17.4177 H         1 1T5         0.3180
     79 H           1.7701   26.8991   15.7667 H         1 1T5         0.3180
     80 H          -5.3780   27.1747   30.0073 H         1 1T5         0.1808
     81 H          -4.6086   26.1406   28.8503 H         1 1T5         0.1808
     82 H           5.4506   24.1263   27.6179 H         1 1T5         0.2254
@<TRIPOS>BOND
     1    2    1 ar 
     2    3    1 ar 
     3    7    2 ar 
     4    8    3 ar 
     5    4    5 ar 
     6   15    4 ar 
     7    5   17 ar 
     8    9    6 ar 
     9    6   18 ar 
    10   20    7 ar 
    11   20    8 ar 
    12   23    9 ar 
    13   16   10 ar 
    14   21   10 ar 
    15   11   16 ar 
    16   24   11 ar 
    17   12   17 ar 
    18   19   12 ar 
    19   13   18 ar 
    20   22   13 ar 
    21   14   21 ar 
    22   24   14 ar 
    23   16   15 1  
    24   15   19 ar 
    25   17   26 1  
    26   18   25 1  
    27   19   27 1  
    28   31   20 1  
    29   21   30 1  
    30   23   22 ar 
    31   31   22 1  
    32   38   23 1  
    33   41   24 1  
    34   25   37 ar 
    35   25   39 ar 
    36   26   40 am 
    37   26   42 2  
    38   27   43 ar 
    39   27   45 ar 
    40   35   28 1  
    41   28   41 am 
    42   28   44 2  
    43   30   29 1  
    44   29   31 1  
    45   30   38 1  
    46   31   32 1  
    47   36   33 1  
    48   36   34 1  
    49   35   36 1  
    50    1   46 1  
    51    2   47 1  
    52    3   48 1  
    53    4   49 1  
    54    5   50 1  
    55    6   51 1  
    56    7   52 1  
    57    8   53 1  
    58    9   54 1  
    59   10   55 1  
    60   11   56 1  
    61   12   57 1  
    62   13   58 1  
    63   14   59 1  
    64   29   60 1  
    65   29   61 1  
    66   30   62 1  
    67   32   63 1  
    68   32   64 1  
    69   32   65 1  
    70   33   66 1  
    71   33   67 1  
    72   33   68 1  
    73   34   69 1  
    74   34   70 1  
    75   34   71 1  
    76   35   72 1  
    77   35   73 1  
    78   36   74 1  
    79   37   75 1  
    80   37   76 1  
    81   38   77 1  
    82   39   78 1  
    83   39   79 1  
    84   40   80 1  
    85   40   81 1  
    86   41   82 1  
@<TRIPOS>SUBSTRUCTURE
     1 1T5         1

