### 
### Created by X-TOOL on Mon Sep 10 21:13:20 2018
### 

@<TRIPOS>MOLECULE
4na8_ligand
   66    70     1     0     0
SMALL
GAST_HUCK


@<TRIPOS>ATOM
      1 C13        40.1380  -21.1010   27.5760 C.ar      1 1T6        -0.0490
      2 C18        43.9890  -22.4250   30.7890 C.ar      1 1T6         0.0526
      3 C17        41.9610  -22.2410   28.8470 C.ar      1 1T6        -0.0020
      4 C16        40.8820  -22.2540   27.8220 C.ar      1 1T6        -0.0197
      5 C15        37.5860  -15.5720   26.8770 C.ar      1 1T6        -0.0545
      6 C19        36.8620  -15.0780   27.9660 C.ar      1 1T6         0.0360
      7 C20        41.7000  -21.9220   30.1890 C.ar      1 1T6         0.0224
      8 C21        39.6040  -16.6320   24.8730 C.ar      1 1T6        -0.0781
      9 C22        39.0410  -21.1040   26.7270 C.ar      1 1T6        -0.0167
     10 C23        37.9280  -16.9240   26.7900 C.ar      1 1T6        -0.0498
     11 C24        37.5610  -17.7920   27.8350 C.ar      1 1T6         0.0621
     12 C11        38.6940  -22.2870   26.0960 C.ar      1 1T6        -0.0570
     13 C12        36.8110  -17.3010   28.9060 C.ar      1 1T6        -0.0174
     14 C27        40.3510  -21.4930   30.6400 C.2       1 1T6         0.0639
     15 C1         41.7470  -15.1840   23.7820 C.ar      1 1T6        -0.0421
     16 C2         41.6740  -15.4020   25.1440 C.ar      1 1T6        -0.0416
     17 C3         40.7610  -15.6840   22.9600 C.ar      1 1T6        -0.0416
     18 C4         39.4190  -23.4500   26.3310 C.ar      1 1T6        -0.0666
     19 C5         40.5090  -23.4330   27.1830 C.ar      1 1T6        -0.0592
     20 C6         43.2590  -22.6090   28.4920 C.ar      1 1T6        -0.0458
     21 C7         44.2570  -22.6950   29.4490 C.ar      1 1T6        -0.0394
     22 C8         36.4670  -15.9630   28.9670 C.ar      1 1T6        -0.0449
     23 C9         40.6160  -16.1230   25.6880 C.ar      1 1T6        -0.0534
     24 C10        39.6910  -16.3970   23.4970 C.ar      1 1T6        -0.0534
     25 C14        42.7070  -22.0140   31.1500 C.ar      1 1T6        -0.0278
     26 C25        36.3960  -13.6070   28.0070 C.cat     1 1T6         0.2350
     27 C26        45.1090  -22.5510   31.8010 C.2       1 1T6         0.2026
     28 C28        39.1600  -18.8820   25.7150 C.3       1 1T6        -0.0547
     29 C29        38.2440  -19.8320   26.5080 C.3       1 1T6         0.0647
     30 C30        38.4860  -17.5050   25.4790 C.3       1 1T6        -0.0418
     31 C31        37.3460  -17.7280   24.4600 C.3       1 1T6        -0.1006
     32 N32        36.9570  -12.6720   27.2710 N.pl3     1 1T6        -0.2729
     33 N33        37.9000  -19.1550   27.8000 N.pl3     1 1T6        -0.2920
     34 N34        35.4350  -13.2070   28.9260 N.pl3     1 1T6        -0.2729
     35 N35        44.8180  -22.3820   33.1020 N.am      1 1T6        -0.3002
     36 O36        46.2710  -22.7370   31.4040 O.2       1 1T6        -0.3852
     37 O37        39.3660  -22.2310   30.5570 O.co2     1 1T6        -0.5609
     38 O38        40.3090  -20.2640   31.0180 O.co2     1 1T6        -0.5609
     39 H          40.4250  -20.1756   28.0621 H         1 1T6         0.0570
     40 H          37.8873  -14.8945   26.0863 H         1 1T6         0.0743
     41 H          37.8514  -22.3064   25.4143 H         1 1T6         0.0567
     42 H          36.4962  -17.9739   29.6954 H         1 1T6         0.0586
     43 H          42.5746  -14.6233   23.3627 H         1 1T6         0.0786
     44 H          42.4471  -15.0082   25.7939 H         1 1T6         0.0674
     45 H          40.8179  -15.5219   21.8897 H         1 1T6         0.0674
     46 H          39.1289  -24.3742   25.8445 H         1 1T6         0.0603
     47 H          41.0749  -24.3417   27.3536 H         1 1T6         0.0576
     48 H          43.4892  -22.8301   27.4560 H         1 1T6         0.0640
     49 H          45.2605  -22.9763   29.1509 H         1 1T6         0.0687
     50 H          35.8828  -15.5982   29.8040 H         1 1T6         0.0769
     51 H          40.5772  -16.2915   26.7581 H         1 1T6         0.0776
     52 H          38.9160  -16.7744   22.8398 H         1 1T6         0.0776
     53 H          42.4914  -21.7646   32.1827 H         1 1T6         0.0703
     54 H          39.3904  -19.3384   24.7410 H         1 1T6         0.0154
     55 H          40.0922  -18.7312   26.2791 H         1 1T6         0.0154
     56 H          37.3246  -20.0538   25.9464 H         1 1T6         0.0718
     57 H          36.8385  -16.7722   24.2626 H         1 1T6         0.0073
     58 H          36.6234  -18.4489   24.8701 H         1 1T6         0.0073
     59 H          37.7645  -18.1215   23.5219 H         1 1T6         0.0073
     60 H          36.6181  -11.7009   27.3258 H         1 1T6         0.3180
     61 H          37.7351  -12.9110   26.6399 H         1 1T6         0.3180
     62 H          37.9123  -19.6972   28.6757 H         1 1T6         0.1922
     63 H          34.9704  -13.9063   29.5227 H         1 1T6         0.3180
     64 H          35.1867  -12.2110   29.0110 H         1 1T6         0.3180
     65 H          45.5395  -22.4600   33.7900 H         1 1T6         0.1808
     66 H          43.8799  -22.1782   33.3822 H         1 1T6         0.1808
@<TRIPOS>BOND
     1    1    4 ar 
     2    9    1 ar 
     3   21    2 ar 
     4   25    2 ar 
     5    2   27 1  
     6    4    3 1  
     7    3    7 ar 
     8    3   20 ar 
     9    4   19 ar 
    10    5    6 ar 
    11   10    5 ar 
    12    6   22 ar 
    13    6   26 1  
    14    7   14 1  
    15    7   25 ar 
    16    8   23 ar 
    17    8   24 ar 
    18   30    8 1  
    19    9   12 ar 
    20   29    9 1  
    21   10   11 ar 
    22   30   10 1  
    23   11   13 ar 
    24   11   33 1  
    25   12   18 ar 
    26   13   22 ar 
    27   14   37 ar 
    28   14   38 ar 
    29   16   15 ar 
    30   17   15 ar 
    31   23   16 ar 
    32   24   17 ar 
    33   18   19 ar 
    34   20   21 ar 
    35   26   32 ar 
    36   26   34 ar 
    37   27   35 am 
    38   27   36 2  
    39   28   29 1  
    40   28   30 1  
    41   29   33 1  
    42   30   31 1  
    43    1   39 1  
    44    5   40 1  
    45   12   41 1  
    46   13   42 1  
    47   15   43 1  
    48   16   44 1  
    49   17   45 1  
    50   18   46 1  
    51   19   47 1  
    52   20   48 1  
    53   21   49 1  
    54   22   50 1  
    55   23   51 1  
    56   24   52 1  
    57   25   53 1  
    58   28   54 1  
    59   28   55 1  
    60   29   56 1  
    61   31   57 1  
    62   31   58 1  
    63   31   59 1  
    64   32   60 1  
    65   32   61 1  
    66   33   62 1  
    67   34   63 1  
    68   34   64 1  
    69   35   65 1  
    70   35   66 1  
@<TRIPOS>SUBSTRUCTURE
     1 1T6         1

