### 
### Created by X-TOOL on Mon Sep 10 21:13:20 2018
### 

@<TRIPOS>MOLECULE
4na9_ligand
   61    65     1     0     0
SMALL
GAST_HUCK


@<TRIPOS>ATOM
      1 C1          8.8620   40.2640   22.8440 C.ar      1 1T7        -0.0089
      2 C2          8.7750   41.6550   22.8620 C.ar      1 1T7        -0.0510
      3 C3          9.9120   42.4410   22.6790 C.ar      1 1T7        -0.0587
      4 C4         11.1420   41.8480   22.4580 C.ar      1 1T7        -0.0582
      5 C5         11.2480   40.4700   22.4100 C.ar      1 1T7        -0.0472
      6 C6         10.1110   39.6740   22.5860 C.ar      1 1T7         0.0170
      7 C7          8.1930   35.6610   28.0560 C.ar      1 1T7        -0.0102
      8 C8          8.7160   35.4090   26.7790 C.ar      1 1T7         0.0445
      9 N9          8.1250   35.9760   25.6530 N.pl3     1 1T7        -0.3118
     10 C10         6.8800   36.7400   25.7600 C.3       1 1T7         0.0684
     11 C11         6.9630   37.5990   27.0310 C.3       1 1T7        -0.0008
     12 C12         7.0810   36.6670   28.2620 C.3       1 1T7         0.0260
     13 C13         9.6040   33.9020   28.9650 C.ar      1 1T7         0.0058
     14 C14        10.0910   33.6520   27.6850 C.ar      1 1T7        -0.0752
     15 C15         9.6840   34.4210   26.6110 C.ar      1 1T7        -0.0503
     16 C16         8.6700   34.9170   29.1380 C.ar      1 1T7        -0.0643
     17 C17         9.9830   33.0450   30.1440 C.cat     1 1T7         0.2267
     18 N18        10.6450   31.8390   29.9280 N.pl3     1 1T7        -0.2737
     19 N19         9.7570   33.5210   31.3590 N.pl3     1 1T7        -0.2737
     20 C20         7.3580   37.6650   29.3810 C.ar      1 1T7        -0.0308
     21 C21         6.7320   37.6790   24.5820 C.ar      1 1T7        -0.0294
     22 C22         7.7840   38.5020   24.2170 C.ar      1 1T7        -0.0632
     23 C23         7.6690   39.4420   23.1990 C.ar      1 1T7        -0.0340
     24 C24         6.4540   39.5350   22.5140 C.ar      1 1T7        -0.0437
     25 C25         5.3760   38.7050   22.8460 C.ar      1 1T7         0.0291
     26 C26         5.5340   37.7900   23.8870 C.ar      1 1T7        -0.0410
     27 C27         8.6440   38.1200   29.6420 C.ar      1 1T7        -0.0585
     28 C28         8.8520   39.2130   30.4780 C.ar      1 1T7        -0.0683
     29 C29         7.7800   39.8490   31.0700 C.ar      1 1T7        -0.0686
     30 C30         6.5030   39.3810   30.8460 C.ar      1 1T7        -0.0683
     31 C31         6.2930   38.2870   30.0170 C.ar      1 1T7        -0.0585
     32 N32         4.1660   38.7730   22.1500 N.pl3     1 1T7        -0.3383
     33 C33        10.2440   38.2110   22.3890 C.2       1 1T7         0.0631
     34 O34        11.0620   37.6230   23.2180 O.co2     1 1T7        -0.5609
     35 O35         9.5230   37.6310   21.5920 O.co2     1 1T7        -0.5609
     36 H           7.8137   42.1305   23.0199 H         1 1T7         0.0631
     37 H           9.8317   43.5216   22.7101 H         1 1T7         0.0638
     38 H          12.0236   42.4640   22.3223 H         1 1T7         0.0624
     39 H          12.2123   40.0065   22.2360 H         1 1T7         0.0652
     40 H           8.5697   35.8565   24.7317 H         1 1T7         0.1764
     41 H           6.0200   36.0559   25.8092 H         1 1T7         0.0709
     42 H           6.0558   38.2146   27.1201 H         1 1T7         0.0353
     43 H           7.8460   38.2528   26.9774 H         1 1T7         0.0353
     44 H           6.1405   36.1276   28.4475 H         1 1T7         0.0595
     45 H          10.7976   32.8449   27.5288 H         1 1T7         0.0527
     46 H          10.1203   34.2545   25.6327 H         1 1T7         0.0494
     47 H           8.3037   35.1360   30.1345 H         1 1T7         0.0523
     48 H          10.9085   31.2457   30.7277 H         1 1T7         0.3179
     49 H          10.8711   31.5403   28.9686 H         1 1T7         0.3179
     50 H           9.2636   34.4174   31.4774 H         1 1T7         0.3179
     51 H          10.0746   32.9948   32.1856 H         1 1T7         0.3179
     52 H           8.7280   38.4105   24.7420 H         1 1T7         0.0458
     53 H           6.3448   40.2594   21.7150 H         1 1T7         0.0466
     54 H           4.7025   37.1504   24.1602 H         1 1T7         0.0459
     55 H           9.4930   37.6195   29.1907 H         1 1T7         0.0560
     56 H           9.8598   39.5660   30.6648 H         1 1T7         0.0600
     57 H           7.9411   40.7111   31.7071 H         1 1T7         0.0560
     58 H           5.6587   39.8692   31.3192 H         1 1T7         0.0600
     59 H           5.2863   37.9149   29.8650 H         1 1T7         0.0560
     60 H           4.0512   39.4492   21.3816 H         1 1T7         0.1716
     61 H           3.3891   38.1469   22.4054 H         1 1T7         0.1716
@<TRIPOS>BOND
     1    1    2 ar 
     2    1    6 ar 
     3   23    1 1  
     4    2    3 ar 
     5    3    4 ar 
     6    5    4 ar 
     7    6    5 ar 
     8    6   33 1  
     9    8    7 ar 
    10   12    7 1  
    11    7   16 ar 
    12    9    8 1  
    13    8   15 ar 
    14   10    9 1  
    15   10   11 1  
    16   21   10 1  
    17   11   12 1  
    18   12   20 1  
    19   14   13 ar 
    20   16   13 ar 
    21   13   17 1  
    22   15   14 ar 
    23   17   18 ar 
    24   17   19 ar 
    25   20   27 ar 
    26   20   31 ar 
    27   22   21 ar 
    28   21   26 ar 
    29   22   23 ar 
    30   23   24 ar 
    31   24   25 ar 
    32   25   26 ar 
    33   25   32 1  
    34   27   28 ar 
    35   28   29 ar 
    36   29   30 ar 
    37   30   31 ar 
    38   33   34 ar 
    39   33   35 ar 
    40    2   36 1  
    41    3   37 1  
    42    4   38 1  
    43    5   39 1  
    44    9   40 1  
    45   10   41 1  
    46   11   42 1  
    47   11   43 1  
    48   12   44 1  
    49   14   45 1  
    50   15   46 1  
    51   16   47 1  
    52   18   48 1  
    53   18   49 1  
    54   19   50 1  
    55   19   51 1  
    56   22   52 1  
    57   24   53 1  
    58   26   54 1  
    59   27   55 1  
    60   28   56 1  
    61   29   57 1  
    62   30   58 1  
    63   31   59 1  
    64   32   60 1  
    65   32   61 1  
@<TRIPOS>SUBSTRUCTURE
     1 1T7         1

