### 
### Created by X-TOOL on Mon Sep 10 21:13:19 2018
### 

@<TRIPOS>MOLECULE
4nah_ligand
   59    62     1     0     0
SMALL
GAST_HUCK


@<TRIPOS>ATOM
      1 C1         -0.4300  -29.1980  -29.3290 C.3       1 2VJ        -0.0518
      2 C2          1.0500  -29.6020  -29.2810 C.3       1 2VJ        -0.0039
      3 C3          1.9720  -28.5710  -28.6740 C.ar      1 2VJ         0.0299
      4 N6          3.6220  -26.7560  -27.5680 N.ar      1 2VJ        -0.2618
      5 C7          3.2290  -26.6410  -28.8030 C.ar      1 2VJ         0.0921
      6 C9          3.6700  -25.4480  -29.5780 C.3       1 2VJ         0.0433
      7 C11         2.6330  -24.3740  -29.2180 C.3       1 2VJ        -0.0328
      8 C12         2.9460  -23.0390  -29.8930 C.3       1 2VJ        -0.0501
      9 C13         4.3690  -22.5960  -29.5640 C.3       1 2VJ        -0.0503
     10 C14         5.3690  -23.6900  -29.9410 C.3       1 2VJ        -0.0305
     11 C15         5.0640  -24.9590  -29.1620 C.3       1 2VJ         0.0663
     12 C20         8.1060  -27.2110  -28.7410 C.3       1 2VJ         0.0646
     13 C21         7.7090  -28.6490  -28.6800 C.ar      1 2VJ        -0.0203
     14 C22         8.4630  -29.5470  -29.4080 C.ar      1 2VJ        -0.0577
     15 C24         7.1020  -31.2680  -28.5920 C.ar      1 2VJ         0.0469
     16 C30         4.1380  -26.3000  -24.6040 C.2       1 2VJ         0.1999
     17 C33         5.1750  -24.6340  -23.4830 C.2       1 2VJ         0.0985
     18 C34         4.1140  -24.1300  -24.2680 C.2       1 2VJ        -0.0156
     19 C4          2.3960  -28.7460  -27.3740 C.ar      1 2VJ        -0.0021
     20 C5          3.2400  -27.7850  -26.8200 C.ar      1 2VJ         0.1099
     21 N8          2.4110  -27.5140  -29.3510 N.ar      1 2VJ        -0.2758
     22 C17         6.1390  -25.9940  -29.4820 C.2       1 2VJ         0.1838
     23 O18         6.1930  -26.5870  -30.5390 O.2       1 2VJ        -0.3964
     24 N19         7.0340  -26.2640  -28.5200 N.am      1 2VJ        -0.2752
     25 C23         8.1630  -30.8890  -29.3830 C.ar      1 2VJ        -0.0541
     26 C25         6.3440  -30.3880  -27.8440 C.ar      1 2VJ         0.0478
     27 C26         6.6590  -29.0580  -27.8820 C.ar      1 2VJ        -0.0440
     28 CL7         5.0090  -30.9880  -26.8590 Cl        1 2VJ        -0.0718
     29 CL8         6.7040  -32.9240  -28.4980 Cl        1 2VJ        -0.0764
     30 S29         3.7760  -27.9540  -25.1340 S.3       1 2VJ         0.0390
     31 N31         5.1440  -26.0260  -23.7200 N.pl3     1 2VJ        -0.2415
     32 N35         3.5230  -25.1610  -24.9290 N.2       1 2VJ        -0.3166
     33 C36         6.1170  -23.9200  -22.6180 C.2       1 2VJ         0.0778
     34 O37         6.0810  -22.6930  -22.4960 O.co2     1 2VJ        -0.5634
     35 O38         7.1090  -24.5550  -21.9170 O.co2     1 2VJ        -0.5634
     36 H          -1.0168  -30.0090  -29.7850 H         1 2VJ         0.0257
     37 H          -0.5410  -28.2829  -29.9292 H         1 2VJ         0.0257
     38 H          -0.7928  -29.0127  -28.3073 H         1 2VJ         0.0257
     39 H           1.3848  -29.7955  -30.3108 H         1 2VJ         0.0474
     40 H           1.1330  -30.5252  -28.6888 H         1 2VJ         0.0474
     41 H           3.6630  -25.6639  -30.6566 H         1 2VJ         0.0561
     42 H           2.6318  -24.2306  -28.1274 H         1 2VJ         0.0298
     43 H           1.6391  -24.7142  -29.5442 H         1 2VJ         0.0298
     44 H           2.2377  -22.2773  -29.5352 H         1 2VJ         0.0267
     45 H           2.8444  -23.1513  -30.9825 H         1 2VJ         0.0267
     46 H           4.4448  -22.3917  -28.4858 H         1 2VJ         0.0267
     47 H           4.6032  -21.6811  -30.1279 H         1 2VJ         0.0267
     48 H           6.3879  -23.3512  -29.7021 H         1 2VJ         0.0294
     49 H           5.2946  -23.8967  -31.0188 H         1 2VJ         0.0294
     50 H           5.0708  -24.7491  -28.0822 H         1 2VJ         0.0570
     51 H           8.5305  -27.0175  -29.7372 H         1 2VJ         0.0684
     52 H           8.8757  -27.0380  -27.9745 H         1 2VJ         0.0684
     53 H           9.2968  -29.1924  -30.0031 H         1 2VJ         0.0559
     54 H           3.8172  -23.0842  -24.3332 H         1 2VJ         0.0491
     55 H           2.0812  -29.6085  -26.7977 H         1 2VJ         0.0604
     56 H           6.9593  -25.8034  -27.6355 H         1 2VJ         0.1878
     57 H           8.7327  -31.6111  -29.9566 H         1 2VJ         0.0606
     58 H           6.0959  -28.3393  -27.2976 H         1 2VJ         0.0563
     59 H           5.7756  -26.7206  -23.2963 H         1 2VJ         0.2385
@<TRIPOS>BOND
     1    2    1 1  
     2    3    2 1  
     3    3   19 ar 
     4   21    3 ar 
     5    5    4 ar 
     6    4   20 ar 
     7    6    5 1  
     8    5   21 ar 
     9    6    7 1  
    10   11    6 1  
    11    7    8 1  
    12    9    8 1  
    13   10    9 1  
    14   11   10 1  
    15   22   11 1  
    16   12   13 1  
    17   24   12 1  
    18   13   14 ar 
    19   13   27 ar 
    20   14   25 ar 
    21   25   15 ar 
    22   15   26 ar 
    23   15   29 1  
    24   30   16 1  
    25   16   31 1  
    26   16   32 2  
    27   18   17 2  
    28   31   17 1  
    29   17   33 1  
    30   32   18 1  
    31   20   19 ar 
    32   20   30 1  
    33   22   23 2  
    34   22   24 am 
    35   26   27 ar 
    36   26   28 1  
    37   33   34 ar 
    38   33   35 ar 
    39    1   36 1  
    40    1   37 1  
    41    1   38 1  
    42    2   39 1  
    43    2   40 1  
    44    6   41 1  
    45    7   42 1  
    46    7   43 1  
    47    8   44 1  
    48    8   45 1  
    49    9   46 1  
    50    9   47 1  
    51   10   48 1  
    52   10   49 1  
    53   11   50 1  
    54   12   51 1  
    55   12   52 1  
    56   14   53 1  
    57   18   54 1  
    58   19   55 1  
    59   24   56 1  
    60   25   57 1  
    61   27   58 1  
    62   31   59 1  
@<TRIPOS>SUBSTRUCTURE
     1 2VJ         1

