### 
### Created by X-TOOL on Mon Sep 10 21:13:18 2018
### 

@<TRIPOS>MOLECULE
4nak_ligand
   21    22     1     0     0
SMALL
GAST_HUCK


@<TRIPOS>ATOM
      1 CH          4.1540   24.8440  -22.7010 C.ar      1 PBQ         0.0435
      2 CG          4.6760   23.8350  -20.5670 C.ar      1 PBQ         0.0397
      3 CD1         5.0560   22.7150  -19.6720 C.2       1 PBQ         0.0716
      4 CD2         4.5690   25.1040  -19.9820 C.ar      1 PBQ        -0.0489
      5 CE2         4.2360   26.2170  -20.7540 C.ar      1 PBQ         0.0033
      6 CR          4.4840   23.7010  -21.9550 C.ar      1 PBQ         0.1125
      7 O           4.6030   22.4720  -22.6150 O.3       1 PBQ        -0.3265
      8 C3          4.0310   26.0940  -22.1150 C.ar      1 PBQ        -0.0527
      9 C7          6.1550   20.9500  -18.9440 C.2       1 PBQ         0.1017
     10 C8          5.2550   21.3000  -17.9350 C.2       1 PBQ         0.0110
     11 C9          4.5660   22.4260  -18.3930 C.2       1 PBQ         0.0094
     12 N11         6.0140   21.8170  -19.9600 N.pl3     1 PBQ        -0.2775
     13 BR13        4.0730   27.8870  -20.0050 Br        1 PBQ        -0.0593
     14 BR14        3.8530   24.7760  -24.5220 Br        1 PBQ        -0.0578
     15 BR17        3.2230   23.3480  -17.5010 Br        1 PBQ        -0.0807
     16 BR18        5.0490   20.4360  -16.3050 Br        1 PBQ        -0.0771
     17 BR19        7.3340   19.5270  -18.8990 Br        1 PBQ        -0.0249
     18 H           4.7468   25.2218  -18.9192 H         1 PBQ         0.0630
     19 H           3.9717   21.8591  -22.2569 H         1 PBQ         0.2523
     20 H           3.7781   26.9610  -22.7146 H         1 PBQ         0.0630
     21 H           6.5604   21.7968  -20.8329 H         1 PBQ         0.2347
@<TRIPOS>BOND
     1    6    1 ar 
     2    1    8 ar 
     3    1   14 1  
     4    3    2 1  
     5    2    4 ar 
     6    2    6 ar 
     7    3   11 2  
     8   12    3 1  
     9    4    5 ar 
    10    5    8 ar 
    11    5   13 1  
    12    6    7 1  
    13    9   10 2  
    14    9   12 1  
    15    9   17 1  
    16   10   11 1  
    17   10   16 1  
    18   11   15 1  
    19    4   18 1  
    20    7   19 1  
    21    8   20 1  
    22   12   21 1  
@<TRIPOS>SUBSTRUCTURE
     1 PBQ         1

