### 
### Created by X-TOOL on Mon Sep 10 21:13:19 2018
### 

@<TRIPOS>MOLECULE
4nal_ligand
   21    22     1     0     0
SMALL
GAST_HUCK


@<TRIPOS>ATOM
      1 CH          4.0360   24.5720  -22.6360 C.ar      1 H70         0.0687
      2 CG          4.3070   23.4780  -20.4820 C.ar      1 H70         0.0353
      3 CD1         4.6160   22.3060  -19.5770 C.2       1 H70         0.0702
      4 CD2         4.1680   24.7390  -19.8780 C.ar      1 H70        -0.0472
      5 CE2         3.9390   25.8830  -20.6410 C.ar      1 H70         0.0284
      6 CR          4.2500   23.4010  -21.8900 C.ar      1 H70         0.1139
      7 O           4.4020   22.1890  -22.5730 O.3       1 H70        -0.3295
      8 C3          3.8630   25.8100  -22.0250 C.ar      1 H70        -0.0438
      9 C7          5.6780   20.5540  -18.9120 C.2       1 H70         0.1017
     10 C8          4.8470   20.8510  -17.9210 C.2       1 H70         0.0109
     11 C9          4.1380   22.0400  -18.3610 C.2       1 H70         0.0092
     12 N11         5.5690   21.4260  -19.9140 N.pl3     1 H70        -0.2777
     13 BR1         2.8060   22.9610  -17.3960 Br        1 H70        -0.0807
     14 BR2         4.6290   19.9390  -16.2840 Br        1 H70        -0.0771
     15 CL1         3.7580   27.4240  -19.8730 Cl        1 H70        -0.0810
     16 BR3         6.8610   19.0760  -18.9010 Br        1 H70        -0.0249
     17 CL2         3.9660   24.5130  -24.3830 Cl        1 H70        -0.0794
     18 H           4.2401   24.8238  -18.7997 H         1 H70         0.0587
     19 H           3.7218   21.5850  -22.2991 H         1 H70         0.2504
     20 H           3.6730   26.6981  -22.6169 H         1 H70         0.0590
     21 H           6.1163   21.4240  -20.7866 H         1 H70         0.2347
@<TRIPOS>BOND
     1    6    1 ar 
     2    1    8 ar 
     3    1   17 1  
     4    3    2 1  
     5    2    4 ar 
     6    2    6 ar 
     7    3   11 2  
     8   12    3 1  
     9    4    5 ar 
    10    5    8 ar 
    11    5   15 1  
    12    6    7 1  
    13    9   10 2  
    14    9   12 1  
    15    9   16 1  
    16   10   11 1  
    17   10   14 1  
    18   11   13 1  
    19    4   18 1  
    20    7   19 1  
    21    8   20 1  
    22   12   21 1  
@<TRIPOS>SUBSTRUCTURE
     1 H70         1

