### 
### Created by X-TOOL on Mon Sep 10 21:13:19 2018
### 

@<TRIPOS>MOLECULE
4nan_ligand
   21    22     1     0     0
SMALL
GAST_HUCK


@<TRIPOS>ATOM
      1 C4          4.5370   24.8310  -21.3160 C.ar      1 2JM         0.1094
      2 C5          4.1680   25.9470  -21.9810 C.ar      1 2JM         0.0407
      3 C6          3.8880   27.0750  -21.2890 C.ar      1 2JM        -0.0623
      4 C10         5.0470   23.5600  -19.2890 C.2       1 2JM         0.0708
      5 C13         6.3830   21.8480  -18.9240 C.2       1 2JM         0.1017
      6 BR1         7.9580   20.6140  -19.1300 Br        1 2JM        -0.0249
      7 C12         5.3380   21.7070  -18.0590 C.2       1 2JM         0.0110
      8 BR2         5.1380   20.1850  -16.7870 Br        1 2JM        -0.0771
      9 C11         4.4960   22.7750  -18.2910 C.2       1 2JM         0.0093
     10 BR3         2.7560   23.1990  -17.4180 Br        1 2JM        -0.0807
     11 N14         6.2260   22.9750  -19.6520 N.pl3     1 2JM        -0.2776
     12 C3          4.5900   24.8140  -19.9320 C.ar      1 2JM         0.0368
     13 C2          4.3010   25.9650  -19.2180 C.ar      1 2JM        -0.0587
     14 O2          4.7780   23.7770  -22.1190 O.3       1 2JM        -0.3285
     15 BR8         4.0680   25.7530  -23.8550 Br        1 2JM        -0.0585
     16 C1          3.9480   27.0800  -19.9110 C.ar      1 2JM        -0.0709
     17 H           3.6151   27.9797  -21.8201 H         1 2JM         0.0604
     18 H           6.8834   23.3320  -20.3600 H         1 2JM         0.2347
     19 H           4.3548   25.9765  -18.1354 H         1 2JM         0.0602
     20 H           4.6784   24.0419  -23.0259 H         1 2JM         0.2512
     21 H           3.7094   27.9892  -19.3710 H         1 2JM         0.0530
@<TRIPOS>BOND
     1    1    2 ar 
     2   12    1 ar 
     3    1   14 1  
     4    2    3 ar 
     5    2   15 1  
     6    3   16 ar 
     7    4    9 2  
     8   11    4 1  
     9    4   12 1  
    10    5    6 1  
    11    5    7 2  
    12    5   11 1  
    13    7    8 1  
    14    7    9 1  
    15    9   10 1  
    16   12   13 ar 
    17   13   16 ar 
    18    3   17 1  
    19   11   18 1  
    20   13   19 1  
    21   14   20 1  
    22   16   21 1  
@<TRIPOS>SUBSTRUCTURE
     1 2JM         1

