### 
### Created by X-TOOL on Mon Sep 10 21:13:20 2018
### 

@<TRIPOS>MOLECULE
4nat_ligand
   51    53     1     0     0
SMALL
GAST_HUCK


@<TRIPOS>ATOM
      1 C1         26.6110   44.3150  -32.5050 C.3       1 2W5         0.0652
      2 C3         24.5480   43.5960  -31.5580 C.ar      1 2W5         0.1621
      3 C7         21.3200   40.7940  -29.8370 C.3       1 2W5         0.0652
      4 C9         22.7360   43.0050  -32.8100 C.ar      1 2W5         0.0843
      5 C11        21.9840   42.7000  -34.0300 C.3       1 2W5         0.0410
      6 C13        22.5710   41.5370  -34.8870 C.3       1 2W5        -0.0329
      7 C14        22.2080   41.8240  -36.3470 C.3       1 2W5        -0.0501
      8 C15        20.6930   41.5830  -36.4690 C.3       1 2W5        -0.0503
      9 C16        19.9460   42.6820  -35.7180 C.3       1 2W5        -0.0305
     10 C19        19.8380   44.1750  -33.6080 C.2       1 2W5         0.1838
     11 C22        18.2550   44.9410  -32.0320 C.3       1 2W5         0.0646
     12 C24        19.8390   44.6540  -30.1100 C.ar      1 2W5        -0.0577
     13 C30        18.8230   46.8140  -30.6040 C.ar      1 2W5        -0.0440
     14 O2         25.7840   44.1610  -31.3630 O.3       1 2W5        -0.2991
     15 C4         23.8630   43.1410  -30.3920 C.ar      1 2W5         0.0383
     16 C5         22.5960   42.5660  -30.5270 C.ar      1 2W5         0.1621
     17 O6         21.8640   42.0890  -29.4720 O.3       1 2W5        -0.2991
     18 N8         22.0790   42.5250  -31.7550 N.ar      1 2W5        -0.2567
     19 N10        23.9780   43.5300  -32.7580 N.ar      1 2W5        -0.2567
     20 C17        20.6040   43.1620  -34.4450 C.3       1 2W5         0.0661
     21 O20        20.1360   45.3000  -33.8590 O.2       1 2W5        -0.3964
     22 N21        18.9130   43.8190  -32.6850 N.am      1 2W5        -0.2752
     23 C23        19.0210   45.4690  -30.8860 C.ar      1 2W5        -0.0203
     24 C25        20.5090   45.2290  -29.0270 C.ar      1 2W5        -0.0541
     25 C26        20.2970   46.5920  -28.7520 C.ar      1 2W5         0.0469
     26 CL7        21.0260   47.3020  -27.3720 Cl        1 2W5        -0.0764
     27 C28        19.4660   47.3730  -29.5240 C.ar      1 2W5         0.0478
     28 CL9        19.2620   49.0620  -29.2170 Cl        1 2W5        -0.0718
     29 H          27.5642   44.7766  -32.2078 H         1 2W5         0.0588
     30 H          26.1053   44.9587  -33.2398 H         1 2W5         0.0588
     31 H          26.8049   43.3292  -32.9530 H         1 2W5         0.0588
     32 H          20.7282   40.3957  -28.9996 H         1 2W5         0.0588
     33 H          22.1435   40.1016  -30.0660 H         1 2W5         0.0588
     34 H          20.6758   40.9031  -30.7220 H         1 2W5         0.0588
     35 H          22.4770   43.5052  -34.5943 H         1 2W5         0.0559
     36 H          22.1340   40.5782  -34.5713 H         1 2W5         0.0298
     37 H          23.6641   41.4977  -34.7710 H         1 2W5         0.0298
     38 H          22.7570   41.1457  -37.0167 H         1 2W5         0.0267
     39 H          22.4499   42.8663  -36.6021 H         1 2W5         0.0267
     40 H          20.4404   40.6043  -36.0351 H         1 2W5         0.0267
     41 H          20.4023   41.5999  -37.5298 H         1 2W5         0.0267
     42 H          18.9480   42.2981  -35.4598 H         1 2W5         0.0294
     43 H          19.8438   43.5446  -36.3929 H         1 2W5         0.0294
     44 H          17.2698   44.6092  -31.6725 H         1 2W5         0.0684
     45 H          18.1241   45.7478  -32.7681 H         1 2W5         0.0684
     46 H          19.9535   43.6008  -30.3395 H         1 2W5         0.0559
     47 H          18.1705   47.4155  -31.2265 H         1 2W5         0.0563
     48 H          24.3194   43.2400  -29.4137 H         1 2W5         0.0556
     49 H          20.1560   42.3295  -33.8826 H         1 2W5         0.0570
     50 H          18.7001   42.8658  -32.4703 H         1 2W5         0.1878
     51 H          21.1776   44.6375  -28.4121 H         1 2W5         0.0606
@<TRIPOS>BOND
     1   14    1 1  
     2    2   14 1  
     3   15    2 ar 
     4    2   19 ar 
     5   17    3 1  
     6    4    5 1  
     7    4   18 ar 
     8   19    4 ar 
     9    5    6 1  
    10    5   20 1  
    11    6    7 1  
    12    7    8 1  
    13    9    8 1  
    14   20    9 1  
    15   20   10 1  
    16   10   21 2  
    17   10   22 am 
    18   22   11 1  
    19   11   23 1  
    20   23   12 ar 
    21   12   24 ar 
    22   23   13 ar 
    23   13   27 ar 
    24   16   15 ar 
    25   16   17 1  
    26   16   18 ar 
    27   24   25 ar 
    28   25   26 1  
    29   25   27 ar 
    30   27   28 1  
    31    1   29 1  
    32    1   30 1  
    33    1   31 1  
    34    3   32 1  
    35    3   33 1  
    36    3   34 1  
    37    5   35 1  
    38    6   36 1  
    39    6   37 1  
    40    7   38 1  
    41    7   39 1  
    42    8   40 1  
    43    8   41 1  
    44    9   42 1  
    45    9   43 1  
    46   11   44 1  
    47   11   45 1  
    48   12   46 1  
    49   13   47 1  
    50   15   48 1  
    51   20   49 1  
    52   22   50 1  
    53   24   51 1  
@<TRIPOS>SUBSTRUCTURE
     1 2W5         1

