### 
### Created by X-TOOL on Mon Sep 10 21:13:20 2018
### 

@<TRIPOS>MOLECULE
4nau_ligand
   63    66     1     0     0
SMALL
GAST_HUCK


@<TRIPOS>ATOM
      1 C1        -11.4890  -44.0250   31.9080 C.3       1 2W3        -0.0515
      2 C2        -12.5700  -44.0770   30.7950 C.3       1 2W3        -0.0004
      3 C3        -13.8800  -43.3960   31.1410 C.ar      1 2W3         0.0450
      4 N6        -16.1810  -42.2380   31.9080 N.ar      1 2W3        -0.2544
      5 C7        -15.4170  -42.8690   32.7980 C.ar      1 2W3         0.1058
      6 C9        -15.8260  -42.9490   34.2820 C.3       1 2W3         0.0463
      7 C11       -15.3260  -41.7050   35.0550 C.3       1 2W3        -0.0326
      8 C12       -15.8240  -41.6760   36.5130 C.3       1 2W3        -0.0501
      9 C13       -17.3450  -41.9010   36.6750 C.3       1 2W3        -0.0503
     10 C14       -17.7540  -43.2020   35.9720 C.3       1 2W3        -0.0305
     11 C15       -17.3620  -43.0310   34.4910 C.3       1 2W3         0.0665
     12 C20       -19.8090  -44.6590   32.1440 C.3       1 2W3         0.0646
     13 C21       -19.0380  -45.2600   30.9940 C.ar      1 2W3        -0.0203
     14 C22       -18.0510  -44.6080   30.2270 C.ar      1 2W3        -0.0577
     15 C24       -17.8380  -46.6320   28.9370 C.ar      1 2W3         0.0469
     16 C32       -17.3130  -39.6690   28.0960 C.2       1 2W3         0.2128
     17 C34       -18.7280  -39.9130   28.2340 C.2       1 2W3         0.1377
     18 C35       -19.1060  -40.9350   29.1530 C.2       1 2W3         0.1712
     19 C4        -14.6540  -42.7470   30.1530 C.ar      1 2W3         0.0062
     20 C5        -15.8670  -42.1500   30.5860 C.ar      1 2W3         0.1224
     21 N8        -14.2760  -43.4260   32.4150 N.ar      1 2W3        -0.2598
     22 C17       -18.0280  -44.1220   33.7010 C.2       1 2W3         0.1838
     23 O18       -17.6480  -45.2840   33.7650 O.2       1 2W3        -0.3964
     24 N19       -19.0550  -43.7080   32.9380 N.am      1 2W3        -0.2752
     25 C23       -17.4230  -45.2980   29.1720 C.ar      1 2W3        -0.0541
     26 C25       -18.7900  -47.2440   29.7130 C.ar      1 2W3         0.0478
     27 C26       -19.4040  -46.5700   30.7410 C.ar      1 2W3        -0.0440
     28 CL7       -19.1400  -48.9070   29.3240 Cl        1 2W3        -0.0718
     29 CL8       -17.2870  -47.7400   27.7140 Cl        1 2W3        -0.0764
     30 C29       -16.8450  -41.3920   29.7110 C.2       1 2W3         0.2001
     31 N30       -16.4190  -40.4200   28.8390 N.am      1 2W3        -0.1969
     32 O33       -16.8790  -38.7910   27.3220 O.2       1 2W3        -0.4170
     33 N36       -18.1570  -41.6140   29.8490 N.2       1 2W3        -0.2303
     34 O37       -20.4240  -41.2300   29.3580 O.3       1 2W3        -0.3029
     35 C38       -19.7510  -39.1420   27.4460 C.2       1 2W3         0.1766
     36 O39       -19.8970  -37.9250   27.6570 O.2       1 2W3        -0.4119
     37 N40       -20.5390  -39.7440   26.4810 N.am      1 2W3        -0.3083
     38 H         -10.5821  -44.5429   31.5627 H         1 2W3         0.0257
     39 H         -11.8710  -44.5190   32.8136 H         1 2W3         0.0257
     40 H         -11.2479  -42.9763   32.1363 H         1 2W3         0.0257
     41 H         -12.7825  -45.1336   30.5749 H         1 2W3         0.0477
     42 H         -12.1595  -43.5909   29.8977 H         1 2W3         0.0477
     43 H         -15.3647  -43.8502   34.7121 H         1 2W3         0.0562
     44 H         -15.6869  -40.8019   34.5411 H         1 2W3         0.0298
     45 H         -14.2260  -41.7103   35.0581 H         1 2W3         0.0298
     46 H         -15.5742  -40.6944   36.9420 H         1 2W3         0.0267
     47 H         -15.2986  -42.4647   37.0714 H         1 2W3         0.0267
     48 H         -17.8892  -41.0567   36.2267 H         1 2W3         0.0267
     49 H         -17.5924  -41.9702   37.7446 H         1 2W3         0.0267
     50 H         -18.8387  -43.3605   36.0636 H         1 2W3         0.0294
     51 H         -17.2200  -44.0573   36.4116 H         1 2W3         0.0294
     52 H         -17.7768  -42.0730   34.1443 H         1 2W3         0.0570
     53 H         -20.1353  -45.4762   32.8041 H         1 2W3         0.0684
     54 H         -20.6906  -44.1436   31.7353 H         1 2W3         0.0684
     55 H         -17.7773  -43.5826   30.4478 H         1 2W3         0.0559
     56 H         -14.3376  -42.7070   29.1170 H         1 2W3         0.0735
     57 H         -19.3003  -42.7387   32.9180 H         1 2W3         0.1878
     58 H         -16.6559  -44.8290   28.5665 H         1 2W3         0.0606
     59 H         -20.1624  -47.0565   31.3436 H         1 2W3         0.0563
     60 H         -15.4385  -40.2508   28.7385 H         1 2W3         0.2565
     61 H         -20.5804  -42.1420   29.1430 H         1 2W3         0.2630
     62 H         -21.2102  -39.2028   25.9745 H         1 2W3         0.1787
     63 H         -20.4373  -40.7203   26.2900 H         1 2W3         0.1787
@<TRIPOS>BOND
     1    2    1 1  
     2    3    2 1  
     3   19    3 ar 
     4    3   21 ar 
     5    4    5 ar 
     6   20    4 ar 
     7    5    6 1  
     8    5   21 ar 
     9    6    7 1  
    10    6   11 1  
    11    7    8 1  
    12    8    9 1  
    13   10    9 1  
    14   11   10 1  
    15   11   22 1  
    16   12   13 1  
    17   24   12 1  
    18   13   14 ar 
    19   13   27 ar 
    20   14   25 ar 
    21   25   15 ar 
    22   26   15 ar 
    23   15   29 1  
    24   16   17 1  
    25   31   16 am 
    26   16   32 2  
    27   17   18 2  
    28   17   35 1  
    29   18   33 1  
    30   18   34 1  
    31   20   19 ar 
    32   30   20 1  
    33   22   23 2  
    34   22   24 am 
    35   27   26 ar 
    36   26   28 1  
    37   30   31 1  
    38   30   33 2  
    39   35   36 2  
    40   35   37 am 
    41    1   38 1  
    42    1   39 1  
    43    1   40 1  
    44    2   41 1  
    45    2   42 1  
    46    6   43 1  
    47    7   44 1  
    48    7   45 1  
    49    8   46 1  
    50    8   47 1  
    51    9   48 1  
    52    9   49 1  
    53   10   50 1  
    54   10   51 1  
    55   11   52 1  
    56   12   53 1  
    57   12   54 1  
    58   14   55 1  
    59   19   56 1  
    60   24   57 1  
    61   25   58 1  
    62   27   59 1  
    63   31   60 1  
    64   34   61 1  
    65   37   62 1  
    66   37   63 1  
@<TRIPOS>SUBSTRUCTURE
     1 2W3         1

