### 
### Created by X-TOOL on Mon Sep 10 21:13:15 2018
### 

@<TRIPOS>MOLECULE
4nb6_ligand
   43    44     1     0     0
SMALL
GAST_HUCK


@<TRIPOS>ATOM
      1 O13        29.3380    8.9860    2.7400 O.2       1 444        -0.1412
      2 S12        30.1350   10.1410    2.9970 S.o2      1 444         0.1037
      3 O14        29.8470   10.9870    4.1070 O.2       1 444        -0.1412
      4 C01        29.9690   11.1840    1.5720 C.ar      1 444         0.1176
      5 C02        29.3210   10.7170    0.4350 C.ar      1 444        -0.0342
      6 C03        29.2000   11.5310   -0.6810 C.ar      1 444        -0.0599
      7 C04        29.7210   12.8160   -0.6710 C.ar      1 444        -0.0616
      8 C05        30.3660   13.2890    0.4610 C.ar      1 444        -0.0599
      9 C06        30.4840   12.4760    1.5780 C.ar      1 444        -0.0342
     10 N15        31.7420    9.6370    3.1100 N.am      1 444        -0.1349
     11 C16        31.9860    8.6820    2.0230 C.3       1 444         0.1652
     12 C19        32.3200    7.3300    2.6280 C.3       1 444         0.4159
     13 F22        33.3370    7.5210    3.5680 F         1 444        -0.1679
     14 F21        31.1810    6.8070    3.2460 F         1 444        -0.1679
     15 F20        32.7370    6.4660    1.6110 F         1 444        -0.1679
     16 C23        32.6660   10.6920    3.2480 C.ar      1 444         0.1131
     17 C24        33.5930   10.9910    2.2450 C.ar      1 444        -0.0071
     18 C25        34.4820   12.0460    2.3860 C.ar      1 444        -0.0506
     19 C28        32.6590   11.4850    4.3930 C.ar      1 444        -0.0071
     20 C27        33.5480   12.5370    4.5320 C.ar      1 444        -0.0506
     21 C26        34.4720   12.8280    3.5270 C.ar      1 444        -0.0342
     22 C33        35.4610   13.9760    3.6140 C.3       1 444         0.2176
     23 C34        34.7410   15.3300    3.5990 C.3       1 444         0.3869
     24 F36        35.7230   16.3190    3.5590 F         1 444        -0.1800
     25 F37        33.9080   15.4590    2.4810 F         1 444        -0.1800
     26 F35        33.9810   15.4960    4.7610 F         1 444        -0.1800
     27 O42        36.3330   13.9330    2.4800 O.3       1 444        -0.4296
     28 C38        36.3320   13.9490    4.8690 C.3       1 444         0.3869
     29 F39        36.7800   12.6490    5.1260 F         1 444        -0.1800
     30 F40        37.4230   14.7920    4.6460 F         1 444        -0.1800
     31 F41        35.6020   14.4450    5.9530 F         1 444        -0.1800
     32 H1         28.9093    9.7143    0.4204 H         1 444         0.0637
     33 H2         28.6954   11.1608   -1.5661 H         1 444         0.0618
     34 H3         29.6241   13.4487   -1.5458 H         1 444         0.0618
     35 H4         30.7771   14.2919    0.4730 H         1 444         0.0618
     36 H5         30.9825   12.8510    2.4645 H         1 444         0.0637
     37 H6         32.8282    9.0299    1.4068 H         1 444         0.0688
     38 H7         31.0853    8.5952    1.3975 H         1 444         0.0688
     39 H8         33.6172   10.3892    1.3437 H         1 444         0.0617
     40 H9         35.1913   12.2598    1.5947 H         1 444         0.0796
     41 H10        31.9488   11.2759    5.1848 H         1 444         0.0617
     42 H11        33.5263   13.1416    5.4315 H         1 444         0.0796
     43 H12        36.7923   13.1014    2.4664 H         1 444         0.1901
@<TRIPOS>BOND
     1    1    2 2  
     2    2    3 2  
     3    2    4 1  
     4    2   10 am 
     5    4    5 ar 
     6    4    9 ar 
     7    5    6 ar 
     8    6    7 ar 
     9    7    8 ar 
    10    8    9 ar 
    11   10   11 1  
    12   10   16 1  
    13   11   12 1  
    14   12   13 1  
    15   12   14 1  
    16   12   15 1  
    17   16   17 ar 
    18   16   19 ar 
    19   17   18 ar 
    20   18   21 ar 
    21   19   20 ar 
    22   20   21 ar 
    23   21   22 1  
    24   22   23 1  
    25   22   27 1  
    26   22   28 1  
    27   23   24 1  
    28   23   25 1  
    29   23   26 1  
    30   28   29 1  
    31   28   30 1  
    32   28   31 1  
    33    5   32 1  
    34    6   33 1  
    35    7   34 1  
    36    8   35 1  
    37    9   36 1  
    38   11   37 1  
    39   11   38 1  
    40   17   39 1  
    41   18   40 1  
    42   19   41 1  
    43   20   42 1  
    44   27   43 1  
@<TRIPOS>SUBSTRUCTURE
     1 444         1

