### 
### Created by X-TOOL on Mon Sep 10 21:13:17 2018
### 

@<TRIPOS>MOLECULE
4nbk_ligand
   30    31     1     0     0
SMALL
GAST_HUCK


@<TRIPOS>ATOM
      1 C4         25.2740   29.5800    8.7750 C.ar      1 2J5        -0.0120
      2 C5         24.5710   29.2510    6.6070 C.ar      1 2J5         0.1153
      3 C6         22.1730   29.3490    5.9310 C.3       1 2J5         0.0574
      4 N1         23.5900   29.1100    5.6870 N.pl3     1 2J5        -0.3013
      5 C7         21.7080   30.7740    5.7740 C.ar      1 2J5         0.0076
      6 C8         21.1420   31.2350    4.5840 C.ar      1 2J5        -0.0669
      7 C9         20.6030   32.5040    4.4930 C.ar      1 2J5        -0.0797
      8 C10        20.6420   33.3500    5.5750 C.ar      1 2J5        -0.0776
      9 C11        21.2340   32.9420    6.7520 C.ar      1 2J5        -0.0398
     10 C12        21.7700   31.6570    6.8570 C.ar      1 2J5         0.0912
     11 O          22.3500   31.2670    8.0080 O.3       1 2J5        -0.3368
     12 C1         25.9170   28.9230    6.2000 C.ar      1 2J5         0.0006
     13 C          26.2810   28.5770    4.7840 C.3       1 2J5        -0.0283
     14 N          24.2900   29.5910    7.8690 N.ar      1 2J5        -0.2934
     15 C3         26.5590   29.2630    8.4940 C.ar      1 2J5        -0.0554
     16 C2         26.8820   28.9410    7.1910 C.ar      1 2J5        -0.0528
     17 H          25.0266   29.8412    9.7976 H         1 2J5         0.0717
     18 H          21.9508   29.0338    6.9612 H         1 2J5         0.0655
     19 H          21.6005   28.7283    5.2260 H         1 2J5         0.0655
     20 H          23.8654   28.8106    4.7407 H         1 2J5         0.1806
     21 H          21.1251   30.5859    3.7160 H         1 2J5         0.0526
     22 H          20.1482   32.8330    3.5656 H         1 2J5         0.0505
     23 H          20.2066   34.3401    5.5034 H         1 2J5         0.0531
     24 H          21.2832   33.6198    7.5966 H         1 2J5         0.0521
     25 H          22.6616   30.3741    7.9176 H         1 2J5         0.2456
     26 H          27.3590   28.3666    4.7235 H         1 2J5         0.0380
     27 H          26.0350   29.4227    4.1250 H         1 2J5         0.0380
     28 H          25.7157   27.6883    4.4667 H         1 2J5         0.0380
     29 H          27.3147   29.2619    9.2712 H         1 2J5         0.0578
     30 H          27.9083   28.6984    6.9404 H         1 2J5         0.0631
@<TRIPOS>BOND
     1   14    1 ar 
     2    1   15 ar 
     3    2    4 1  
     4    2   12 ar 
     5    2   14 ar 
     6    4    3 1  
     7    3    5 1  
     8    5    6 ar 
     9    5   10 ar 
    10    6    7 ar 
    11    7    8 ar 
    12    8    9 ar 
    13    9   10 ar 
    14   10   11 1  
    15   12   13 1  
    16   12   16 ar 
    17   15   16 ar 
    18    1   17 1  
    19    3   18 1  
    20    3   19 1  
    21    4   20 1  
    22    6   21 1  
    23    7   22 1  
    24    8   23 1  
    25    9   24 1  
    26   11   25 1  
    27   13   26 1  
    28   13   27 1  
    29   13   28 1  
    30   15   29 1  
    31   16   30 1  
@<TRIPOS>SUBSTRUCTURE
     1 2J5         1

