### 
### Created by X-TOOL on Mon Sep 10 21:13:16 2018
### 

@<TRIPOS>MOLECULE
4nbl_ligand
   35    37     1     0     0
SMALL
GAST_HUCK


@<TRIPOS>ATOM
      1 C9         30.6880   21.4290   -5.8250 C.ar      1 2J6         0.0043
      2 C2         28.9290   26.6970   -6.7270 C.ar      1 2J6        -0.0381
      3 C10        31.0720   20.7940   -4.6610 C.ar      1 2J6        -0.0685
      4 C4         29.1410   24.3370   -6.3500 C.ar      1 2J6         0.1313
      5 N5         29.4560   24.1620   -7.6320 N.ar      1 2J6        -0.2792
      6 C6         29.5180   25.1700   -8.4820 C.ar      1 2J6        -0.0004
      7 C1         29.2560   26.4630   -8.0540 C.ar      1 2J6        -0.0435
      8 C3         28.8580   25.6130   -5.8470 C.ar      1 2J6         0.0685
      9 N7         29.0720   23.2580   -5.4850 N.pl3     1 2J6        -0.2945
     10 C8         29.2700   21.8920   -5.9710 C.3       1 2J6         0.0585
     11 C11        32.3680   20.3470   -4.5320 C.ar      1 2J6        -0.0461
     12 C12        33.2750   20.5420   -5.5580 C.ar      1 2J6         0.1163
     13 C13        32.9030   21.1750   -6.7370 C.ar      1 2J6        -0.0066
     14 C14        31.5920   21.6240   -6.8660 C.ar      1 2J6         0.0896
     15 O15        31.1910   22.2550   -8.0060 O.3       1 2J6        -0.3377
     16 F16        34.5300   20.0910   -5.4050 F         1 2J6        -0.1921
     17 C17        28.5230   25.8040   -4.4130 C.ar      1 2J6         0.1288
     18 N18        28.1850   24.7560   -3.6660 N.ar      1 2J6        -0.2616
     19 C19        27.8810   24.9040   -2.3820 C.ar      1 2J6         0.0260
     20 C20        27.9180   26.1660   -1.8130 C.ar      1 2J6        -0.0112
     21 C21        28.2720   27.2420   -2.6190 C.ar      1 2J6         0.0260
     22 N22        28.5650   27.0330   -3.8980 N.ar      1 2J6        -0.2616
     23 H          28.7316   27.7040   -6.3776 H         1 2J6         0.0737
     24 H          30.3603   20.6487   -3.8564 H         1 2J6         0.0517
     25 H          29.7748   24.9864   -9.5190 H         1 2J6         0.0809
     26 H          29.3067   27.2883   -8.7550 H         1 2J6         0.0607
     27 H          28.8787   23.4190   -4.4862 H         1 2J6         0.1855
     28 H          28.6178   21.2162   -5.3983 H         1 2J6         0.0654
     29 H          28.9943   21.8531   -7.0352 H         1 2J6         0.0654
     30 H          32.6781   19.8413   -3.6247 H         1 2J6         0.0493
     31 H          33.6182   21.3162   -7.5392 H         1 2J6         0.0507
     32 H          30.2748   22.4938   -7.9289 H         1 2J6         0.2456
     33 H          27.6058   24.0432   -1.7834 H         1 2J6         0.0934
     34 H          27.6771   26.3111   -0.7661 H         1 2J6         0.0757
     35 H          28.3087   28.2440   -2.2071 H         1 2J6         0.0934
@<TRIPOS>BOND
     1    1    3 ar 
     2   10    1 1  
     3    1   14 ar 
     4    2    7 ar 
     5    8    2 ar 
     6    3   11 ar 
     7    4    5 ar 
     8    4    8 ar 
     9    9    4 1  
    10    5    6 ar 
    11    6    7 ar 
    12    8   17 1  
    13    9   10 1  
    14   11   12 ar 
    15   12   13 ar 
    16   12   16 1  
    17   13   14 ar 
    18   14   15 1  
    19   17   18 ar 
    20   17   22 ar 
    21   18   19 ar 
    22   19   20 ar 
    23   20   21 ar 
    24   21   22 ar 
    25    2   23 1  
    26    3   24 1  
    27    6   25 1  
    28    7   26 1  
    29    9   27 1  
    30   10   28 1  
    31   10   29 1  
    32   11   30 1  
    33   13   31 1  
    34   15   32 1  
    35   19   33 1  
    36   20   34 1  
    37   21   35 1  
@<TRIPOS>SUBSTRUCTURE
     1 2J6         1

