### 
### Created by X-TOOL on Mon Sep 10 21:13:12 2018
### 

@<TRIPOS>MOLECULE
4nbn_ligand
   42    44     1     0     0
SMALL
GAST_HUCK


@<TRIPOS>ATOM
      1 C7         22.5540   29.0250    5.9220 C.3       1 2J7         0.0604
      2 N8         23.9850   28.9430    5.5350 N.pl3     1 2J7        -0.2952
      3 C9         25.0770   29.0160    6.4240 C.ar      1 2J7         0.1143
      4 C2         20.8490   32.9860    5.6610 C.ar      1 2J7        -0.0776
      5 C10        26.3680   28.7770    5.9520 C.ar      1 2J7         0.0216
      6 C4         22.0470   31.2900    6.9030 C.ar      1 2J7         0.0912
      7 C6         21.3000   30.8380    4.6660 C.ar      1 2J7        -0.0668
      8 C1         20.7560   32.1160    4.5810 C.ar      1 2J7        -0.0797
      9 C3         21.5030   32.5740    6.8210 C.ar      1 2J7        -0.0398
     10 C5         21.9620   30.4230    5.8230 C.ar      1 2J7         0.0082
     11 C11        27.4700   28.8210    6.8370 C.ar      1 2J7         0.1143
     12 N12        27.2400   29.0770    8.1270 N.ar      1 2J7        -0.2693
     13 C13        25.9880   29.3050    8.5340 C.ar      1 2J7         0.0571
     14 N14        24.9360   29.2790    7.7300 N.ar      1 2J7        -0.2693
     15 N15        28.7790   28.6010    6.3580 N.pl3     1 2J7        -0.2952
     16 C16        30.0180   28.7590    7.1630 C.3       1 2J7         0.0604
     17 C17        30.6290   27.4600    7.6520 C.ar      1 2J7         0.0082
     18 C18        31.5390   26.7380    6.8940 C.ar      1 2J7        -0.0668
     19 C19        32.0650   25.5510    7.3730 C.ar      1 2J7        -0.0797
     20 C20        31.6820   25.0600    8.6230 C.ar      1 2J7        -0.0776
     21 C21        30.7720   25.7800    9.3890 C.ar      1 2J7        -0.0398
     22 C22        30.2510   26.9800    8.8990 C.ar      1 2J7         0.0912
     23 O23        29.3490   27.7000    9.6210 O.3       1 2J7        -0.3368
     24 O24        22.6960   30.8930    8.0320 O.3       1 2J7        -0.3368
     25 H1         22.4576   28.6822    6.9627 H         1 2J7         0.0662
     26 H2         21.9790   28.3591    5.2618 H         1 2J7         0.0662
     27 H3         24.1976   28.8229    4.5344 H         1 2J7         0.1857
     28 H4         20.4160   33.9780    5.6016 H         1 2J7         0.0531
     29 H5         26.5269   28.5567    4.9026 H         1 2J7         0.0552
     30 H6         21.2089   30.1586    3.8263 H         1 2J7         0.0526
     31 H7         20.2591   32.4334    3.6714 H         1 2J7         0.0505
     32 H8         21.5897   33.2522    7.6622 H         1 2J7         0.0521
     33 H9         25.8238   29.5239    9.5829 H         1 2J7         0.1044
     34 H10        28.8836   28.3087    5.3759 H         1 2J7         0.1857
     35 H11        29.7790   29.3766    8.0413 H         1 2J7         0.0662
     36 H12        30.7651   29.2765    6.5432 H         1 2J7         0.0662
     37 H13        31.8402   27.1060    5.9199 H         1 2J7         0.0526
     38 H14        32.7794   24.9984    6.7736 H         1 2J7         0.0505
     39 H15        32.0903   24.1263    8.9926 H         1 2J7         0.0531
     40 H16        30.4681   25.4118   10.3622 H         1 2J7         0.0521
     41 H17        29.1070   28.4801    9.1358 H         1 2J7         0.2456
     42 H18        23.6001   30.6909    7.8217 H         1 2J7         0.2456
@<TRIPOS>BOND
     1    1    2 1  
     2   10    1 1  
     3    2    3 1  
     4    3    5 ar 
     5    3   14 ar 
     6    4    8 ar 
     7    9    4 ar 
     8    5   11 ar 
     9    6    9 ar 
    10    6   10 ar 
    11    6   24 1  
    12    8    7 ar 
    13    7   10 ar 
    14   11   12 ar 
    15   11   15 1  
    16   12   13 ar 
    17   13   14 ar 
    18   15   16 1  
    19   16   17 1  
    20   17   18 ar 
    21   17   22 ar 
    22   18   19 ar 
    23   19   20 ar 
    24   20   21 ar 
    25   21   22 ar 
    26   22   23 1  
    27    1   25 1  
    28    1   26 1  
    29    2   27 1  
    30    4   28 1  
    31    5   29 1  
    32    7   30 1  
    33    8   31 1  
    34    9   32 1  
    35   13   33 1  
    36   15   34 1  
    37   16   35 1  
    38   16   36 1  
    39   18   37 1  
    40   19   38 1  
    41   20   39 1  
    42   21   40 1  
    43   23   41 1  
    44   24   42 1  
@<TRIPOS>SUBSTRUCTURE
     1 2J7         1

