### 
### Created by X-TOOL on Mon Sep 10 21:13:19 2018
### 

@<TRIPOS>MOLECULE
4ncg_ligand
   40    42     1     0     0
SMALL
GAST_HUCK


@<TRIPOS>ATOM
      1 C8         10.9060   12.1810   15.2640 C.2       1 2KW         0.0572
      2 C7         10.2180   11.7640   16.3350 C.2       1 2KW         0.2710
      3 C9         10.2410   12.5560   14.0550 C.2       1 2KW        -0.0523
      4 C10         8.9110   12.4570   13.9840 C.2       1 2KW         0.0504
      5 C6          9.7250   10.9220   22.0720 C.1       1 2KW         0.0990
      6 C5         10.1050   13.1030   21.1230 C.ar      1 2KW        -0.0194
      7 C4         10.0430   11.7350   20.9620 C.ar      1 2KW         0.0932
      8 C3         10.2970   11.1600   19.7380 C.ar      1 2KW         0.0159
      9 C2         10.6170   11.9720   18.6700 C.ar      1 2KW         0.1627
     10 C1         10.7010   13.3400   18.8050 C.ar      1 2KW         0.0036
     11 C13        12.4010   12.2540   15.3260 C.3       1 2KW         0.3215
     12 C12         8.7140   11.6690   16.2650 C.2       1 2KW         0.3348
     13 C24         5.9390    9.3180   16.4390 C.3       1 2KW         0.0503
     14 C18         6.5170   10.5630   14.2750 C.2       1 2KW         0.1561
     15 C17         6.7150   11.9450   14.8630 C.3       1 2KW         0.1345
     16 C21         6.1430    8.3980   14.1450 C.2       1 2KW         0.3139
     17 C          10.4220   13.8890   20.0330 C.ar      1 2KW         0.0484
     18 F          12.9040   11.0340   15.5480 F         1 2KW        -0.2750
     19 N           9.5070   10.2550   22.9940 N.1       1 2KW        -0.3282
     20 O          10.9230   11.3880   17.4630 O.3       1 2KW        -0.1790
     21 CL         10.5010   15.5860   20.1730 Cl        1 2KW        -0.0700
     22 N11         8.1570   12.0180   15.0420 N.am      1 2KW        -0.1833
     23 F14        12.8190   12.9880   16.3920 F         1 2KW        -0.2750
     24 F15        13.0820   12.6300   14.2090 F         1 2KW        -0.2750
     25 O16         8.0450   11.3140   17.2350 O.2       1 2KW        -0.3475
     26 N19         6.6510   10.2920   13.0150 N.2       1 2KW        -0.2243
     27 N20         6.4100    8.9580   12.9200 N.am      1 2KW        -0.1924
     28 N22         6.2000    9.4470   15.0150 N.am      1 2KW        -0.1906
     29 O23         5.9100    7.2200   14.3870 O.2       1 2KW        -0.4070
     30 H          10.8125   12.9182   13.2017 H         1 2KW         0.0272
     31 H           8.4099   12.7334   13.0575 H         1 2KW         0.1094
     32 H           9.9082   13.5538   22.0890 H         1 2KW         0.0669
     33 H          10.2463   10.0842   19.6149 H         1 2KW         0.0693
     34 H          10.9796   13.9664   17.9653 H         1 2KW         0.0667
     35 H           6.0474   10.3003   16.9221 H         1 2KW         0.0565
     36 H           6.6566    8.6110   16.8808 H         1 2KW         0.0565
     37 H           4.9155    8.9452   16.5919 H         1 2KW         0.0565
     38 H           6.1912   12.0446   15.8251 H         1 2KW         0.0835
     39 H           6.3621   12.7239   14.1710 H         1 2KW         0.0835
     40 H           6.4253    8.4458   12.0613 H         1 2KW         0.2307
@<TRIPOS>BOND
     1    2    1 2  
     2    3    1 1  
     3    1   11 1  
     4   12    2 1  
     5    2   20 1  
     6    4    3 2  
     7   22    4 1  
     8    7    5 1  
     9    5   19 3  
    10    7    6 ar 
    11   17    6 ar 
    12    8    7 ar 
    13    9    8 ar 
    14    9   10 ar 
    15   20    9 1  
    16   10   17 ar 
    17   11   18 1  
    18   11   23 1  
    19   11   24 1  
    20   22   12 am 
    21   12   25 2  
    22   28   13 1  
    23   14   15 1  
    24   14   26 2  
    25   28   14 1  
    26   15   22 1  
    27   16   27 am 
    28   16   28 am 
    29   16   29 2  
    30   17   21 1  
    31   26   27 1  
    32    3   30 1  
    33    4   31 1  
    34    6   32 1  
    35    8   33 1  
    36   10   34 1  
    37   13   35 1  
    38   13   36 1  
    39   13   37 1  
    40   15   38 1  
    41   15   39 1  
    42   27   40 1  
@<TRIPOS>SUBSTRUCTURE
     1 2KW         1

