### 
### Created by X-TOOL on Mon Sep 10 21:13:17 2018
### 

@<TRIPOS>MOLECULE
4ncm_ligand
   41    43     1     0     0
SMALL
GAST_HUCK


@<TRIPOS>ATOM
      1 CL1       -45.0600   -5.5460    2.5870 Cl        1 704        -0.0723
      2 C1        -49.4820   -4.4860    7.5170 C.3       1 704        -0.0243
      3 C2        -49.4520   -4.5950    5.9910 C.3       1 704         0.1262
      4 C4        -48.7970   -5.9050    5.6000 C.2       1 704         0.2035
      5 O5        -49.5250   -6.8750    5.3920 O.2       1 704        -0.3943
      6 N6        -47.4350   -6.0180    5.4950 N.am      1 704        -0.2774
      7 C7        -46.8290   -7.3060    5.1230 C.3       1 704         0.0223
      8 C8        -46.5200   -4.8800    5.7260 C.3       1 704         0.0223
      9 N9        -50.8410   -4.5850    5.5520 N.pl3     1 704        -0.2813
     10 C10       -51.1880   -4.2860    4.2520 C.ar      1 704         0.1561
     11 C11       -52.5410   -4.0610    3.9850 C.ar      1 704         0.1927
     12 C12       -52.9250   -3.6920    2.7090 C.ar      1 704         0.0376
     13 N13       -51.9850   -3.6000    1.7620 N.ar      1 704        -0.2959
     14 C14       -50.7090   -3.8560    2.0330 C.ar      1 704         0.0819
     15 N15       -50.2960   -4.1770    3.2600 N.ar      1 704        -0.2655
     16 C16       -49.7360   -3.6470    0.9710 C.2       1 704         0.0294
     17 C17       -49.9900   -3.0310   -0.2110 C.2       1 704         0.0550
     18 N18       -48.8410   -3.0030   -0.9600 N.pl3     1 704        -0.2533
     19 C20       -47.8010   -3.5770   -0.2740 C.ar      1 704         0.1430
     20 C21       -48.3160   -4.0080    0.9710 C.ar      1 704         0.0183
     21 C22       -47.4790   -4.6580    1.8640 C.ar      1 704        -0.0389
     22 C23       -46.1670   -4.8410    1.4720 C.ar      1 704         0.0521
     23 C24       -45.7080   -4.3400    0.2610 C.ar      1 704         0.0096
     24 N25       -46.5310   -3.7660   -0.5940 N.ar      1 704        -0.2831
     25 F27       -53.4260   -4.1830    4.9890 F         1 704        -0.1818
     26 H         -49.9564   -3.5370    7.8075 H         1 704         0.0277
     27 H         -48.4540   -4.5165    7.9071 H         1 704         0.0277
     28 H         -50.0573   -5.3260    7.9334 H         1 704         0.0277
     29 H         -48.9007   -3.7513    5.5504 H         1 704         0.0799
     30 H         -45.7346   -7.2004    5.0902 H         1 704         0.0486
     31 H         -47.1976   -7.6123    4.1329 H         1 704         0.0486
     32 H         -47.1017   -8.0682    5.8677 H         1 704         0.0486
     33 H         -47.1049   -3.9880    5.9948 H         1 704         0.0486
     34 H         -45.9456   -4.6794    4.8096 H         1 704         0.0486
     35 H         -45.8287   -5.1258    6.5456 H         1 704         0.0486
     36 H         -51.5832   -4.8072    6.2308 H         1 704         0.1864
     37 H         -53.9639   -3.4821    2.4814 H         1 704         0.0844
     38 H         -50.9527   -2.6237   -0.5164 H         1 704         0.1115
     39 H         -48.7691   -2.6055   -1.9075 H         1 704         0.2371
     40 H         -47.8373   -5.0068    2.8258 H         1 704         0.0680
     41 H         -44.6556   -4.4222    0.0146 H         1 704         0.0760
@<TRIPOS>BOND
     1   22    1 1  
     2    3    2 1  
     3    3    4 1  
     4    9    3 1  
     5    4    5 2  
     6    4    6 am 
     7    6    7 1  
     8    6    8 1  
     9   10    9 1  
    10   10   11 ar 
    11   15   10 ar 
    12   12   11 ar 
    13   11   25 1  
    14   13   12 ar 
    15   14   13 ar 
    16   14   15 ar 
    17   16   14 1  
    18   16   17 2  
    19   20   16 1  
    20   18   17 1  
    21   19   18 1  
    22   20   19 ar 
    23   19   24 ar 
    24   21   20 ar 
    25   21   22 ar 
    26   22   23 ar 
    27   23   24 ar 
    28    2   26 1  
    29    2   27 1  
    30    2   28 1  
    31    3   29 1  
    32    7   30 1  
    33    7   31 1  
    34    7   32 1  
    35    8   33 1  
    36    8   34 1  
    37    8   35 1  
    38    9   36 1  
    39   12   37 1  
    40   17   38 1  
    41   18   39 1  
    42   21   40 1  
    43   23   41 1  
@<TRIPOS>SUBSTRUCTURE
     1 704         1

