### 
### Created by X-TOOL on Mon Sep 10 21:13:24 2018
### 

@<TRIPOS>MOLECULE
4nct_ligand
   73    81     1     0     0
SMALL
GAST_HUCK


@<TRIPOS>ATOM
      1 OAD        36.4290   30.2370   -9.2630 O.2       1 2K2        -0.3964
      2 CAX        36.6920   29.3740  -10.1030 C.2       1 2K2         0.1871
      3 NAU        35.7610   28.5260  -10.4940 N.am      1 2K2        -0.2790
      4 CAS        36.4000   27.6760  -11.4900 C.3       1 2K2         0.0603
      5 CBA        37.7070   28.1560  -11.6210 C.ar      1 2K2        -0.0168
      6 CBB        37.8740   29.1950  -10.7630 C.ar      1 2K2         0.0320
      7 CBH        39.0910   29.8120  -10.7310 C.ar      1 2K2        -0.0018
      8 CBC        39.6120   30.8430  -10.0320 C.ar      1 2K2        -0.0072
      9 CAO        39.1070   31.6560   -9.0950 C.ar      1 2K2        -0.0685
     10 CAI        39.8740   32.6760   -8.5150 C.ar      1 2K2        -0.0750
     11 CAK        41.1840   32.8500   -8.9170 C.ar      1 2K2        -0.0732
     12 CAQ        41.6750   31.9950   -9.8930 C.ar      1 2K2        -0.0404
     13 CBE        40.8930   31.0270  -10.4210 C.ar      1 2K2         0.0681
     14 NBM        45.3480   27.6830  -11.5600 N.am      1 2K2        -0.2695
     15 CBI        40.0780   29.3710  -11.5490 C.ar      1 2K2         0.0952
     16 CBJ        39.8890   28.3320  -12.3910 C.ar      1 2K2         0.0978
     17 CBG        38.7020   27.7290  -12.4300 C.ar      1 2K2         0.0011
     18 CBD        38.7890   26.7350  -13.3350 C.ar      1 2K2        -0.0075
     19 CAP        37.8880   25.8320  -13.7430 C.ar      1 2K2        -0.0696
     20 CAJ        38.1980   24.8650  -14.6910 C.ar      1 2K2        -0.0759
     21 CAL        39.4730   24.8670  -15.2240 C.ar      1 2K2        -0.0739
     22 CAR        40.3690   25.8350  -14.7940 C.ar      1 2K2        -0.0408
     23 CBF        40.0230   26.7350  -13.8610 C.ar      1 2K2         0.0695
     24 NBN        41.1720   30.1060  -11.3370 N.pl3     1 2K2        -0.2378
     25 CBQ        42.1350   28.1180  -13.5270 C.3       1 2K2         0.1989
     26 CBP        43.0610   27.3600  -12.5440 C.3       1 2K2         0.1365
     27 OAV        42.3400   27.0370  -11.3230 O.3       1 2K2        -0.3719
     28 CAA        41.7970   25.7220  -11.2440 C.3       1 2K2         0.0371
     29 CAC        42.6460   27.8870  -14.9510 C.3       1 2K2        -0.0061
     30 OAW        42.2200   29.5330  -13.3420 O.3       1 2K2        -0.3151
     31 CBK        42.4840   30.0590  -12.0320 C.3       1 2K2         0.1638
     32 CAT        43.6500   29.3910  -11.3320 C.3       1 2K2         0.0258
     33 CAB        45.1340   26.7880  -10.4000 C.3       1 2K2         0.0225
     34 CAY        46.6020   28.0160  -11.9770 C.2       1 2K2         0.2075
     35 OAE        46.8050   28.7900  -12.9190 O.2       1 2K2        -0.3845
     36 CAZ        47.7050   27.5630  -11.2600 C.ar      1 2K2         0.0500
     37 CAM        48.5940   26.6440  -11.8050 C.ar      1 2K2        -0.0419
     38 CAG        49.7080   26.2510  -11.0640 C.ar      1 2K2        -0.0562
     39 CAF        49.9380   26.7790   -9.7910 C.ar      1 2K2        -0.0575
     40 CAH        49.0560   27.7130   -9.2490 C.ar      1 2K2        -0.0562
     41 CAN        47.9490   28.1140   -9.9930 C.ar      1 2K2        -0.0419
     42 NBO        40.7020   27.7330  -13.2850 N.pl3     1 2K2        -0.2293
     43 CBL        44.1950   28.2950  -12.2370 C.3       1 2K2         0.0804
     44 H1         34.8149   28.4766  -10.1740 H         1 2K2         0.1863
     45 H2         35.8686   27.7460  -12.4506 H         1 2K2         0.0679
     46 H3         36.4088   26.6295  -11.1512 H         1 2K2         0.0679
     47 H4         38.0794   31.5219   -8.7772 H         1 2K2         0.0576
     48 H5         39.4433   33.3219   -7.7584 H         1 2K2         0.0516
     49 H6         41.8057   33.6262   -8.4856 H         1 2K2         0.0568
     50 H7         42.6974   32.1044  -10.2361 H         1 2K2         0.0539
     51 H8         36.8894   25.8563  -13.3219 H         1 2K2         0.0566
     52 H9         37.4629   24.1319  -15.0028 H         1 2K2         0.0516
     53 H10        39.7665   24.1288  -15.9615 H         1 2K2         0.0561
     54 H11        41.3657   25.8647  -15.2191 H         1 2K2         0.0538
     55 H12        43.4383   26.4361  -13.0066 H         1 2K2         0.0675
     56 H13        41.2785   25.5966  -10.2820 H         1 2K2         0.0524
     57 H14        42.6095   24.9845  -11.3214 H         1 2K2         0.0524
     58 H15        41.0838   25.5697  -12.0675 H         1 2K2         0.0524
     59 H16        41.9988   28.4192  -15.6636 H         1 2K2         0.0284
     60 H17        42.6312   26.8103  -15.1758 H         1 2K2         0.0284
     61 H18        43.6752   28.2655  -15.0372 H         1 2K2         0.0284
     62 H19        42.7988   31.1051  -12.1609 H         1 2K2         0.0931
     63 H20        43.3104   28.9526  -10.3820 H         1 2K2         0.0339
     64 H21        44.4373   30.1329  -11.1328 H         1 2K2         0.0339
     65 H22        46.1056   26.4292  -10.0296 H         1 2K2         0.0486
     66 H23        44.5192   25.9293  -10.7078 H         1 2K2         0.0486
     67 H24        44.6183   27.3405   -9.6008 H         1 2K2         0.0486
     68 H25        48.4232   26.2373  -12.7952 H         1 2K2         0.0669
     69 H26        50.4019   25.5292  -11.4794 H         1 2K2         0.0629
     70 H27        50.8049   26.4615   -9.2229 H         1 2K2         0.0653
     71 H28        49.2298   28.1222   -8.2603 H         1 2K2         0.0629
     72 H29        47.2708   28.8575   -9.5901 H         1 2K2         0.0669
     73 H30        44.5456   28.7337  -13.1828 H         1 2K2         0.0587
@<TRIPOS>BOND
     1    2    1 2  
     2    2    3 am 
     3    6    2 1  
     4    4    3 1  
     5    5    4 1  
     6    5    6 ar 
     7   17    5 ar 
     8    7    6 ar 
     9    7    8 1  
    10   15    7 ar 
    11    8    9 ar 
    12   13    8 ar 
    13    9   10 ar 
    14   11   10 ar 
    15   12   11 ar 
    16   13   12 ar 
    17   24   13 1  
    18   14   33 1  
    19   14   34 am 
    20   43   14 1  
    21   16   15 ar 
    22   15   24 1  
    23   16   17 ar 
    24   42   16 1  
    25   18   17 1  
    26   18   19 ar 
    27   23   18 ar 
    28   19   20 ar 
    29   21   20 ar 
    30   22   21 ar 
    31   23   22 ar 
    32   42   23 1  
    33   24   31 1  
    34   26   25 1  
    35   25   29 1  
    36   25   30 1  
    37   25   42 1  
    38   26   27 1  
    39   26   43 1  
    40   27   28 1  
    41   30   31 1  
    42   31   32 1  
    43   32   43 1  
    44   34   35 2  
    45   34   36 1  
    46   36   37 ar 
    47   36   41 ar 
    48   37   38 ar 
    49   38   39 ar 
    50   39   40 ar 
    51   40   41 ar 
    52    3   44 1  
    53    4   45 1  
    54    4   46 1  
    55    9   47 1  
    56   10   48 1  
    57   11   49 1  
    58   12   50 1  
    59   19   51 1  
    60   20   52 1  
    61   21   53 1  
    62   22   54 1  
    63   26   55 1  
    64   28   56 1  
    65   28   57 1  
    66   28   58 1  
    67   29   59 1  
    68   29   60 1  
    69   29   61 1  
    70   31   62 1  
    71   32   63 1  
    72   32   64 1  
    73   33   65 1  
    74   33   66 1  
    75   33   67 1  
    76   37   68 1  
    77   38   69 1  
    78   39   70 1  
    79   40   71 1  
    80   41   72 1  
    81   43   73 1  
@<TRIPOS>SUBSTRUCTURE
     1 2K2         1

