### 
### Created by X-TOOL on Mon Sep 10 21:13:18 2018
### 

@<TRIPOS>MOLECULE
4ng9_ligand
   73    76     1     0     0
SMALL
GAST_HUCK


@<TRIPOS>ATOM
      1 C18         5.1270   36.2720   24.8080 C.ar      1 2KE        -0.0353
      2 C17         5.7750   37.1000   25.7570 C.ar      1 2KE        -0.0191
      3 C15         7.1530   38.2490   24.1430 C.2       1 2KE         0.2129
      4 C19         3.7870   35.9300   25.0210 C.ar      1 2KE         0.1140
      5 C20         3.0630   36.4330   26.1760 C.ar      1 2KE         0.1133
      6 C21         3.7490   37.2520   27.1230 C.ar      1 2KE        -0.0474
      7 C22         5.1000   37.5730   26.9150 C.ar      1 2KE        -0.0756
      8 C11         9.6220   33.6090   27.2470 C.ar      1 2KE        -0.0511
      9 C34         2.8490   38.6080   21.0260 C.ar      1 2KE        -0.0421
     10 C27         0.7740   36.5460   27.2120 C.3       1 2KE         0.0718
     11 C33         2.7950   38.8070   22.4270 C.ar      1 2KE         0.1014
     12 N1          6.5840   39.5000   24.1610 N.am      1 2KE        -0.2723
     13 N2          9.6950   33.5190   31.0160 N.ar      1 2KE        -0.2974
     14 C3          9.0770   34.7000   31.2740 C.ar      1 2KE        -0.0195
     15 C4          8.5530   35.5480   30.3010 C.ar      1 2KE        -0.0566
     16 C5          8.7080   35.1790   28.9300 C.ar      1 2KE        -0.0283
     17 C6          9.3890   33.9460   28.6050 C.ar      1 2KE         0.0242
     18 C7          9.8290   33.1210   29.7130 C.ar      1 2KE         0.1155
     19 C8          8.2210   36.0290   27.8800 C.ar      1 2KE        -0.0391
     20 C9          8.4460   35.6370   26.5430 C.ar      1 2KE         0.0446
     21 C10         9.1770   34.4130   26.2510 C.ar      1 2KE        -0.0354
     22 N12        10.3420   31.8370   29.5270 N.pl3     1 2KE        -0.3167
     23 N13         8.0320   36.3440   25.4060 N.pl3     1 2KE        -0.2911
     24 C14         7.1950   37.5330   25.4940 C.3       1 2KE         0.1522
     25 O16         7.6240   37.7380   23.1190 O.2       1 2KE        -0.3918
     26 O23         1.7090   36.0400   26.2310 O.3       1 2KE        -0.3234
     27 O24         3.1100   35.0230   24.2330 O.3       1 2KE        -0.3235
     28 C25         3.5860   34.7810   22.9200 C.3       1 2KE         0.0650
     29 C26         2.8830   33.6710   22.4360 C.3       1 2KE        -0.0375
     30 C28        -0.5940   36.4200   26.6050 C.3       1 2KE        -0.0351
     31 C29         0.9200   35.7800   28.5000 C.3       1 2KE        -0.0351
     32 C30         6.3650   40.2760   22.9610 C.3       1 2KE         0.0647
     33 C31         5.1470   39.6200   22.2970 C.ar      1 2KE        -0.0191
     34 C32         3.9790   39.3070   23.0470 C.ar      1 2KE        -0.0318
     35 C35         4.0020   38.8870   20.2820 C.ar      1 2KE        -0.0667
     36 C36         5.1510   39.3900   20.9180 C.ar      1 2KE        -0.0583
     37 S37         1.3440   38.5330   23.2980 S.o2      1 2KE         0.0643
     38 O38         1.5810   38.7720   24.6900 O.2       1 2KE        -0.1506
     39 O39         0.3170   39.2620   22.6290 O.2       1 2KE        -0.1506
     40 N40         0.9500   36.9650   23.0940 N.am      1 2KE        -0.2610
     41 H           5.6581   35.9107   23.9348 H         1 2KE         0.0455
     42 H           3.2293   37.6243   27.9985 H         1 2KE         0.0493
     43 H           5.6290   38.1825   27.6387 H         1 2KE         0.0441
     44 H          10.1608   32.7003   27.0038 H         1 2KE         0.0651
     45 H           1.9719   38.2285   20.5144 H         1 2KE         0.0578
     46 H           0.9828   37.6073   27.4121 H         1 2KE         0.0637
     47 H           6.3102   39.8895   25.0404 H         1 2KE         0.1880
     48 H           8.9848   35.0045   32.3103 H         1 2KE         0.0707
     49 H           8.0415   36.4631   30.5769 H         1 2KE         0.0523
     50 H           7.6940   36.9483   28.1085 H         1 2KE         0.0458
     51 H           9.3687   34.1399   25.2196 H         1 2KE         0.0561
     52 H          10.4717   31.4672   28.5745 H         1 2KE         0.1819
     53 H          10.5911   31.2588   30.3422 H         1 2KE         0.1819
     54 H           8.3294   36.0119   24.4774 H         1 2KE         0.1829
     55 H           7.5630   38.2031   26.2849 H         1 2KE         0.0932
     56 H           4.6647   34.5669   22.9411 H         1 2KE         0.0606
     57 H           3.3984   35.6566   22.2812 H         1 2KE         0.0606
     58 H           3.2185   33.4418   21.4138 H         1 2KE         0.0255
     59 H           1.8060   33.8945   22.4270 H         1 2KE         0.0255
     60 H           3.0723   32.8047   23.0869 H         1 2KE         0.0255
     61 H          -1.3462   36.7936   27.3154 H         1 2KE         0.0258
     62 H          -0.7981   35.3634   26.3769 H         1 2KE         0.0258
     63 H          -0.6398   37.0107   25.6782 H         1 2KE         0.0258
     64 H           0.2066   36.1696   29.2411 H         1 2KE         0.0258
     65 H           1.9451   35.8962   28.8815 H         1 2KE         0.0258
     66 H           0.7148   34.7147   28.3184 H         1 2KE         0.0258
     67 H           7.2426   40.2257   22.2997 H         1 2KE         0.0683
     68 H           6.1534   41.3263   23.2102 H         1 2KE         0.0683
     69 H           3.9889   39.4527   24.1211 H         1 2KE         0.0577
     70 H           4.0089   38.7146   19.2118 H         1 2KE         0.0600
     71 H           6.0421   39.5999   20.3375 H         1 2KE         0.0557
     72 H           0.1266   36.5961   23.5253 H         1 2KE         0.1635
     73 H           1.5316   36.3716   22.5375 H         1 2KE         0.1635
@<TRIPOS>BOND
     1    2    1 ar 
     2    1    4 ar 
     3    2    7 ar 
     4   24    2 1  
     5   12    3 am 
     6    3   24 1  
     7    3   25 2  
     8    4    5 ar 
     9    4   27 1  
    10    6    5 ar 
    11    5   26 1  
    12    7    6 ar 
    13    8   17 ar 
    14   21    8 ar 
    15   11    9 ar 
    16    9   35 ar 
    17   26   10 1  
    18   10   30 1  
    19   10   31 1  
    20   34   11 ar 
    21   11   37 1  
    22   32   12 1  
    23   14   13 ar 
    24   18   13 ar 
    25   15   14 ar 
    26   16   15 ar 
    27   16   17 ar 
    28   19   16 ar 
    29   17   18 ar 
    30   18   22 1  
    31   20   19 ar 
    32   20   21 ar 
    33   23   20 1  
    34   24   23 1  
    35   27   28 1  
    36   28   29 1  
    37   33   32 1  
    38   33   34 ar 
    39   33   36 ar 
    40   35   36 ar 
    41   37   38 2  
    42   37   39 2  
    43   37   40 am 
    44    1   41 1  
    45    6   42 1  
    46    7   43 1  
    47    8   44 1  
    48    9   45 1  
    49   10   46 1  
    50   12   47 1  
    51   14   48 1  
    52   15   49 1  
    53   19   50 1  
    54   21   51 1  
    55   22   52 1  
    56   22   53 1  
    57   23   54 1  
    58   24   55 1  
    59   28   56 1  
    60   28   57 1  
    61   29   58 1  
    62   29   59 1  
    63   29   60 1  
    64   30   61 1  
    65   30   62 1  
    66   30   63 1  
    67   31   64 1  
    68   31   65 1  
    69   31   66 1  
    70   32   67 1  
    71   32   68 1  
    72   34   69 1  
    73   35   70 1  
    74   36   71 1  
    75   40   72 1  
    76   40   73 1  
@<TRIPOS>SUBSTRUCTURE
     1 2KE         1

