### 
### Created by X-TOOL on Mon Sep 10 21:13:18 2018
### 

@<TRIPOS>MOLECULE
4nga_ligand
   80    83     1     0     0
SMALL
GAST_HUCK


@<TRIPOS>ATOM
      1 C13         5.8160   36.8360   25.9100 C.ar      1 2KF        -0.0191
      2 C18         3.7450   35.8240   25.2270 C.ar      1 2KF         0.1140
      3 C17         5.1090   36.0750   25.0040 C.ar      1 2KF        -0.0353
      4 C19         3.0910   36.3570   26.3990 C.ar      1 2KF         0.1133
      5 C20         3.8520   37.1380   27.3300 C.ar      1 2KF        -0.0474
      6 C21         5.1990   37.3620   27.0800 C.ar      1 2KF        -0.0756
      7 C24         0.9680   36.3570   27.7110 C.3       1 2KF         0.0718
      8 C12         7.2710   37.1470   25.6230 C.3       1 2KF         0.1522
      9 C34         4.8910   39.4530   20.0730 C.ar      1 2KF        -0.0436
     10 C27         3.7290   34.3110   23.3400 C.3       1 2KF         0.0650
     11 C33         3.7840   38.7770   20.6020 C.ar      1 2KF        -0.0669
     12 C1          9.0050   34.6030   31.4180 C.ar      1 2KF        -0.0195
     13 N2          9.6060   33.3790   31.2530 N.ar      1 2KF        -0.2974
     14 C3          9.7730   32.8930   29.9560 C.ar      1 2KF         0.1155
     15 C4          9.3400   33.6240   28.7910 C.ar      1 2KF         0.0242
     16 C5          8.7080   34.9020   29.0340 C.ar      1 2KF        -0.0283
     17 C6          8.5470   35.3820   30.3670 C.ar      1 2KF        -0.0566
     18 C7          9.5580   33.1740   27.4440 C.ar      1 2KF        -0.0511
     19 C8          9.1750   33.9680   26.3940 C.ar      1 2KF        -0.0354
     20 C9          8.5050   35.2450   26.6440 C.ar      1 2KF         0.0446
     21 C10         8.2790   35.6910   27.9500 C.ar      1 2KF        -0.0391
     22 N11         8.1060   35.9540   25.5190 N.pl3     1 2KF        -0.2911
     23 C14         7.4110   37.9610   24.3600 C.2       1 2KF         0.2129
     24 O15         7.8460   37.4940   23.2880 O.2       1 2KF        -0.3918
     25 N16         6.9850   39.2880   24.5120 N.am      1 2KF        -0.2722
     26 O22         3.0000   35.0520   24.3320 O.3       1 2KF        -0.3235
     27 O23         1.7370   36.0310   26.5250 O.3       1 2KF        -0.3234
     28 C25        -0.4540   36.3050   27.2790 C.3       1 2KF        -0.0351
     29 C26         1.2540   35.4160   28.8580 C.3       1 2KF        -0.0351
     30 C28         2.7880   33.4230   22.6840 C.3       1 2KF        -0.0375
     31 C29         6.8980   40.1700   23.3470 C.3       1 2KF         0.0664
     32 C30         5.8400   39.7060   22.3180 C.ar      1 2KF         0.0038
     33 C31         4.7130   39.0290   22.8380 C.ar      1 2KF        -0.0566
     34 C32         3.6950   38.5670   22.0040 C.ar      1 2KF        -0.0684
     35 C35         5.9580   39.9450   20.8850 C.ar      1 2KF         0.0916
     36 S36         7.1950   40.7830   20.0890 S.o2      1 2KF        -0.0031
     37 O37         6.6440   41.3900   18.9310 O.2       1 2KF        -0.1702
     38 O38         7.8910   41.6500   20.9650 O.2       1 2KF        -0.1702
     39 C39         8.3260   39.5390   19.4700 C.3       1 2KF         0.0754
     40 C40         8.7250   38.4200   20.4080 C.3       1 2KF        -0.0428
     41 C41         9.6150   40.1860   19.0320 C.3       1 2KF        -0.0428
     42 N42        10.4060   31.6660   29.8300 N.pl3     1 2KF        -0.3167
     43 H           5.6018   35.6733   24.1260 H         1 2KF         0.0455
     44 H           3.3821   37.5478   28.2167 H         1 2KF         0.0493
     45 H           5.7863   37.9427   27.7821 H         1 2KF         0.0441
     46 H           1.2145   37.3779   28.0382 H         1 2KF         0.0637
     47 H           7.6498   37.7485   26.4624 H         1 2KF         0.0932
     48 H           4.9399   39.6094   19.0015 H         1 2KF         0.0618
     49 H           4.5272   33.7253   23.8194 H         1 2KF         0.0606
     50 H           4.1707   35.0001   22.6051 H         1 2KF         0.0606
     51 H           3.0003   38.4164   19.9456 H         1 2KF         0.0560
     52 H           8.8820   34.9809   32.4265 H         1 2KF         0.0707
     53 H           8.0747   36.3394   30.5551 H         1 2KF         0.0523
     54 H          10.0226   32.2122   27.2590 H         1 2KF         0.0651
     55 H           9.3689   33.6492   25.3762 H         1 2KF         0.0561
     56 H           7.7779   36.6360   28.1261 H         1 2KF         0.0458
     57 H           8.4064   35.6304   24.5884 H         1 2KF         0.1829
     58 H           6.7401   39.6327   25.4182 H         1 2KF         0.1880
     59 H          -1.1055   36.5435   28.1326 H         1 2KF         0.0258
     60 H          -0.6884   35.2957   26.9097 H         1 2KF         0.0258
     61 H          -0.6201   37.0374   26.4752 H         1 2KF         0.0258
     62 H           0.6482   35.7053   29.7294 H         1 2KF         0.0258
     63 H           2.3212   35.4699   29.1192 H         1 2KF         0.0258
     64 H           1.0008   34.3877   28.5606 H         1 2KF         0.0258
     65 H           3.3122   32.8369   21.9148 H         1 2KF         0.0255
     66 H           1.9909   34.0168   22.2127 H         1 2KF         0.0255
     67 H           2.3474   32.7419   23.4270 H         1 2KF         0.0255
     68 H           7.8803   40.1964   22.8527 H         1 2KF         0.0684
     69 H           6.6333   41.1807   23.6910 H         1 2KF         0.0684
     70 H           4.6386   38.8656   23.9070 H         1 2KF         0.0558
     71 H           2.8397   38.0500   22.4239 H         1 2KF         0.0599
     72 H           7.8409   39.0793   18.5963 H         1 2KF         0.0533
     73 H           9.4176   37.7386   19.8922 H         1 2KF         0.0248
     74 H           7.8278   37.8646   20.7188 H         1 2KF         0.0248
     75 H           9.2196   38.8435   21.2946 H         1 2KF         0.0248
     76 H          10.3023   39.4149   18.6539 H         1 2KF         0.0248
     77 H          10.0763   40.7005   19.8878 H         1 2KF         0.0248
     78 H           9.4071   40.9147   18.2346 H         1 2KF         0.0248
     79 H          10.5568   31.2577   28.8965 H         1 2KF         0.1819
     80 H          10.7255   31.1627   30.6699 H         1 2KF         0.1819
@<TRIPOS>BOND
     1    1    3 ar 
     2    1    6 ar 
     3    8    1 1  
     4    3    2 ar 
     5    2    4 ar 
     6    2   26 1  
     7    5    4 ar 
     8    4   27 1  
     9    6    5 ar 
    10   27    7 1  
    11    7   28 1  
    12    7   29 1  
    13    8   22 1  
    14   23    8 1  
    15    9   11 ar 
    16   35    9 ar 
    17   26   10 1  
    18   10   30 1  
    19   11   34 ar 
    20   12   13 ar 
    21   17   12 ar 
    22   14   13 ar 
    23   15   14 ar 
    24   14   42 1  
    25   16   15 ar 
    26   18   15 ar 
    27   16   17 ar 
    28   21   16 ar 
    29   19   18 ar 
    30   20   19 ar 
    31   20   21 ar 
    32   22   20 1  
    33   23   24 2  
    34   25   23 am 
    35   31   25 1  
    36   32   31 1  
    37   32   33 ar 
    38   32   35 ar 
    39   33   34 ar 
    40   35   36 1  
    41   36   37 2  
    42   36   38 2  
    43   36   39 1  
    44   39   40 1  
    45   39   41 1  
    46    3   43 1  
    47    5   44 1  
    48    6   45 1  
    49    7   46 1  
    50    8   47 1  
    51    9   48 1  
    52   10   49 1  
    53   10   50 1  
    54   11   51 1  
    55   12   52 1  
    56   17   53 1  
    57   18   54 1  
    58   19   55 1  
    59   21   56 1  
    60   22   57 1  
    61   25   58 1  
    62   28   59 1  
    63   28   60 1  
    64   28   61 1  
    65   29   62 1  
    66   29   63 1  
    67   29   64 1  
    68   30   65 1  
    69   30   66 1  
    70   30   67 1  
    71   31   68 1  
    72   31   69 1  
    73   33   70 1  
    74   34   71 1  
    75   39   72 1  
    76   40   73 1  
    77   40   74 1  
    78   40   75 1  
    79   41   76 1  
    80   41   77 1  
    81   41   78 1  
    82   42   79 1  
    83   42   80 1  
@<TRIPOS>SUBSTRUCTURE
     1 2KF         1

