### 
### Created by X-TOOL on Mon Sep 10 21:13:17 2018
### 

@<TRIPOS>MOLECULE
4ngm_ligand
   58    58     1     0     0
SMALL
GAST_HUCK


@<TRIPOS>ATOM
      1 C1         17.0330   20.5070   39.1530 C.2       1 JB7         0.0600
      2 C2         16.1030   20.7150   38.0140 C.3       1 JB7         0.0962
      3 C3         14.8230   19.9650   38.3750 C.3       1 JB7        -0.0066
      4 C4         15.0420   18.4520   38.5260 C.3       1 JB7         0.0038
      5 C5         13.8630   17.7400   39.1800 C.2       1 JB7         0.0350
      6 C6         17.9020   20.5950   36.4750 C.2       1 JB7         0.2608
      7 C15        26.0240   15.2650   39.4020 C.ar      1 JB7        -0.0556
      8 C17        25.1950   13.5430   37.9830 C.ar      1 JB7         0.0056
      9 C18        24.9250   14.4820   36.9680 C.ar      1 JB7        -0.0589
     10 O8         24.0250   19.7700   40.5360 O.2       1 JB7        -0.3970
     11 C20        24.7620   18.8310   40.3170 C.2       1 JB7         0.1772
     12 C21        25.3970   18.1040   41.4710 C.3       1 JB7         0.0260
     13 N3         25.0130   18.5090   39.0560 N.am      1 JB7        -0.2617
     14 C13        26.0900   17.6240   38.6300 C.3       1 JB7         0.0688
     15 C14        25.7090   16.2090   38.4020 C.ar      1 JB7        -0.0179
     16 C19        25.1760   15.8360   37.1880 C.ar      1 JB7        -0.0556
     17 BR         24.8880   11.6510   37.7540 Br        1 JB7        -0.0561
     18 C16        25.7420   13.8990   39.2090 C.ar      1 JB7        -0.0589
     19 C12        24.3670   19.1630   37.9020 C.3       1 JB7         0.0361
     20 C11        22.9090   18.8260   37.7020 C.3       1 JB7        -0.0322
     21 C10        22.2630   19.6080   36.5510 C.3       1 JB7        -0.0476
     22 C9         20.7650   19.2620   36.5220 C.3       1 JB7        -0.0181
     23 C7         19.9740   19.9100   35.3880 C.3       1 JB7         0.0947
     24 C8         20.2430   19.3110   34.0420 C.2       1 JB7         0.0599
     25 O7         19.6740   18.1930   33.6730 O.co2     1 JB7        -0.5666
     26 O6         20.8850   19.8640   33.1650 O.co2     1 JB7        -0.5666
     27 N2         18.5890   19.7660   35.6640 N.am      1 JB7        -0.2576
     28 O5         18.3550   21.6030   37.0230 O.2       1 JB7        -0.4006
     29 N1         16.6810   20.1730   36.8380 N.am      1 JB7        -0.2575
     30 O2         17.8680   19.5890   39.1610 O.co2     1 JB7        -0.5666
     31 O1         16.8480   21.3570   40.1620 O.co2     1 JB7        -0.5666
     32 O3         12.9890   18.2620   39.9220 O.co2     1 JB7        -0.5690
     33 O4         13.7650   16.4300   38.9500 O.co2     1 JB7        -0.5690
     34 H          15.8951   21.7855   37.8698 H         1 JB7         0.0724
     35 H          14.0803   20.1351   37.5816 H         1 JB7         0.0323
     36 H          14.4400   20.3614   39.3269 H         1 JB7         0.0323
     37 H          15.9369   18.2876   39.1441 H         1 JB7         0.0432
     38 H          15.2017   18.0198   37.5272 H         1 JB7         0.0432
     39 H          26.4865   15.5937   40.3257 H         1 JB7         0.0564
     40 H          24.5226   14.1523   36.0170 H         1 JB7         0.0626
     41 H          26.0278   17.2883   41.0880 H         1 JB7         0.0467
     42 H          24.6116   17.6870   42.1185 H         1 JB7         0.0467
     43 H          26.0159   18.8051   42.0502 H         1 JB7         0.0467
     44 H          26.8696   17.6430   39.4058 H         1 JB7         0.0692
     45 H          26.4996   18.0193   37.6888 H         1 JB7         0.0692
     46 H          24.9577   16.5743   36.4249 H         1 JB7         0.0564
     47 H          25.9418   13.1623   39.9786 H         1 JB7         0.0626
     48 H          24.9121   18.8657   36.9940 H         1 JB7         0.0524
     49 H          24.4484   20.2514   38.0388 H         1 JB7         0.0524
     50 H          22.3658   19.0568   38.6302 H         1 JB7         0.0285
     51 H          22.8247   17.7508   37.4854 H         1 JB7         0.0285
     52 H          22.7304   19.3222   35.5972 H         1 JB7         0.0268
     53 H          22.3934   20.6880   36.7142 H         1 JB7         0.0268
     54 H          20.3217   19.5855   37.4753 H         1 JB7         0.0305
     55 H          20.6688   18.1706   36.4246 H         1 JB7         0.0305
     56 H          20.2326   20.9785   35.3517 H         1 JB7         0.0723
     57 H          18.0968   19.0092   35.2338 H         1 JB7         0.1869
     58 H          16.1908   19.4931   36.2926 H         1 JB7         0.1869
@<TRIPOS>BOND
     1    2    1 1  
     2    1   30 ar 
     3    1   31 ar 
     4    2    3 1  
     5   29    2 1  
     6    3    4 1  
     7    4    5 1  
     8    5   32 ar 
     9    5   33 ar 
    10   27    6 am 
    11    6   28 2  
    12    6   29 am 
    13   15    7 ar 
    14    7   18 ar 
    15    9    8 ar 
    16    8   17 1  
    17   18    8 ar 
    18   16    9 ar 
    19   11   10 2  
    20   11   12 1  
    21   13   11 am 
    22   13   14 1  
    23   19   13 1  
    24   14   15 1  
    25   15   16 ar 
    26   20   19 1  
    27   21   20 1  
    28   22   21 1  
    29   23   22 1  
    30   23   24 1  
    31   23   27 1  
    32   24   25 ar 
    33   24   26 ar 
    34    2   34 1  
    35    3   35 1  
    36    3   36 1  
    37    4   37 1  
    38    4   38 1  
    39    7   39 1  
    40    9   40 1  
    41   12   41 1  
    42   12   42 1  
    43   12   43 1  
    44   14   44 1  
    45   14   45 1  
    46   16   46 1  
    47   18   47 1  
    48   19   48 1  
    49   19   49 1  
    50   20   50 1  
    51   20   51 1  
    52   21   52 1  
    53   21   53 1  
    54   22   54 1  
    55   22   55 1  
    56   23   56 1  
    57   27   57 1  
    58   29   58 1  
@<TRIPOS>SUBSTRUCTURE
     1 JB7         1

