### 
### Created by X-TOOL on Mon Sep 10 21:13:18 2018
### 

@<TRIPOS>MOLECULE
4ngn_ligand
   42    41     1     0     0
SMALL
GAST_HUCK


@<TRIPOS>ATOM
      1 O23       -25.3400  -16.8820  -40.9830 O.2       1 J96        -0.3831
      2 C12       -25.3720  -16.4730  -42.1370 C.2       1 J96         0.1693
      3 N2        -24.5750  -16.9320  -43.1010 N.am      1 J96        -0.2885
      4 C11       -23.2330  -17.4600  -42.7830 C.3       1 J96         0.0312
      5 C10       -23.1460  -18.9350  -42.3480 C.3       1 J96        -0.0324
      6 C9        -22.3500  -19.8630  -43.3050 C.3       1 J96        -0.0476
      7 C8        -20.8820  -19.5320  -43.1800 C.3       1 J96        -0.0181
      8 C1        -19.8960  -20.1320  -44.2020 C.3       1 J96         0.0947
      9 N         -18.5820  -19.7750  -43.7250 N.am      1 J96        -0.2576
     10 C2        -17.8630  -20.5210  -42.8720 C.2       1 J96         0.2608
     11 O6        -18.3100  -21.5880  -42.3970 O.2       1 J96        -0.4006
     12 N1        -16.5900  -20.1540  -42.6210 N.am      1 J96        -0.2575
     13 C3        -16.0100  -20.6590  -41.3710 C.3       1 J96         0.0962
     14 C7        -16.9970  -20.4520  -40.2400 C.2       1 J96         0.0600
     15 O5        -17.9050  -19.5810  -40.1950 O.co2     1 J96        -0.5666
     16 O4        -16.8880  -21.3100  -39.2220 O.co2     1 J96        -0.5666
     17 C4        -14.6800  -19.9680  -40.9720 C.3       1 J96        -0.0066
     18 C5        -14.9460  -18.4370  -40.9140 C.3       1 J96         0.0038
     19 C6        -13.8530  -17.6530  -40.2660 C.2       1 J96         0.0350
     20 O3        -13.7130  -16.4240  -40.4570 O.co2     1 J96        -0.5690
     21 O2        -13.0150  -18.2090  -39.4460 O.co2     1 J96        -0.5690
     22 C         -20.0910  -19.4650  -45.5480 C.2       1 J96         0.0599
     23 O1        -19.5640  -18.3700  -45.7830 O.co2     1 J96        -0.5666
     24 O         -20.7270  -20.0950  -46.4670 O.co2     1 J96        -0.5666
     25 H         -26.0895  -15.6933  -42.3883 H         1 J96         0.1544
     26 H         -24.8890  -16.9188  -44.0503 H         1 J96         0.1860
     27 H         -22.8209  -16.8487  -41.9667 H         1 J96         0.0522
     28 H         -22.6087  -17.3417  -43.6809 H         1 J96         0.0522
     29 H         -24.1707  -19.3270  -42.2689 H         1 J96         0.0285
     30 H         -22.6626  -18.9702  -41.3605 H         1 J96         0.0285
     31 H         -22.6806  -19.6992  -44.3413 H         1 J96         0.0268
     32 H         -22.5184  -20.9142  -43.0282 H         1 J96         0.0268
     33 H         -20.5586  -19.8673  -42.1835 H         1 J96         0.0305
     34 H         -20.7904  -18.4378  -43.2464 H         1 J96         0.0305
     35 H         -20.0178  -21.2222  -44.2829 H         1 J96         0.0723
     36 H         -18.1820  -18.9182  -44.0503 H         1 J96         0.1869
     37 H         -16.0723  -19.5727  -43.2488 H         1 J96         0.1869
     38 H         -15.8184  -21.7352  -41.4938 H         1 J96         0.0724
     39 H         -13.9044  -20.1860  -41.7209 H         1 J96         0.0323
     40 H         -14.3502  -20.3292  -39.9867 H         1 J96         0.0323
     41 H         -15.8741  -18.2687  -40.3481 H         1 J96         0.0432
     42 H         -15.0720  -18.0689  -41.9429 H         1 J96         0.0432
@<TRIPOS>BOND
     1    1    2 2  
     2    2    3 am 
     3    3    4 1  
     4    4    5 1  
     5    5    6 1  
     6    6    7 1  
     7    7    8 1  
     8    8    9 1  
     9    8   22 1  
    10    9   10 am 
    11   10   11 2  
    12   10   12 am 
    13   12   13 1  
    14   13   14 1  
    15   13   17 1  
    16   14   15 ar 
    17   14   16 ar 
    18   17   18 1  
    19   18   19 1  
    20   19   20 ar 
    21   19   21 ar 
    22   22   23 ar 
    23   22   24 ar 
    24    2   25 1  
    25    3   26 1  
    26    4   27 1  
    27    4   28 1  
    28    5   29 1  
    29    5   30 1  
    30    6   31 1  
    31    6   32 1  
    32    7   33 1  
    33    7   34 1  
    34    8   35 1  
    35    9   36 1  
    36   12   37 1  
    37   13   38 1  
    38   17   39 1  
    39   17   40 1  
    40   18   41 1  
    41   18   42 1  
@<TRIPOS>SUBSTRUCTURE
     1 J96         1

