### 
### Created by X-TOOL on Mon Sep 10 21:13:17 2018
### 

@<TRIPOS>MOLECULE
4ngp_ligand
   77    77     1     0     0
SMALL
GAST_HUCK


@<TRIPOS>ATOM
      1 O23       -26.5320   -9.8700  -42.8420 O.2       1 J31        -0.3970
      2 C21       -26.3320  -10.7570  -41.9920 C.2       1 J31         0.1783
      3 N3        -25.4950  -11.7860  -42.1600 N.am      1 J31        -0.2843
      4 C20       -24.7020  -11.9340  -43.3460 C.3       1 J31         0.0589
      5 C19       -25.4430  -12.6730  -44.4270 C.3       1 J31         0.0922
      6 O8        -25.5560  -14.0490  -44.0380 O.3       1 J31        -0.3106
      7 C18       -26.3020  -14.9420  -44.7650 C.ar      1 J31         0.1128
      8 C17       -27.0160  -14.5550  -45.9090 C.ar      1 J31        -0.0268
      9 C16       -27.7600  -15.5230  -46.6120 C.ar      1 J31        -0.0661
     10 C15       -27.7580  -16.8310  -46.1340 C.ar      1 J31        -0.0671
     11 C14       -27.0560  -17.1950  -44.9890 C.ar      1 J31        -0.0503
     12 C13       -26.3240  -16.2550  -44.2920 C.ar      1 J31         0.0783
     13 C         -25.4900  -16.6560  -43.0790 C.2       1 J31         0.1993
     14 N         -24.3450  -17.2680  -43.3770 N.am      1 J31        -0.2880
     15 C1        -23.3760  -17.7620  -42.3860 C.3       1 J31         0.0301
     16 C2        -23.1190  -19.2620  -42.4700 C.3       1 J31        -0.0327
     17 C3        -22.3470  -19.6400  -43.7480 C.3       1 J31        -0.0476
     18 C4        -20.8740  -19.4160  -43.5890 C.3       1 J31        -0.0181
     19 C5        -19.9890  -20.1080  -44.6390 C.3       1 J31         0.0947
     20 N1        -18.6700  -19.8140  -44.1960 N.am      1 J31        -0.2576
     21 C7        -17.9360  -20.6110  -43.4270 C.2       1 J31         0.2608
     22 O7        -18.4000  -21.6560  -42.9410 O.2       1 J31        -0.4006
     23 N2        -16.6850  -20.2330  -43.1240 N.am      1 J31        -0.2575
     24 C8        -16.0720  -20.7560  -41.9040 C.3       1 J31         0.0962
     25 C12       -17.0100  -20.6330  -40.7160 C.2       1 J31         0.0600
     26 O6        -16.8790  -21.3930  -39.7350 O.co2     1 J31        -0.5666
     27 O5        -17.9460  -19.7240  -40.7230 O.co2     1 J31        -0.5666
     28 C9        -14.7510  -20.0260  -41.5190 C.3       1 J31        -0.0066
     29 C10       -15.0310  -18.5050  -41.3610 C.3       1 J31         0.0038
     30 C11       -13.8740  -17.7570  -40.7820 C.2       1 J31         0.0350
     31 O4        -13.7520  -16.5250  -41.0100 O.co2     1 J31        -0.5690
     32 O3        -13.0050  -18.3740  -40.0110 O.co2     1 J31        -0.5690
     33 C6        -20.2010  -19.4910  -45.9990 C.2       1 J31         0.0599
     34 O2        -19.5930  -18.3650  -46.3010 O.co2     1 J31        -0.5666
     35 O1        -20.7850  -20.0640  -46.9060 O.co2     1 J31        -0.5666
     36 O         -25.7690  -16.3900  -41.8950 O.2       1 J31        -0.3909
     37 C22       -27.0470  -10.6630  -40.6650 C.3       1 J31         0.0606
     38 C23       -28.4690  -10.1190  -40.8510 C.3       1 J31         0.0645
     39 O9        -29.0340   -9.8040  -39.5680 O.3       1 J31        -0.3752
     40 C24       -30.4800   -9.7890  -39.4980 C.3       1 J31         0.0709
     41 C25       -31.0130   -8.7360  -38.5170 C.3       1 J31         0.0676
     42 O10       -30.1370   -7.6070  -38.4180 O.3       1 J31        -0.3927
     43 H         -25.4196  -12.4729  -41.4372 H         1 J31         0.1851
     44 H         -23.7881  -12.4926  -43.0955 H         1 J31         0.0547
     45 H         -24.4307  -10.9356  -43.7195 H         1 J31         0.0547
     46 H         -24.8892  -12.5990  -45.3745 H         1 J31         0.0637
     47 H         -26.4458  -12.2391  -44.5535 H         1 J31         0.0637
     48 H         -26.9955  -13.5254  -46.2473 H         1 J31         0.0555
     49 H         -28.3193  -15.2567  -47.5016 H         1 J31         0.0625
     50 H         -28.3198  -17.5877  -46.6696 H         1 J31         0.0536
     51 H         -27.0841  -18.2218  -44.6427 H         1 J31         0.0640
     52 H         -24.1283  -17.4013  -44.3441 H         1 J31         0.1840
     53 H         -23.7600  -17.5319  -41.3812 H         1 J31         0.0519
     54 H         -22.4219  -17.2376  -42.5429 H         1 J31         0.0519
     55 H         -24.0844  -19.7892  -42.4684 H         1 J31         0.0285
     56 H         -22.5304  -19.5719  -41.5939 H         1 J31         0.0285
     57 H         -22.7138  -19.0238  -44.5821 H         1 J31         0.0268
     58 H         -22.5245  -20.7024  -43.9712 H         1 J31         0.0268
     59 H         -20.5785  -19.7877  -42.5968 H         1 J31         0.0305
     60 H         -20.6863  -18.3336  -43.6460 H         1 J31         0.0305
     61 H         -20.1771  -21.1912  -44.6759 H         1 J31         0.0723
     62 H         -18.2662  -18.9456  -44.4838 H         1 J31         0.1869
     63 H         -16.1824  -19.6068  -43.7200 H         1 J31         0.1869
     64 H         -15.8475  -21.8196  -42.0723 H         1 J31         0.0724
     65 H         -14.0017  -20.1814  -42.3092 H         1 J31         0.0323
     66 H         -14.3714  -20.4302  -40.5690 H         1 J31         0.0323
     67 H         -15.8996  -18.3751  -40.6987 H         1 J31         0.0432
     68 H         -15.2594  -18.0855  -42.3519 H         1 J31         0.0432
     69 H         -26.4869   -9.9889  -40.0003 H         1 J31         0.0525
     70 H         -27.1000  -11.6640  -40.2120 H         1 J31         0.0525
     71 H         -29.0899  -10.8787  -41.3483 H         1 J31         0.0585
     72 H         -28.4357   -9.2102  -41.4698 H         1 J31         0.0585
     73 H         -30.8272  -10.7808  -39.1729 H         1 J31         0.0583
     74 H         -30.8789   -9.5710  -40.4997 H         1 J31         0.0583
     75 H         -31.1149   -9.1954  -37.5227 H         1 J31         0.0580
     76 H         -31.9983   -8.3922  -38.8648 H         1 J31         0.0580
     77 H         -29.2847   -7.8947  -38.1126 H         1 J31         0.2095
@<TRIPOS>BOND
     1    1    2 2  
     2    2    3 am 
     3    2   37 1  
     4    3    4 1  
     5    4    5 1  
     6    5    6 1  
     7    6    7 1  
     8    7    8 ar 
     9    7   12 ar 
    10    8    9 ar 
    11    9   10 ar 
    12   10   11 ar 
    13   11   12 ar 
    14   12   13 1  
    15   13   14 am 
    16   13   36 2  
    17   14   15 1  
    18   15   16 1  
    19   16   17 1  
    20   17   18 1  
    21   18   19 1  
    22   19   20 1  
    23   19   33 1  
    24   20   21 am 
    25   21   22 2  
    26   21   23 am 
    27   23   24 1  
    28   24   25 1  
    29   24   28 1  
    30   25   26 ar 
    31   25   27 ar 
    32   28   29 1  
    33   29   30 1  
    34   30   31 ar 
    35   30   32 ar 
    36   33   34 ar 
    37   33   35 ar 
    38   37   38 1  
    39   38   39 1  
    40   39   40 1  
    41   40   41 1  
    42   41   42 1  
    43    3   43 1  
    44    4   44 1  
    45    4   45 1  
    46    5   46 1  
    47    5   47 1  
    48    8   48 1  
    49    9   49 1  
    50   10   50 1  
    51   11   51 1  
    52   14   52 1  
    53   15   53 1  
    54   15   54 1  
    55   16   55 1  
    56   16   56 1  
    57   17   57 1  
    58   17   58 1  
    59   18   59 1  
    60   18   60 1  
    61   19   61 1  
    62   20   62 1  
    63   23   63 1  
    64   24   64 1  
    65   28   65 1  
    66   28   66 1  
    67   29   67 1  
    68   29   68 1  
    69   37   69 1  
    70   37   70 1  
    71   38   71 1  
    72   38   72 1  
    73   40   73 1  
    74   40   74 1  
    75   41   75 1  
    76   41   76 1  
    77   42   77 1  
@<TRIPOS>SUBSTRUCTURE
     1 J31         1

