### 
### Created by X-TOOL on Mon Sep 10 21:13:17 2018
### 

@<TRIPOS>MOLECULE
4ngq_ligand
   61    61     1     0     0
SMALL
GAST_HUCK


@<TRIPOS>ATOM
      1 BR        -23.7000  -15.5120  -50.6330 Br        1 J37        -0.0561
      2 C54       -23.7080  -15.4870  -48.7010 C.ar      1 J37         0.0056
      3 C53       -23.9250  -16.6000  -47.8820 C.ar      1 J37        -0.0589
      4 C52       -23.8630  -16.5130  -46.4740 C.ar      1 J37        -0.0556
      5 C55       -23.4530  -14.3060  -48.0600 C.ar      1 J37        -0.0589
      6 C56       -23.3890  -14.1910  -46.6810 C.ar      1 J37        -0.0556
      7 C51       -23.5870  -15.2880  -45.8430 C.ar      1 J37        -0.0179
      8 C50       -23.5010  -15.0790  -44.3320 C.3       1 J37         0.0688
      9 N2        -23.8260  -16.3250  -43.6220 N.am      1 J37        -0.2615
     10 C11       -22.6670  -17.2040  -43.3870 C.3       1 J37         0.0361
     11 C10       -22.9340  -18.5650  -42.6560 C.3       1 J37        -0.0322
     12 C9        -22.1540  -19.6930  -43.3460 C.3       1 J37        -0.0476
     13 C8        -20.6800  -19.5400  -43.1880 C.3       1 J37        -0.0181
     14 C1        -19.7630  -20.1250  -44.2730 C.3       1 J37         0.0947
     15 N         -18.4850  -19.7960  -43.6830 N.am      1 J37        -0.2576
     16 C2        -17.8550  -20.6210  -42.8350 C.2       1 J37         0.2608
     17 O6        -18.3640  -21.6540  -42.3990 O.2       1 J37        -0.4006
     18 N1        -16.6690  -20.2260  -42.4330 N.am      1 J37        -0.2575
     19 C3        -16.0400  -20.6990  -41.2530 C.3       1 J37         0.0962
     20 C7        -17.0130  -20.4940  -40.1730 C.2       1 J37         0.0600
     21 O5        -17.8900  -19.5860  -40.1960 O.co2     1 J37        -0.5666
     22 O4        -16.8830  -21.3590  -39.1970 O.co2     1 J37        -0.5666
     23 C4        -14.7570  -19.9510  -40.9080 C.3       1 J37        -0.0066
     24 C5        -14.9660  -18.4090  -40.9880 C.3       1 J37         0.0038
     25 C6        -13.8820  -17.6280  -40.2610 C.2       1 J37         0.0350
     26 O3        -13.7340  -16.4050  -40.4230 O.co2     1 J37        -0.5690
     27 O2        -13.0580  -18.2450  -39.4350 O.co2     1 J37        -0.5690
     28 C         -20.0370  -19.4440  -45.5900 C.2       1 J37         0.0599
     29 O1        -19.5680  -18.2380  -45.7870 O.co2     1 J37        -0.5666
     30 O         -20.7800  -19.9030  -46.4280 O.co2     1 J37        -0.5666
     31 C12       -25.1090  -16.5460  -43.2810 C.2       1 J37         0.1801
     32 O21       -25.9910  -16.1540  -44.0190 O.2       1 J37        -0.3967
     33 C13       -25.5030  -17.2420  -41.9790 C.3       1 J37         0.0347
     34 C14       -25.8450  -16.3380  -40.9210 C.3       1 J37        -0.0482
     35 H         -24.1471  -17.5565  -48.3412 H         1 J37         0.0626
     36 H         -24.0300  -17.4001  -45.8738 H         1 J37         0.0564
     37 H         -23.2933  -13.4173  -48.6599 H         1 J37         0.0626
     38 H         -23.1794  -13.2225  -46.2416 H         1 J37         0.0564
     39 H         -24.2132  -14.2956  -44.0335 H         1 J37         0.0692
     40 H         -22.4801  -14.7668  -44.0670 H         1 J37         0.0692
     41 H         -21.9420  -16.6403  -42.7815 H         1 J37         0.0524
     42 H         -22.2243  -17.4364  -44.3668 H         1 J37         0.0524
     43 H         -24.0097  -18.7921  -42.6903 H         1 J37         0.0285
     44 H         -22.6092  -18.4856  -41.6081 H         1 J37         0.0285
     45 H         -22.3973  -19.6866  -44.4187 H         1 J37         0.0268
     46 H         -22.4590  -20.6542  -42.9066 H         1 J37         0.0268
     47 H         -20.4038  -20.0182  -42.2367 H         1 J37         0.0305
     48 H         -20.4694  -18.4618  -43.1313 H         1 J37         0.0305
     49 H         -19.8863  -21.2118  -44.3898 H         1 J37         0.0723
     50 H         -18.0562  -18.9230  -43.9155 H         1 J37         0.1869
     51 H         -16.1817  -19.5537  -42.9903 H         1 J37         0.1869
     52 H         -15.8094  -21.7688  -41.3639 H         1 J37         0.0724
     53 H         -13.9690  -20.2437  -41.6175 H         1 J37         0.0323
     54 H         -14.4488  -20.2189  -39.8866 H         1 J37         0.0323
     55 H         -15.9387  -18.1624  -40.5374 H         1 J37         0.0432
     56 H         -14.9654  -18.1088  -42.0462 H         1 J37         0.0432
     57 H         -24.6565  -17.8608  -41.6465 H         1 J37         0.0500
     58 H         -26.3718  -17.8862  -42.1792 H         1 J37         0.0500
     59 H         -26.1157  -16.9113  -40.0221 H         1 J37         0.0254
     60 H         -26.6986  -15.7172  -41.2307 H         1 J37         0.0254
     61 H         -24.9833  -15.6917  -40.6980 H         1 J37         0.0254
@<TRIPOS>BOND
     1    1    2 1  
     2    2    3 ar 
     3    2    5 ar 
     4    3    4 ar 
     5    4    7 ar 
     6    5    6 ar 
     7    6    7 ar 
     8    7    8 1  
     9    8    9 1  
    10    9   10 1  
    11    9   31 am 
    12   10   11 1  
    13   11   12 1  
    14   12   13 1  
    15   13   14 1  
    16   14   15 1  
    17   14   28 1  
    18   15   16 am 
    19   16   17 2  
    20   16   18 am 
    21   18   19 1  
    22   19   20 1  
    23   19   23 1  
    24   20   21 ar 
    25   20   22 ar 
    26   23   24 1  
    27   24   25 1  
    28   25   26 ar 
    29   25   27 ar 
    30   28   29 ar 
    31   28   30 ar 
    32   31   32 2  
    33   31   33 1  
    34   33   34 1  
    35    3   35 1  
    36    4   36 1  
    37    5   37 1  
    38    6   38 1  
    39    8   39 1  
    40    8   40 1  
    41   10   41 1  
    42   10   42 1  
    43   11   43 1  
    44   11   44 1  
    45   12   45 1  
    46   12   46 1  
    47   13   47 1  
    48   13   48 1  
    49   14   49 1  
    50   15   50 1  
    51   18   51 1  
    52   19   52 1  
    53   23   53 1  
    54   23   54 1  
    55   24   55 1  
    56   24   56 1  
    57   33   57 1  
    58   33   58 1  
    59   34   59 1  
    60   34   60 1  
    61   34   61 1  
@<TRIPOS>SUBSTRUCTURE
     1 J37         1

