### 
### Created by X-TOOL on Mon Sep 10 21:13:17 2018
### 

@<TRIPOS>MOLECULE
4ngr_ligand
   66    66     1     0     0
SMALL
GAST_HUCK


@<TRIPOS>ATOM
      1 C1        -16.0550  -20.6490  -41.2720 C.3       1 J21         0.0962
      2 C2        -14.7570  -19.9100  -40.8440 C.3       1 J21        -0.0066
      3 C3        -15.0050  -18.3930  -40.7670 C.3       1 J21         0.0038
      4 C4        -13.8530  -17.6330  -40.1130 C.2       1 J21         0.0350
      5 C5        -17.9140  -20.5640  -42.8330 C.2       1 J21         0.2608
      6 C6        -19.9420  -20.0400  -44.0880 C.3       1 J21         0.0947
      7 O1        -17.8970  -19.5490  -40.0670 O.co2     1 J21        -0.5666
      8 O2        -13.7020  -16.4050  -40.3200 O.co2     1 J21        -0.5690
      9 O9        -24.9890  -19.7740  -37.8850 O.2       1 J21        -0.3974
     10 C21       -25.2910  -19.4990  -39.0320 C.2       1 J21         0.1730
     11 C22       -25.4690  -20.6440  -39.9910 C.3       1 J21         0.0256
     12 N3        -25.4940  -18.2160  -39.4680 N.am      1 J21        -0.2846
     13 C20       -25.4030  -17.0370  -38.5790 C.3       1 J21         0.0589
     14 C19       -25.7030  -15.6510  -39.1730 C.3       1 J21         0.0922
     15 O8        -25.2710  -15.4200  -40.5480 O.3       1 J21        -0.3100
     16 C18       -25.3170  -14.1560  -41.1550 C.ar      1 J21         0.1153
     17 C17       -25.8260  -13.0500  -40.4670 C.ar      1 J21        -0.0172
     18 C16       -25.8730  -11.7880  -41.0920 C.ar      1 J21         0.0089
     19 BR        -26.6550  -10.3740  -40.1150 Br        1 J21        -0.0489
     20 C15       -25.4030  -11.5530  -42.3750 C.ar      1 J21        -0.0577
     21 C14       -24.9110  -12.6380  -43.0510 C.ar      1 J21        -0.0478
     22 C13       -24.8720  -13.9280  -42.4660 C.ar      1 J21         0.0810
     23 C12       -24.2780  -15.0330  -43.2790 C.2       1 J21         0.2011
     24 O7        -24.0080  -14.7930  -44.4700 O.2       1 J21        -0.3897
     25 N2        -24.0770  -16.2160  -42.6680 N.am      1 J21        -0.2877
     26 C11       -23.4780  -17.3820  -43.3170 C.3       1 J21         0.0302
     27 C10       -23.1590  -18.5870  -42.4010 C.3       1 J21        -0.0327
     28 C9        -22.3080  -19.5350  -43.2520 C.3       1 J21        -0.0476
     29 C8        -20.8130  -19.3490  -43.0480 C.3       1 J21        -0.0181
     30 C7        -20.1500  -19.4710  -45.4420 C.2       1 J21         0.0599
     31 O6        -19.6870  -18.2580  -45.6980 O.co2     1 J21        -0.5666
     32 O5        -20.7080  -20.0710  -46.3060 O.co2     1 J21        -0.5666
     33 N1        -18.6020  -19.8180  -43.6860 N.am      1 J21        -0.2576
     34 O4        -18.3510  -21.6250  -42.3200 O.2       1 J21        -0.4006
     35 N         -16.7000  -20.1230  -42.4830 N.am      1 J21        -0.2575
     36 C         -17.0220  -20.4680  -40.1240 C.2       1 J21         0.0600
     37 O         -16.8910  -21.3240  -39.1090 O.co2     1 J21        -0.5666
     38 O3        -12.9940  -18.2550  -39.3160 O.co2     1 J21        -0.5690
     39 H         -15.8295  -21.7146  -41.4257 H         1 J21         0.0724
     40 H         -13.9655  -20.1110  -41.5809 H         1 J21         0.0323
     41 H         -14.4401  -20.2762  -39.8563 H         1 J21         0.0323
     42 H         -15.9190  -18.2164  -40.1810 H         1 J21         0.0432
     43 H         -15.1440  -18.0081  -41.7880 H         1 J21         0.0432
     44 H         -20.1637  -21.1172  -44.1080 H         1 J21         0.0723
     45 H         -25.7385  -20.2528  -40.9831 H         1 J21         0.0467
     46 H         -26.2694  -21.3054  -39.6279 H         1 J21         0.0467
     47 H         -24.5293  -21.2111  -40.0634 H         1 J21         0.0467
     48 H         -25.7140  -18.0697  -40.4325 H         1 J21         0.1851
     49 H         -24.3773  -17.0063  -38.1828 H         1 J21         0.0547
     50 H         -26.1108  -17.1971  -37.7524 H         1 J21         0.0547
     51 H         -25.2080  -14.9017  -38.5377 H         1 J21         0.0637
     52 H         -26.7921  -15.5011  -39.1361 H         1 J21         0.0637
     53 H         -26.1852  -13.1638  -39.4506 H         1 J21         0.0581
     54 H         -25.4238  -10.5643  -42.8190 H         1 J21         0.0561
     55 H         -24.5413  -12.5061  -44.0614 H         1 J21         0.0646
     56 H         -24.3545  -16.3028  -41.7112 H         1 J21         0.1841
     57 H         -22.5367  -17.0584  -43.7852 H         1 J21         0.0519
     58 H         -24.1747  -17.7275  -44.0949 H         1 J21         0.0519
     59 H         -24.0872  -19.0845  -42.0832 H         1 J21         0.0285
     60 H         -22.5973  -18.2577  -41.5144 H         1 J21         0.0285
     61 H         -22.5405  -19.3561  -44.3121 H         1 J21         0.0268
     62 H         -22.5699  -20.5704  -42.9888 H         1 J21         0.0268
     63 H         -20.5939  -18.2715  -43.0778 H         1 J21         0.0305
     64 H         -20.5491  -19.7497  -42.0581 H         1 J21         0.0305
     65 H         -18.1331  -19.0280  -44.0809 H         1 J21         0.1869
     66 H         -16.2337  -19.4384  -43.0432 H         1 J21         0.1869
@<TRIPOS>BOND
     1    1    2 1  
     2   35    1 1  
     3    1   36 1  
     4    2    3 1  
     5    3    4 1  
     6    4    8 ar 
     7    4   38 ar 
     8   33    5 am 
     9    5   34 2  
    10    5   35 am 
    11   29    6 1  
    12    6   30 1  
    13    6   33 1  
    14   36    7 ar 
    15   10    9 2  
    16   10   11 1  
    17   12   10 am 
    18   13   12 1  
    19   14   13 1  
    20   15   14 1  
    21   16   15 1  
    22   16   17 ar 
    23   22   16 ar 
    24   17   18 ar 
    25   18   19 1  
    26   20   18 ar 
    27   21   20 ar 
    28   22   21 ar 
    29   23   22 1  
    30   23   24 2  
    31   25   23 am 
    32   26   25 1  
    33   27   26 1  
    34   28   27 1  
    35   28   29 1  
    36   30   31 ar 
    37   30   32 ar 
    38   36   37 ar 
    39    1   39 1  
    40    2   40 1  
    41    2   41 1  
    42    3   42 1  
    43    3   43 1  
    44    6   44 1  
    45   11   45 1  
    46   11   46 1  
    47   11   47 1  
    48   12   48 1  
    49   13   49 1  
    50   13   50 1  
    51   14   51 1  
    52   14   52 1  
    53   17   53 1  
    54   20   54 1  
    55   21   55 1  
    56   25   56 1  
    57   26   57 1  
    58   26   58 1  
    59   27   59 1  
    60   27   60 1  
    61   28   61 1  
    62   28   62 1  
    63   29   63 1  
    64   29   64 1  
    65   33   65 1  
    66   35   66 1  
@<TRIPOS>SUBSTRUCTURE
     1 J21         1

