### 
### Created by X-TOOL on Mon Sep 10 21:13:18 2018
### 

@<TRIPOS>MOLECULE
4ngs_ligand
   68    68     1     0     0
SMALL
GAST_HUCK


@<TRIPOS>ATOM
      1 O23       -24.1750  -18.4860  -36.0780 O.2       1 J34        -0.3916
      2 C12       -24.8100  -17.4890  -36.4230 C.2       1 J34         0.2844
      3 N2        -25.8130  -17.5360  -37.3480 N.am      1 J34        -0.2684
      4 C11       -26.2890  -18.7620  -37.9830 C.3       1 J34         0.0317
      5 C10       -27.8090  -18.9050  -37.8870 C.3       1 J34        -0.0328
      6 C9        -28.3000  -19.3610  -36.5170 C.3       1 J34        -0.0477
      7 C8        -29.8420  -19.2570  -36.5150 C.3       1 J34        -0.0181
      8 C1        -30.6940  -19.9410  -35.4000 C.3       1 J34         0.0947
      9 N         -32.0680  -19.6790  -35.7570 N.am      1 J34        -0.2576
     10 C2        -32.7970  -20.4700  -36.5570 C.2       1 J34         0.2608
     11 O6        -32.3170  -21.4820  -37.0460 O.2       1 J34        -0.4006
     12 N1        -34.0680  -20.1460  -36.8200 N.am      1 J34        -0.2575
     13 C3        -34.6540  -20.6790  -38.0450 C.3       1 J34         0.0962
     14 C7        -33.6880  -20.4610  -39.1980 C.2       1 J34         0.0600
     15 O5        -33.8460  -21.3030  -40.2110 O.co2     1 J34        -0.5666
     16 O4        -32.8000  -19.6120  -39.2540 O.co2     1 J34        -0.5666
     17 C4        -35.9850  -19.9690  -38.4110 C.3       1 J34        -0.0066
     18 C5        -35.7310  -18.4430  -38.5370 C.3       1 J34         0.0038
     19 C6        -36.8730  -17.7170  -39.1980 C.2       1 J34         0.0350
     20 O3        -37.7140  -18.2470  -39.9580 O.co2     1 J34        -0.5690
     21 O2        -36.9810  -16.4230  -39.0040 O.co2     1 J34        -0.5690
     22 C         -30.5100  -19.3580  -34.0160 C.2       1 J34         0.0599
     23 O1        -30.0100  -20.0140  -33.0820 O.co2     1 J34        -0.5666
     24 O         -31.0630  -18.2070  -33.7730 O.co2     1 J34        -0.5666
     25 N3        -24.5120  -16.2790  -35.9120 N.am      1 J34        -0.2222
     26 C13       -23.7890  -15.9890  -34.7880 C.ar      1 J34         0.0966
     27 C18       -23.9490  -14.7260  -34.1940 C.ar      1 J34         0.1123
     28 C17       -23.2420  -14.3800  -33.0450 C.ar      1 J34        -0.0463
     29 C16       -22.3410  -15.2980  -32.5040 C.ar      1 J34        -0.0863
     30 C15       -22.1540  -16.5600  -33.0980 C.ar      1 J34        -0.0870
     31 C14       -22.8750  -16.9100  -34.2380 C.ar      1 J34        -0.0496
     32 O7        -24.8390  -13.8220  -34.7070 O.3       1 J34        -0.3224
     33 C19       -24.4770  -12.8550  -35.6900 C.3       1 J34         0.0873
     34 C20       -25.7420  -12.1900  -36.2300 C.3       1 J34         0.0581
     35 N4        -25.4880  -11.4450  -37.4480 N.am      1 J34        -0.2846
     36 C21       -25.0110  -11.9350  -38.6110 C.2       1 J34         0.1730
     37 O22       -25.4040  -12.9770  -39.2030 O.2       1 J34        -0.3974
     38 C22       -23.9270  -11.0390  -39.1600 C.3       1 J34         0.0256
     39 H         -26.2502  -16.6749  -37.6076 H         1 J34         0.1851
     40 H         -25.8193  -19.6242  -37.4870 H         1 J34         0.0517
     41 H         -26.0002  -18.7474  -39.0443 H         1 J34         0.0517
     42 H         -28.1358  -19.6421  -38.6353 H         1 J34         0.0284
     43 H         -28.2638  -17.9288  -38.1109 H         1 J34         0.0284
     44 H         -27.8794  -18.7138  -35.7333 H         1 J34         0.0268
     45 H         -27.9941  -20.4020  -36.3362 H         1 J34         0.0268
     46 H         -30.1847  -19.6772  -37.4720 H         1 J34         0.0305
     47 H         -30.0828  -18.1843  -36.4783 H         1 J34         0.0305
     48 H         -30.4802  -21.0198  -35.3782 H         1 J34         0.0723
     49 H         -32.5020  -18.8583  -35.3853 H         1 J34         0.1869
     50 H         -34.5948  -19.5623  -36.2021 H         1 J34         0.1869
     51 H         -34.8409  -21.7549  -37.9126 H         1 J34         0.0724
     52 H         -36.7297  -20.1542  -37.6229 H         1 J34         0.0323
     53 H         -36.3594  -20.3600  -39.3686 H         1 J34         0.0323
     54 H         -34.8210  -18.2857  -39.1346 H         1 J34         0.0432
     55 H         -35.5848  -18.0261  -37.5296 H         1 J34         0.0432
     56 H         -24.8643  -15.4924  -36.4191 H         1 J34         0.2221
     57 H         -23.3893  -13.4128  -32.5783 H         1 J34         0.0494
     58 H         -21.7783  -15.0358  -31.6154 H         1 J34         0.0459
     59 H         -21.4479  -17.2611  -32.6680 H         1 J34         0.0484
     60 H         -22.7341  -17.8817  -34.6975 H         1 J34         0.0465
     61 H         -23.9415  -13.3501  -36.5134 H         1 J34         0.0628
     62 H         -23.8266  -12.0935  -35.2350 H         1 J34         0.0628
     63 H         -26.1337  -11.5007  -35.4676 H         1 J34         0.0546
     64 H         -26.4903  -12.9684  -36.4397 H         1 J34         0.0546
     65 H         -25.6873  -10.4654  -37.4233 H         1 J34         0.1851
     66 H         -23.5519  -11.4551  -40.1066 H         1 J34         0.0467
     67 H         -23.1021  -10.9751  -38.4352 H         1 J34         0.0467
     68 H         -24.3372  -10.0341  -39.3383 H         1 J34         0.0467
@<TRIPOS>BOND
     1    1    2 2  
     2    2    3 am 
     3    2   25 am 
     4    3    4 1  
     5    4    5 1  
     6    5    6 1  
     7    6    7 1  
     8    7    8 1  
     9    8    9 1  
    10    8   22 1  
    11    9   10 am 
    12   10   11 2  
    13   10   12 am 
    14   12   13 1  
    15   13   14 1  
    16   13   17 1  
    17   14   15 ar 
    18   14   16 ar 
    19   17   18 1  
    20   18   19 1  
    21   19   20 ar 
    22   19   21 ar 
    23   22   23 ar 
    24   22   24 ar 
    25   25   26 1  
    26   26   27 ar 
    27   26   31 ar 
    28   27   28 ar 
    29   27   32 1  
    30   28   29 ar 
    31   29   30 ar 
    32   30   31 ar 
    33   32   33 1  
    34   33   34 1  
    35   34   35 1  
    36   35   36 am 
    37   36   37 2  
    38   36   38 1  
    39    3   39 1  
    40    4   40 1  
    41    4   41 1  
    42    5   42 1  
    43    5   43 1  
    44    6   44 1  
    45    6   45 1  
    46    7   46 1  
    47    7   47 1  
    48    8   48 1  
    49    9   49 1  
    50   12   50 1  
    51   13   51 1  
    52   17   52 1  
    53   17   53 1  
    54   18   54 1  
    55   18   55 1  
    56   25   56 1  
    57   28   57 1  
    58   29   58 1  
    59   30   59 1  
    60   31   60 1  
    61   33   61 1  
    62   33   62 1  
    63   34   63 1  
    64   34   64 1  
    65   35   65 1  
    66   38   66 1  
    67   38   67 1  
    68   38   68 1  
@<TRIPOS>SUBSTRUCTURE
     1 J34         1

