### 
### Created by X-TOOL on Mon Sep 10 21:13:17 2018
### 

@<TRIPOS>MOLECULE
4ngt_ligand
   68    68     1     0     0
SMALL
GAST_HUCK


@<TRIPOS>ATOM
      1 O23       -24.7050  -13.5270  -43.7720 O.2       1 J42        -0.3974
      2 C20       -25.0480  -12.3470  -43.7320 C.2       1 J42         0.1730
      3 N4        -25.3560  -11.6110  -44.8260 N.am      1 J42        -0.2846
      4 C19       -25.3970  -12.1270  -46.2030 C.3       1 J42         0.0581
      5 C18       -26.7910  -12.6310  -46.6080 C.3       1 J42         0.0873
      6 O8        -26.7290  -13.9510  -47.1690 O.3       1 J42        -0.3218
      7 C17       -27.6560  -14.9580  -46.8990 C.ar      1 J42         0.1149
      8 C3        -27.3480  -15.9730  -45.9820 C.ar      1 J42         0.0998
      9 N         -26.1450  -15.9830  -45.3400 N.am      1 J42        -0.2203
     10 C4        -25.8520  -16.9800  -44.4880 C.2       1 J42         0.2854
     11 O7        -26.6710  -17.8610  -44.2690 O.2       1 J42        -0.3912
     12 N1        -24.6650  -17.0060  -43.8630 N.am      1 J42        -0.2682
     13 C5        -24.3400  -18.0410  -42.8780 C.3       1 J42         0.0317
     14 C6        -22.8490  -18.3370  -42.6970 C.3       1 J42        -0.0328
     15 C7        -22.2680  -19.3700  -43.6850 C.3       1 J42        -0.0476
     16 C8        -20.7400  -19.3820  -43.5320 C.3       1 J42        -0.0181
     17 C9        -19.9290  -20.1150  -44.6000 C.3       1 J42         0.0947
     18 N2        -18.5180  -20.0080  -44.2380 N.am      1 J42        -0.2576
     19 C11       -17.8830  -20.7100  -43.3070 C.2       1 J42         0.2608
     20 O6        -18.3870  -21.6090  -42.6540 O.2       1 J42        -0.4006
     21 N3        -16.6580  -20.3230  -43.0150 N.am      1 J42        -0.2575
     22 C12       -16.0330  -20.7740  -41.8030 C.3       1 J42         0.0962
     23 C16       -17.0180  -20.5740  -40.7020 C.2       1 J42         0.0600
     24 O5        -17.8520  -19.6640  -40.7780 O.co2     1 J42        -0.5666
     25 O4        -16.9140  -21.3390  -39.6160 O.co2     1 J42        -0.5666
     26 C13       -14.7420  -20.0050  -41.4450 C.3       1 J42        -0.0066
     27 C14       -14.9490  -18.5050  -41.4330 C.3       1 J42         0.0038
     28 C15       -13.8720  -17.7220  -40.6910 C.2       1 J42         0.0350
     29 O3        -13.0510  -18.2220  -39.9000 O.co2     1 J42        -0.5690
     30 O2        -13.8250  -16.4030  -40.8840 O.co2     1 J42        -0.5690
     31 C10       -20.1360  -19.4870  -45.9440 C.2       1 J42         0.0599
     32 O1        -19.7040  -18.2530  -46.1070 O.co2     1 J42        -0.5666
     33 O         -20.6370  -20.0670  -46.8950 O.co2     1 J42        -0.5666
     34 C2        -28.2770  -17.0040  -45.7310 C.ar      1 J42        -0.0466
     35 C1        -29.5180  -17.0390  -46.3700 C.ar      1 J42        -0.0775
     36 C57       -28.9090  -15.0030  -47.5540 C.ar      1 J42        -0.0370
     37 C         -29.8400  -16.0330  -47.2860 C.ar      1 J42        -0.0125
     38 BR        -31.5350  -16.0830  -48.1460 Br        1 J42        -0.0668
     39 C21       -25.1740  -11.6370  -42.4090 C.3       1 J42         0.0256
     40 H         -25.5717  -10.6444  -44.6876 H         1 J42         0.1851
     41 H         -24.6837  -12.9601  -46.2877 H         1 J42         0.0546
     42 H         -25.1017  -11.3201  -46.8898 H         1 J42         0.0546
     43 H         -27.2166  -11.9446  -47.3548 H         1 J42         0.0628
     44 H         -27.4369  -12.6506  -45.7178 H         1 J42         0.0628
     45 H         -25.4833  -15.2511  -45.5026 H         1 J42         0.2233
     46 H         -23.9863  -16.3026  -44.0743 H         1 J42         0.1851
     47 H         -24.8345  -18.9726  -43.1903 H         1 J42         0.0517
     48 H         -24.7419  -17.7208  -41.9054 H         1 J42         0.0517
     49 H         -22.6975  -18.7176  -41.6761 H         1 J42         0.0284
     50 H         -22.2956  -17.3947  -42.8230 H         1 J42         0.0284
     51 H         -22.5359  -19.0906  -44.7146 H         1 J42         0.0268
     52 H         -22.6717  -20.3680  -43.4590 H         1 J42         0.0268
     53 H         -20.5096  -19.8509  -42.5640 H         1 J42         0.0305
     54 H         -20.4017  -18.3354  -43.5223 H         1 J42         0.0305
     55 H         -20.2313  -21.1720  -44.6372 H         1 J42         0.0723
     56 H         -17.9747  -19.3374  -44.7430 H         1 J42         0.1869
     57 H         -16.1636  -19.7156  -43.6368 H         1 J42         0.1869
     58 H         -15.7907  -21.8423  -41.9025 H         1 J42         0.0724
     59 H         -13.9679  -20.2489  -42.1875 H         1 J42         0.0323
     60 H         -14.4062  -20.3233  -40.4471 H         1 J42         0.0323
     61 H         -15.9168  -18.2959  -40.9537 H         1 J42         0.0432
     62 H         -14.9723  -18.1534  -42.4750 H         1 J42         0.0432
     63 H         -28.0218  -17.7870  -45.0261 H         1 J42         0.0472
     64 H         -30.2223  -17.8355  -46.1587 H         1 J42         0.0511
     65 H         -29.1602  -14.2334  -48.2749 H         1 J42         0.0518
     66 H         -25.4890  -10.5970  -42.5796 H         1 J42         0.0467
     67 H         -24.2020  -11.6459  -41.8940 H         1 J42         0.0467
     68 H         -25.9229  -12.1497  -41.7875 H         1 J42         0.0467
@<TRIPOS>BOND
     1    1    2 2  
     2    2    3 am 
     3    2   39 1  
     4    3    4 1  
     5    4    5 1  
     6    5    6 1  
     7    6    7 1  
     8    7    8 ar 
     9    7   36 ar 
    10    8    9 1  
    11    8   34 ar 
    12    9   10 am 
    13   10   11 2  
    14   10   12 am 
    15   12   13 1  
    16   13   14 1  
    17   14   15 1  
    18   15   16 1  
    19   16   17 1  
    20   17   18 1  
    21   17   31 1  
    22   18   19 am 
    23   19   20 2  
    24   19   21 am 
    25   21   22 1  
    26   22   23 1  
    27   22   26 1  
    28   23   24 ar 
    29   23   25 ar 
    30   26   27 1  
    31   27   28 1  
    32   28   29 ar 
    33   28   30 ar 
    34   31   32 ar 
    35   31   33 ar 
    36   34   35 ar 
    37   35   37 ar 
    38   36   37 ar 
    39   37   38 1  
    40    3   40 1  
    41    4   41 1  
    42    4   42 1  
    43    5   43 1  
    44    5   44 1  
    45    9   45 1  
    46   12   46 1  
    47   13   47 1  
    48   13   48 1  
    49   14   49 1  
    50   14   50 1  
    51   15   51 1  
    52   15   52 1  
    53   16   53 1  
    54   16   54 1  
    55   17   55 1  
    56   18   56 1  
    57   21   57 1  
    58   22   58 1  
    59   26   59 1  
    60   26   60 1  
    61   27   61 1  
    62   27   62 1  
    63   34   63 1  
    64   35   64 1  
    65   36   65 1  
    66   39   66 1  
    67   39   67 1  
    68   39   68 1  
@<TRIPOS>SUBSTRUCTURE
     1 J42         1

