### 
### Created by X-TOOL on Mon Sep 10 21:13:19 2018
### 

@<TRIPOS>MOLECULE
4nh7_ligand
   60    63     1     0     0
SMALL
GAST_HUCK


@<TRIPOS>ATOM
      1 C8         17.0510    7.7530   14.3260 C.3       1 E0G         0.0366
      2 C5         18.0480   10.0130   15.0560 C.ar      1 E0G         0.0584
      3 C6         18.7670   11.1650   14.6590 C.ar      1 E0G         0.0626
      4 N1         20.3350   12.1020   13.0440 N.am      1 E0G        -0.3030
      5 C2         18.6360   12.0180   16.9200 C.ar      1 E0G        -0.0266
      6 O2         18.5220   10.9760   12.3110 O.2       1 E0G        -0.3941
      7 N2         17.7590    9.0130   14.1260 N.pl3     1 E0G        -0.3163
      8 N3         17.3120   10.8520   18.6000 N.pl3     1 E0G        -0.1136
      9 C3         17.8980   10.9080   17.3040 C.ar      1 E0G         0.1253
     10 C4         17.6210    9.8950   16.3850 C.ar      1 E0G         0.0031
     11 N4         17.4000    9.6860   19.3620 N.2       1 E0G        -0.1373
     12 C10        16.8200    5.3870   13.4900 C.3       1 E0G        -0.0248
     13 C11        15.3190    5.5560   13.3390 C.3       1 E0G         0.0554
     14 C12        14.7710    6.6000   14.3030 C.3       1 E0G        -0.0248
     15 C13        15.5390    7.9410   14.2180 C.3       1 E0G        -0.0280
     16 C14        16.7020    9.9570   20.4520 C.2       1 E0G         0.1265
     17 C15        16.1740   11.2740   20.4310 C.2       1 E0G         0.0713
     18 C16        16.5750   11.8090   19.2240 C.2       1 E0G         0.1327
     19 C19        15.0300   13.4800   20.9470 C.3       1 E0G         0.0241
     20 C21        13.6630   13.0200   18.8860 C.3       1 E0G        -0.0554
     21 C1         19.0590   12.1460   15.6130 C.ar      1 E0G        -0.0535
     22 F1         17.1040    7.7430   21.1240 F         1 E0G        -0.2212
     23 O1         14.8660   11.5470   22.3620 O.2       1 E0G        -0.3969
     24 F2         17.1100    9.2150   22.6110 F         1 E0G        -0.2212
     25 F3         15.3050    8.6840   21.7970 F         1 E0G        -0.2212
     26 O3         14.7020    4.2810   13.5950 O.3       1 E0G        -0.3918
     27 C7         19.2110   11.4010   13.2450 C.2       1 E0G         0.1914
     28 C9         17.5420    6.7180   13.3250 C.3       1 E0G        -0.0280
     29 C17        16.1690   13.1730   18.7520 C.3       1 E0G         0.0310
     30 C18        14.9090   13.7230   19.4330 C.3       1 E0G        -0.0045
     31 C20        15.3330   12.0460   21.3380 C.2       1 E0G         0.1124
     32 C22        14.7920   15.2130   19.1430 C.3       1 E0G        -0.0554
     33 C23        16.5520    8.8940   21.4930 C.3       1 E0G         0.3829
     34 H          17.2772    7.3885   15.3389 H         1 E0G         0.0551
     35 H          20.6563   12.2756   12.1131 H         1 E0G         0.1802
     36 H          20.8526   12.4516   13.8249 H         1 E0G         0.1802
     37 H          18.8803   12.7845   17.6465 H         1 E0G         0.0521
     38 H          18.0911    9.1887   13.1670 H         1 E0G         0.1782
     39 H          17.0737    9.0141   16.7005 H         1 E0G         0.0517
     40 H          17.1812    4.6852   12.7239 H         1 E0G         0.0291
     41 H          17.0371    4.9823   14.4895 H         1 E0G         0.0291
     42 H          15.0936    5.8725   12.3099 H         1 E0G         0.0593
     43 H          14.8518    6.2109   15.3287 H         1 E0G         0.0291
     44 H          13.7133    6.7827   14.0623 H         1 E0G         0.0291
     45 H          15.3102    8.4187   13.2539 H         1 E0G         0.0288
     46 H          15.2043    8.5925   15.0387 H         1 E0G         0.0288
     47 H          14.0787   13.7693   21.4173 H         1 E0G         0.0485
     48 H          15.8387   14.1181   21.3326 H         1 E0G         0.0485
     49 H          13.5860   13.2000   17.8036 H         1 E0G         0.0238
     50 H          12.7682   13.4164   19.3881 H         1 E0G         0.0238
     51 H          13.7400   11.9388   19.0733 H         1 E0G         0.0238
     52 H          19.6272   13.0215   15.3202 H         1 E0G         0.0627
     53 H          13.7624    4.3555   13.4760 H         1 E0G         0.2098
     54 H          18.6200    6.5597   13.4758 H         1 E0G         0.0288
     55 H          17.3657    7.0952   12.3069 H         1 E0G         0.0288
     56 H          15.9820   13.1222   17.6692 H         1 E0G         0.0515
     57 H          16.9989   13.8677   18.9487 H         1 E0G         0.0515
     58 H          13.8896   15.6115   19.6296 H         1 E0G         0.0238
     59 H          14.7227   15.3708   18.0566 H         1 E0G         0.0238
     60 H          15.6791   15.7333   19.5333 H         1 E0G         0.0238
@<TRIPOS>BOND
     1    7    1 1  
     2    1   15 1  
     3    1   28 1  
     4    2    3 ar 
     5    2    7 1  
     6   10    2 ar 
     7   21    3 ar 
     8    3   27 1  
     9   27    4 am 
    10    9    5 ar 
    11    5   21 ar 
    12   27    6 2  
    13    8    9 1  
    14    8   11 1  
    15   18    8 1  
    16    9   10 ar 
    17   16   11 2  
    18   12   13 1  
    19   28   12 1  
    20   14   13 1  
    21   13   26 1  
    22   15   14 1  
    23   17   16 1  
    24   16   33 1  
    25   17   18 2  
    26   31   17 1  
    27   18   29 1  
    28   19   30 1  
    29   19   31 1  
    30   30   20 1  
    31   33   22 1  
    32   31   23 2  
    33   33   24 1  
    34   33   25 1  
    35   29   30 1  
    36   30   32 1  
    37    1   34 1  
    38    4   35 1  
    39    4   36 1  
    40    5   37 1  
    41    7   38 1  
    42   10   39 1  
    43   12   40 1  
    44   12   41 1  
    45   13   42 1  
    46   14   43 1  
    47   14   44 1  
    48   15   45 1  
    49   15   46 1  
    50   19   47 1  
    51   19   48 1  
    52   20   49 1  
    53   20   50 1  
    54   20   51 1  
    55   21   52 1  
    56   26   53 1  
    57   28   54 1  
    58   28   55 1  
    59   29   56 1  
    60   29   57 1  
    61   32   58 1  
    62   32   59 1  
    63   32   60 1  
@<TRIPOS>SUBSTRUCTURE
     1 E0G         1

