### 
### Created by X-TOOL on Mon Sep 10 21:13:17 2018
### 

@<TRIPOS>MOLECULE
4nh8_ligand
   55    58     1     0     0
SMALL
GAST_HUCK


@<TRIPOS>ATOM
      1 C1          7.4470   -9.6830  -23.1330 C.3       1 2LC        -0.0504
      2 C2          6.3280  -10.6220  -23.5090 C.2       1 2LC        -0.0601
      3 C3          5.0080  -10.3310  -23.4230 C.2       1 2LC         0.0225
      4 N4          4.2540  -11.4000  -23.8810 N.pl3     1 2LC        -0.2365
      5 C5          5.1330  -12.4000  -24.2770 C.2       1 2LC         0.0743
      6 C6          6.4200  -11.9530  -24.0430 C.2       1 2LC         0.0182
      7 C7          7.5400  -12.8590  -24.3470 C.2       1 2LC         0.0985
      8 O8          8.7060  -12.4950  -24.2430 O.2       1 2LC        -0.4025
      9 C9          7.2050  -14.2510  -24.8360 C.3       1 2LC         0.0216
     10 C10         5.9300  -14.3570  -25.6890 C.3       1 2LC        -0.0077
     11 C11         6.1340  -13.6410  -27.0270 C.3       1 2LC        -0.0557
     12 C12         5.5980  -15.8210  -25.9640 C.3       1 2LC        -0.0557
     13 C13         4.7770  -13.7120  -24.9110 C.3       1 2LC         0.0158
     14 C14         2.8290  -11.3650  -24.0850 C.ar      1 2LC         0.0832
     15 C15         2.2450  -10.2000  -24.5790 C.ar      1 2LC        -0.0093
     16 C16         0.8640  -10.1470  -24.7980 C.ar      1 2LC         0.0530
     17 N17         0.2810   -8.9720  -25.2250 N.pl3     1 2LC        -0.3153
     18 C18         0.9560   -7.7370  -25.6140 C.3       1 2LC         0.0617
     19 C20         1.4950   -7.8480  -27.0460 C.3       1 2LC        -0.0047
     20 C21         0.2750   -7.5190  -27.8950 C.3       1 2LC         0.0499
     21 O22        -0.6060   -6.7610  -27.0440 O.3       1 2LC        -0.3774
     22 C23        -0.0390   -6.6070  -25.7430 C.3       1 2LC         0.0702
     23 C24         0.0690  -11.3080  -24.5330 C.ar      1 2LC         0.0923
     24 C25        -1.4170  -11.3160  -24.8180 C.2       1 2LC         0.1884
     25 N26        -1.7940  -10.6550  -25.8860 N.am      1 2LC        -0.3041
     26 O27        -2.2230  -11.9490  -24.1040 O.2       1 2LC        -0.3978
     27 C28         0.7170  -12.4430  -24.0570 C.ar      1 2LC         0.1387
     28 F29        -0.0210  -13.5650  -23.8740 F         1 2LC        -0.1826
     29 C30         2.0610  -12.4990  -23.8000 C.ar      1 2LC        -0.0016
     30 H           7.0235   -8.7409  -22.7548 H         1 2LC         0.0324
     31 H           8.0662   -9.4772  -24.0186 H         1 2LC         0.0324
     32 H           8.0672  -10.1460  -22.3514 H         1 2LC         0.0324
     33 H           4.5988   -9.3938  -23.0486 H         1 2LC         0.0628
     34 H           7.0807  -14.8998  -23.9565 H         1 2LC         0.0483
     35 H           8.0499  -14.6115  -25.4411 H         1 2LC         0.0483
     36 H           5.2174  -13.7222  -27.6297 H         1 2LC         0.0238
     37 H           6.9710  -14.1064  -27.5681 H         1 2LC         0.0238
     38 H           6.3600  -12.5801  -26.8445 H         1 2LC         0.0238
     39 H           5.4486  -16.3485  -25.0103 H         1 2LC         0.0238
     40 H           6.4276  -16.2879  -26.5152 H         1 2LC         0.0238
     41 H           4.6785  -15.8819  -26.5646 H         1 2LC         0.0238
     42 H           3.9404  -13.5458  -25.6055 H         1 2LC         0.0473
     43 H           4.4627  -14.4064  -24.1179 H         1 2LC         0.0473
     44 H           2.8611   -9.3343  -24.7937 H         1 2LC         0.0454
     45 H          -0.7478   -8.9650  -25.2752 H         1 2LC         0.1782
     46 H           1.7532   -7.4991  -24.8944 H         1 2LC         0.0574
     47 H           1.8593   -8.8648  -27.2540 H         1 2LC         0.0310
     48 H           2.3055   -7.1251  -27.2210 H         1 2LC         0.0310
     49 H          -0.2185   -8.4433  -28.2300 H         1 2LC         0.0560
     50 H           0.5683   -6.9217  -28.7709 H         1 2LC         0.0560
     51 H           0.4669   -5.6343  -25.6544 H         1 2LC         0.0582
     52 H          -0.8175   -6.6871  -24.9700 H         1 2LC         0.0582
     53 H          -2.7617  -10.6178  -26.1353 H         1 2LC         0.1799
     54 H          -1.1138  -10.1882  -26.4511 H         1 2LC         0.1799
     55 H           2.5151  -13.3933  -23.3889 H         1 2LC         0.0475
@<TRIPOS>BOND
     1    1    2 1  
     2    2    3 2  
     3    2    6 1  
     4    3    4 1  
     5    4    5 1  
     6    4   14 1  
     7    5    6 2  
     8    5   13 1  
     9    6    7 1  
    10    7    8 2  
    11    7    9 1  
    12    9   10 1  
    13   10   11 1  
    14   10   12 1  
    15   10   13 1  
    16   14   15 ar 
    17   14   29 ar 
    18   15   16 ar 
    19   16   17 1  
    20   16   23 ar 
    21   17   18 1  
    22   18   19 1  
    23   18   22 1  
    24   19   20 1  
    25   20   21 1  
    26   21   22 1  
    27   23   24 1  
    28   23   27 ar 
    29   24   25 am 
    30   24   26 2  
    31   27   28 1  
    32   27   29 ar 
    33    1   30 1  
    34    1   31 1  
    35    1   32 1  
    36    3   33 1  
    37    9   34 1  
    38    9   35 1  
    39   11   36 1  
    40   11   37 1  
    41   11   38 1  
    42   12   39 1  
    43   12   40 1  
    44   12   41 1  
    45   13   42 1  
    46   13   43 1  
    47   15   44 1  
    48   17   45 1  
    49   18   46 1  
    50   19   47 1  
    51   19   48 1  
    52   20   49 1  
    53   20   50 1  
    54   22   51 1  
    55   22   52 1  
    56   25   53 1  
    57   25   54 1  
    58   29   55 1  
@<TRIPOS>SUBSTRUCTURE
     1 2LC         1

