### 
### Created by X-TOOL on Mon Sep 10 21:13:20 2018
### 

@<TRIPOS>MOLECULE
4nh9_ligand
   55    58     1     0     0
SMALL
GAST_HUCK


@<TRIPOS>ATOM
      1 C1        -18.4650  -37.8630   -9.5180 C.3       1 2LC        -0.0504
      2 C2        -18.7250  -36.6660   -8.6360 C.2       1 2LC        -0.0601
      3 C3        -18.4300  -35.3890   -8.9660 C.2       1 2LC         0.0225
      4 N4        -18.7690  -34.5440   -7.9370 N.pl3     1 2LC        -0.2365
      5 C5        -19.3250  -35.2580   -6.9310 C.2       1 2LC         0.0743
      6 C6        -19.3080  -36.6120   -7.2890 C.2       1 2LC         0.0182
      7 C7        -19.8560  -37.6540   -6.3750 C.2       1 2LC         0.0985
      8 O8        -19.9310  -38.8170   -6.7030 O.2       1 2LC        -0.4025
      9 C9        -20.3570  -37.2340   -4.9770 C.3       1 2LC         0.0216
     10 C10       -20.7850  -35.7490   -4.8480 C.3       1 2LC        -0.0077
     11 C11       -22.2200  -35.5170   -5.3230 C.3       1 2LC        -0.0557
     12 C12       -20.7220  -35.3160   -3.3860 C.3       1 2LC        -0.0557
     13 C13       -19.8670  -34.7760   -5.5870 C.3       1 2LC         0.0158
     14 C14       -18.6650  -33.1380   -7.9460 C.ar      1 2LC         0.0832
     15 C15       -19.3240  -32.3980   -8.9460 C.ar      1 2LC        -0.0093
     16 C16       -19.2980  -30.9850   -8.9530 C.ar      1 2LC         0.0530
     17 N17       -19.9150  -30.2070   -9.9520 N.pl3     1 2LC        -0.3153
     18 C18       -20.6580  -30.6730  -11.1310 C.3       1 2LC         0.0617
     19 C20       -22.1800  -30.6200  -10.8580 C.3       1 2LC        -0.0047
     20 C21       -22.7090  -30.3750  -12.2920 C.3       1 2LC         0.0499
     21 O22       -21.7830  -29.3970  -12.8200 O.3       1 2LC        -0.3774
     22 C23       -20.4680  -29.6920  -12.3030 C.3       1 2LC         0.0702
     23 C24       -18.6010  -30.3220   -7.8890 C.ar      1 2LC         0.0923
     24 C25       -18.5470  -28.8480   -7.7840 C.2       1 2LC         0.1884
     25 N26       -17.4350  -28.1910   -7.3900 N.am      1 2LC        -0.3041
     26 O27       -19.5520  -28.2200   -8.0320 O.2       1 2LC        -0.3978
     27 C28       -17.9840  -31.0860   -6.8690 C.ar      1 2LC         0.1387
     28 F29       -17.3310  -30.4810   -5.8620 F         1 2LC        -0.1826
     29 C30       -17.9940  -32.4620   -6.9110 C.ar      1 2LC        -0.0016
     30 H         -18.0161  -37.5298  -10.4653 H         1 2LC         0.0324
     31 H         -19.4139  -38.3799   -9.7238 H         1 2LC         0.0324
     32 H         -17.7755  -38.5516   -9.0078 H         1 2LC         0.0324
     33 H         -17.9878  -35.0753   -9.9104 H         1 2LC         0.0628
     34 H         -19.5474  -37.4187   -4.2556 H         1 2LC         0.0483
     35 H         -21.2243  -37.8614   -4.7235 H         1 2LC         0.0483
     36 H         -22.4754  -34.4528   -5.2120 H         1 2LC         0.0238
     37 H         -22.9092  -36.1245   -4.7181 H         1 2LC         0.0238
     38 H         -22.3076  -35.8067   -6.3805 H         1 2LC         0.0238
     39 H         -19.7021  -35.4668   -3.0026 H         1 2LC         0.0238
     40 H         -21.4285  -35.9170   -2.7948 H         1 2LC         0.0238
     41 H         -20.9899  -34.2521   -3.3068 H         1 2LC         0.0238
     42 H         -20.4320  -33.8491   -5.7646 H         1 2LC         0.0473
     43 H         -19.0077  -34.5623   -4.9344 H         1 2LC         0.0473
     44 H         -19.8625  -32.9229   -9.7268 H         1 2LC         0.0454
     45 H         -19.8356  -29.1859   -9.8427 H         1 2LC         0.1782
     46 H         -20.3348  -31.6887  -11.4027 H         1 2LC         0.0574
     47 H         -22.4436  -29.7946  -10.1803 H         1 2LC         0.0310
     48 H         -22.5525  -31.5682  -10.4432 H         1 2LC         0.0310
     49 H         -23.7345  -29.9775  -12.2722 H         1 2LC         0.0560
     50 H         -22.6860  -31.3011  -12.8851 H         1 2LC         0.0560
     51 H         -19.8485  -30.1535  -13.0860 H         1 2LC         0.0582
     52 H         -19.9848  -28.7692  -11.9494 H         1 2LC         0.0582
     53 H         -17.4383  -27.1927   -7.3316 H         1 2LC         0.1799
     54 H         -16.6082  -28.7027   -7.1566 H         1 2LC         0.1799
     55 H         -17.4815  -33.0281   -6.1416 H         1 2LC         0.0475
@<TRIPOS>BOND
     1    1    2 1  
     2    2    3 2  
     3    2    6 1  
     4    3    4 1  
     5    4    5 1  
     6    4   14 1  
     7    5    6 2  
     8    5   13 1  
     9    6    7 1  
    10    7    8 2  
    11    7    9 1  
    12    9   10 1  
    13   10   11 1  
    14   10   12 1  
    15   10   13 1  
    16   14   15 ar 
    17   14   29 ar 
    18   15   16 ar 
    19   16   17 1  
    20   16   23 ar 
    21   17   18 1  
    22   18   19 1  
    23   18   22 1  
    24   19   20 1  
    25   20   21 1  
    26   21   22 1  
    27   23   24 1  
    28   23   27 ar 
    29   24   25 am 
    30   24   26 2  
    31   27   28 1  
    32   27   29 ar 
    33    1   30 1  
    34    1   31 1  
    35    1   32 1  
    36    3   33 1  
    37    9   34 1  
    38    9   35 1  
    39   11   36 1  
    40   11   37 1  
    41   11   38 1  
    42   12   39 1  
    43   12   40 1  
    44   12   41 1  
    45   13   42 1  
    46   13   43 1  
    47   15   44 1  
    48   17   45 1  
    49   18   46 1  
    50   19   47 1  
    51   19   48 1  
    52   20   49 1  
    53   20   50 1  
    54   22   51 1  
    55   22   52 1  
    56   25   53 1  
    57   25   54 1  
    58   29   55 1  
@<TRIPOS>SUBSTRUCTURE
     1 2LC         1

