### 
### Created by X-TOOL on Mon Sep 10 21:13:18 2018
### 

@<TRIPOS>MOLECULE
4nhx_ligand
   13    12     1     0     0
SMALL
GAST_HUCK


@<TRIPOS>ATOM
      1 C1        -16.0880    1.1000   65.0120 C.2       1 OGA         0.1433
      2 C2        -17.1890    1.5200   64.0780 C.2       1 OGA         0.2452
      3 C4        -19.3930    2.5260   63.7250 C.3       1 OGA         0.0841
      4 C5        -20.3790    3.4140   64.4610 C.2       1 OGA         0.0572
      5 O1        -16.0810    1.5020   66.2090 O.co2     1 OGA        -0.5457
      6 O2        -15.1790    0.3400   64.5830 O.co2     1 OGA        -0.5457
      7 O2'       -17.0820    1.3080   62.8810 O.2       1 OGA        -0.3655
      8 O3        -21.4350    3.8210   63.8900 O.co2     1 OGA        -0.5669
      9 N1        -18.3520    2.1360   64.6090 N.am      1 OGA        -0.2659
     10 O4        -20.1550    3.7460   65.6530 O.co2     1 OGA        -0.5669
     11 H1        -18.9646    3.0793   62.8763 H         1 OGA         0.0691
     12 H2        -19.9129    1.6305   63.3539 H         1 OGA         0.0691
     13 H3        -18.4375    2.2934   65.5928 H         1 OGA         0.1886
@<TRIPOS>BOND
     1    2    1 1  
     2    1    5 ar 
     3    1    6 ar 
     4    2    7 2  
     5    9    2 am 
     6    3    4 1  
     7    3    9 1  
     8    4    8 ar 
     9    4   10 ar 
    10    3   11 1  
    11    3   12 1  
    12    9   13 1  
@<TRIPOS>SUBSTRUCTURE
     1 OGA         1

