### 
### Created by X-TOOL on Mon Sep 10 21:13:18 2018
### 

@<TRIPOS>MOLECULE
4nhy_ligand
   15    15     1     0     0
SMALL
GAST_HUCK


@<TRIPOS>ATOM
      1 O42       -12.1720   42.2890  -64.5420 O.co2     1 PD2        -0.5574
      2 C41       -12.4570   43.3540  -63.9100 C.2       1 PD2         0.0728
      3 O41       -13.6460   43.7960  -63.8280 O.co2     1 PD2        -0.5574
      4 C4        -11.3480   44.1450  -63.2550 C.ar      1 PD2         0.0333
      5 C5        -11.6120   45.4130  -62.8330 C.ar      1 PD2        -0.0173
      6 C6        -10.6220   46.1740  -62.2280 C.ar      1 PD2         0.0184
      7 C3        -10.1000   43.6230  -63.0830 C.ar      1 PD2        -0.0054
      8 C2         -9.1130   44.3880  -62.4780 C.ar      1 PD2         0.0862
      9 N1         -9.3790   45.6530  -62.0570 N.ar      1 PD2        -0.2790
     10 C21        -7.7180   43.8430  -62.2870 C.2       1 PD2         0.0817
     11 O21        -6.8450   44.5720  -61.7290 O.co2     1 PD2        -0.5572
     12 O22        -7.4340   42.6830  -62.7020 O.co2     1 PD2        -0.5572
     13 H1        -12.6028   45.8306  -62.9709 H         1 PD2         0.0763
     14 H2        -10.8398   47.1816  -61.8927 H         1 PD2         0.0842
     15 H3         -9.8801   42.6155  -63.4172 H         1 PD2         0.0779
@<TRIPOS>BOND
     1    1    2 ar 
     2    2    3 ar 
     3    2    4 1  
     4    4    5 ar 
     5    4    7 ar 
     6    5    6 ar 
     7    6    9 ar 
     8    7    8 ar 
     9    8    9 ar 
    10    8   10 1  
    11   10   11 ar 
    12   10   12 ar 
    13    5   13 1  
    14    6   14 1  
    15    7   15 1  
@<TRIPOS>SUBSTRUCTURE
     1 PD2         1

