### 
### Created by X-TOOL on Mon Sep 10 21:13:15 2018
### 

@<TRIPOS>MOLECULE
4nie_ligand
   66    68     1     0     0
SMALL
GAST_HUCK


@<TRIPOS>ATOM
      1 C01        20.9890   -8.1840   -6.4500 C.3       1 NBH        -0.0605
      2 C02        21.4630   -8.0560   -5.0220 C.3       1 NBH        -0.0153
      3 C03        22.4980   -6.8750   -4.6780 C.3       1 NBH        -0.0295
      4 N04        21.9900   -5.5130   -4.6290 N.4       1 NBH         0.2570
      5 C05        21.4160   -5.1740   -3.3090 C.3       1 NBH         0.0032
      6 C06        20.3560   -4.1320   -3.2530 C.ar      1 NBH         0.0014
      7 C07        20.3380   -3.2150   -2.1710 C.ar      1 NBH        -0.0553
      8 C08        19.3350   -2.2140   -2.0960 C.ar      1 NBH        -0.0684
      9 C09        18.3730   -2.1240   -3.0660 C.ar      1 NBH        -0.0687
     10 C10        18.3820   -3.0390   -4.1530 C.ar      1 NBH        -0.0684
     11 C11        19.3880   -4.0420   -4.2350 C.ar      1 NBH        -0.0553
     12 C12        22.9540   -4.4950   -5.1530 C.3       1 NBH        -0.0032
     13 C13        23.2610   -4.5620   -6.6560 C.ar      1 NBH        -0.0132
     14 C14        22.2880   -4.2650   -7.6030 C.ar      1 NBH        -0.0682
     15 C15        22.5810   -4.3440   -8.9750 C.ar      1 NBH        -0.0471
     16 C16        23.8600   -4.7330   -9.4070 C.ar      1 NBH         0.0597
     17 N17        24.2720   -4.8510  -10.7650 N.am      1 NBH        -0.2361
     18 C18        23.4110   -4.8870  -11.9140 C.2       1 NBH         0.2133
     19 O19        22.2160   -4.8380  -11.8330 O.2       1 NBH        -0.3828
     20 C20        24.0380   -5.0650  -13.2770 C.3       1 NBH         0.0759
     21 C21        23.7770   -6.4890  -13.7590 C.ar      1 NBH        -0.0237
     22 C22        24.4050   -7.5510  -13.0690 C.ar      1 NBH        -0.0562
     23 C23        24.1660   -8.8940  -13.4560 C.ar      1 NBH        -0.0433
     24 C24        23.2920   -9.1730  -14.5350 C.ar      1 NBH         0.0815
     25 C25        22.6410   -8.1110  -15.2110 C.ar      1 NBH        -0.0433
     26 C26        22.8690   -6.7650  -14.8280 C.ar      1 NBH        -0.0562
     27 S27        22.9820  -10.8400  -15.0040 S.o2      1 NBH        -0.0061
     28 O28        22.9390  -10.9650  -16.4350 O.2       1 NBH        -0.1702
     29 O29        24.0300  -11.7580  -14.5970 O.2       1 NBH        -0.1702
     30 C30        21.3770  -11.3070  -14.2570 C.3       1 NBH         0.0672
     31 C31        21.1740  -10.9830  -12.7430 C.3       1 NBH        -0.0454
     32 C32        24.8340   -5.0400   -8.4310 C.ar      1 NBH        -0.0471
     33 C33        24.5470   -4.9640   -7.0790 C.ar      1 NBH        -0.0682
     34 H1         20.2907   -9.0302   -6.5301 H         1 NBH         0.0232
     35 H2         21.8526   -8.3577   -7.1088 H         1 NBH         0.0232
     36 H3         20.4783   -7.2575   -6.7513 H         1 NBH         0.0232
     37 H4         21.9472   -9.0057   -4.7508 H         1 NBH         0.0314
     38 H5         20.5730   -7.9055   -4.3933 H         1 NBH         0.0314
     39 H6         23.2895   -6.9013   -5.4414 H         1 NBH         0.0815
     40 H7         22.9320   -7.0976   -3.6921 H         1 NBH         0.0815
     41 H8         21.2129   -5.4935   -5.2707 H         1 NBH         0.2061
     42 H9         22.2441   -4.8322   -2.6707 H         1 NBH         0.0981
     43 H10        20.9885   -6.0976   -2.8917 H         1 NBH         0.0981
     44 H11        21.0945   -3.2792   -1.3973 H         1 NBH         0.0558
     45 H12        19.3305   -1.5167   -1.2661 H         1 NBH         0.0599
     46 H13        17.6081   -1.3583   -3.0050 H         1 NBH         0.0559
     47 H14        17.6206   -2.9728   -4.9217 H         1 NBH         0.0599
     48 H15        19.3950   -4.7356   -5.0680 H         1 NBH         0.0558
     49 H16        23.9028   -4.6211   -4.6109 H         1 NBH         0.0951
     50 H17        22.5392   -3.4989   -4.9394 H         1 NBH         0.0951
     51 H18        21.2958   -3.9703   -7.2808 H         1 NBH         0.0522
     52 H19        21.8159   -4.1034   -9.7042 H         1 NBH         0.0487
     53 H20        25.2554   -4.9149  -10.9350 H         1 NBH         0.2235
     54 H21        25.1220   -4.8906  -13.2104 H         1 NBH         0.0664
     55 H22        23.5941   -4.3487  -13.9840 H         1 NBH         0.0664
     56 H23        25.0716   -7.3379  -12.2412 H         1 NBH         0.0561
     57 H24        24.6515   -9.7060  -12.9268 H         1 NBH         0.0619
     58 H25        21.9629   -8.3297  -16.0279 H         1 NBH         0.0619
     59 H26        22.3611   -5.9554  -15.3394 H         1 NBH         0.0561
     60 H27        21.2573  -12.3933  -14.3820 H         1 NBH         0.0500
     61 H28        20.5870  -10.7843  -14.8162 H         1 NBH         0.0500
     62 H29        20.1736  -11.3147  -12.4280 H         1 NBH         0.0245
     63 H30        21.2675   -9.8985  -12.5843 H         1 NBH         0.0245
     64 H31        21.9378  -11.5076  -12.1501 H         1 NBH         0.0245
     65 H32        25.8262   -5.3412   -8.7472 H         1 NBH         0.0487
     66 H33        25.3071   -5.2123   -6.3471 H         1 NBH         0.0522
@<TRIPOS>BOND
     1    1    2 1  
     2    2    3 1  
     3    3    4 1  
     4    4    5 1  
     5    4   12 1  
     6    5    6 1  
     7    6    7 ar 
     8    6   11 ar 
     9    7    8 ar 
    10    8    9 ar 
    11    9   10 ar 
    12   10   11 ar 
    13   12   13 1  
    14   13   14 ar 
    15   13   33 ar 
    16   14   15 ar 
    17   15   16 ar 
    18   16   17 1  
    19   16   32 ar 
    20   17   18 am 
    21   18   19 2  
    22   18   20 1  
    23   20   21 1  
    24   21   22 ar 
    25   21   26 ar 
    26   22   23 ar 
    27   23   24 ar 
    28   24   25 ar 
    29   24   27 1  
    30   25   26 ar 
    31   27   28 2  
    32   27   29 2  
    33   27   30 1  
    34   30   31 1  
    35   32   33 ar 
    36    1   34 1  
    37    1   35 1  
    38    1   36 1  
    39    2   37 1  
    40    2   38 1  
    41    3   39 1  
    42    3   40 1  
    43    4   41 1  
    44    5   42 1  
    45    5   43 1  
    46    7   44 1  
    47    8   45 1  
    48    9   46 1  
    49   10   47 1  
    50   11   48 1  
    51   12   49 1  
    52   12   50 1  
    53   14   51 1  
    54   15   52 1  
    55   17   53 1  
    56   20   54 1  
    57   20   55 1  
    58   22   56 1  
    59   23   57 1  
    60   25   58 1  
    61   26   59 1  
    62   30   60 1  
    63   30   61 1  
    64   31   62 1  
    65   31   63 1  
    66   31   64 1  
    67   32   65 1  
    68   33   66 1  
@<TRIPOS>SUBSTRUCTURE
     1 NBH         1

