### 
### Created by X-TOOL on Mon Sep 10 21:13:13 2018
### 

@<TRIPOS>MOLECULE
4nj3_ligand
   56    59     1     0     0
SMALL
GAST_HUCK


@<TRIPOS>ATOM
      1 N01        -3.8170   32.4050   12.3680 N.ar      1 2KD        -0.2704
      2 C02        -4.5550   31.2920   12.4300 C.ar      1 2KD         0.1257
      3 C03        -5.7630   31.2880   13.1290 C.ar      1 2KD         0.0001
      4 C04        -6.2020   32.4490   13.7750 C.ar      1 2KD         0.0390
      5 C05        -5.4080   33.6150   13.6870 C.ar      1 2KD         0.0221
      6 C06        -4.2050   33.5480   12.9520 C.ar      1 2KD         0.0558
      7 C07        -5.7640   34.8420   14.2700 C.ar      1 2KD        -0.0360
      8 C08        -4.9420   35.9900   14.1380 C.ar      1 2KD        -0.0106
      9 C09        -3.7370   35.8790   13.4200 C.ar      1 2KD        -0.0463
     10 C10        -3.3830   34.6770   12.8340 C.ar      1 2KD        -0.0355
     11 C11        -4.0220   30.0540   11.7790 C.2       1 2KD         0.2296
     12 C12        -7.5260   32.3920   14.5090 C.2       1 2KD         0.0738
     13 C13        -5.3150   37.2960   14.7440 C.ar      1 2KD        -0.0143
     14 O14        -4.8140   29.1960   11.4040 O.2       1 2KD        -0.3765
     15 N15        -2.6870   29.9530   11.6380 N.am      1 2KD        -0.2593
     16 C16        -2.0560   28.8000   11.0320 C.3       1 2KD         0.1501
     17 C17        -2.1320   28.9050    9.4720 C.3       1 2KD         0.0177
     18 C18        -1.2490   30.0780    8.9610 C.ar      1 2KD        -0.0491
     19 C19        -0.6160   28.7390   11.4830 C.2       1 2KD         0.2612
     20 O20        -0.1650   29.5720   12.2610 O.2       1 2KD        -0.3676
     21 O21         0.0940   27.7150   10.9900 O.3       1 2KD        -0.2783
     22 C22         1.4690   27.6560   11.4390 C.3       1 2KD         0.0658
     23 O23        -8.5390   31.9560   13.9000 O.co2     1 2KD        -0.5571
     24 O24        -7.6050   32.8010   15.6990 O.co2     1 2KD        -0.5571
     25 C25        -5.9130   37.3470   16.0130 C.ar      1 2KD        -0.0390
     26 C26        -6.2530   38.5830   16.5920 C.ar      1 2KD         0.0416
     27 C27        -5.9900   39.7810   15.9070 C.ar      1 2KD        -0.0472
     28 C28        -5.3900   39.7360   14.6530 C.ar      1 2KD        -0.0601
     29 C29        -5.0530   38.5010   14.0740 C.ar      1 2KD        -0.0529
     30 C30        -1.7300   31.4050    9.0220 C.ar      1 2KD        -0.0685
     31 C31        -0.9190   32.4740    8.5800 C.ar      1 2KD        -0.0398
     32 C32         0.3300   32.2190    7.9860 C.ar      1 2KD         0.0805
     33 C33         0.7630   30.8880    7.8280 C.ar      1 2KD        -0.0398
     34 C34         0.0140   29.8290    8.3710 C.ar      1 2KD        -0.0685
     35 CL         -6.9790   38.6250   18.1800 Cl        1 2KD        -0.0705
     36 O36         1.1370   33.2990    7.5910 O.3       1 2KD        -0.3376
     37 H1         -6.3614   30.3851   13.1715 H         1 2KD         0.0769
     38 H2         -6.6874   34.9131   14.8333 H         1 2KD         0.0657
     39 H3         -3.0835   36.7388   13.3257 H         1 2KD         0.0664
     40 H4         -2.4565   34.6073   12.2755 H         1 2KD         0.0658
     41 H5         -2.1102   30.7020   11.9639 H         1 2KD         0.1883
     42 H6         -2.5772   27.8872   11.3562 H         1 2KD         0.0838
     43 H7         -3.1756   29.0801    9.1715 H         1 2KD         0.0454
     44 H8         -1.7756   27.9638    9.0281 H         1 2KD         0.0454
     45 H9          1.9666   26.7873   10.9832 H         1 2KD         0.0577
     46 H10         1.4932   27.5594   12.5345 H         1 2KD         0.0577
     47 H11         1.9921   28.5764   11.1404 H         1 2KD         0.0577
     48 H12        -6.1142   36.4274   16.5505 H         1 2KD         0.0635
     49 H13        -6.2528   40.7336   16.3526 H         1 2KD         0.0628
     50 H14        -5.1817   40.6570   14.1205 H         1 2KD         0.0619
     51 H15        -4.5844   38.4786   13.0968 H         1 2KD         0.0630
     52 H16        -2.7231   31.6033    9.4086 H         1 2KD         0.0530
     53 H17        -1.2611   33.4957    8.6993 H         1 2KD         0.0525
     54 H18         1.6778   30.6791    7.2853 H         1 2KD         0.0525
     55 H19         0.4048   28.8184    8.3378 H         1 2KD         0.0530
     56 H20         0.6842   34.1142    7.7725 H         1 2KD         0.2458
@<TRIPOS>BOND
     1    1    2 ar 
     2    1    6 ar 
     3    2    3 ar 
     4    2   11 1  
     5    3    4 ar 
     6    4    5 ar 
     7    4   12 1  
     8    5    6 ar 
     9    5    7 ar 
    10    6   10 ar 
    11    7    8 ar 
    12    8    9 ar 
    13    8   13 1  
    14    9   10 ar 
    15   11   14 2  
    16   11   15 am 
    17   12   23 ar 
    18   12   24 ar 
    19   13   25 ar 
    20   13   29 ar 
    21   15   16 1  
    22   16   17 1  
    23   16   19 1  
    24   17   18 1  
    25   18   30 ar 
    26   18   34 ar 
    27   19   20 2  
    28   19   21 1  
    29   21   22 1  
    30   25   26 ar 
    31   26   27 ar 
    32   26   35 1  
    33   27   28 ar 
    34   28   29 ar 
    35   30   31 ar 
    36   31   32 ar 
    37   32   33 ar 
    38   32   36 1  
    39   33   34 ar 
    40    3   37 1  
    41    7   38 1  
    42    9   39 1  
    43   10   40 1  
    44   15   41 1  
    45   16   42 1  
    46   17   43 1  
    47   17   44 1  
    48   22   45 1  
    49   22   46 1  
    50   22   47 1  
    51   25   48 1  
    52   27   49 1  
    53   28   50 1  
    54   29   51 1  
    55   30   52 1  
    56   31   53 1  
    57   33   54 1  
    58   34   55 1  
    59   36   56 1  
@<TRIPOS>SUBSTRUCTURE
     1 2KD         1

