### 
### Created by X-TOOL on Mon Sep 10 21:13:19 2018
### 

@<TRIPOS>MOLECULE
4nj9_ligand
   39    42     1     0     0
SMALL
GAST_HUCK


@<TRIPOS>ATOM
      1 OAJ         5.7690   22.6200   55.5280 O.co2     1 2M9        -0.4804
      2 SBD         5.9200   21.4590   54.6250 S.o2      1 2M9        -0.1649
      3 OAC         7.3070   20.9700   54.4270 O.co2     1 2M9        -0.4804
      4 OAD         5.4890   22.0230   53.3170 O.co2     1 2M9        -0.4804
      5 CAT         4.9450   20.2600   55.1620 C.ar      1 2M9         0.0552
      6 CAM         3.7580   19.9710   54.4200 C.ar      1 2M9        -0.0228
      7 CAS         2.7930   18.9630   54.7640 C.ar      1 2M9         0.0552
      8 SBC         1.4240   18.7140   53.8050 S.o2      1 2M9        -0.1648
      9 OAA         1.4520   19.7360   52.7780 O.co2     1 2M9        -0.4804
     10 OAB         1.4400   17.3520   53.3340 O.co2     1 2M9        -0.4804
     11 OAI         0.2330   18.9160   54.6390 O.co2     1 2M9        -0.4804
     12 CAW         3.0430   18.2180   55.9290 C.ar      1 2M9        -0.0010
     13 CAO         2.1780   17.1880   56.3470 C.ar      1 2M9        -0.0573
     14 CAP         2.4070   16.4330   57.4950 C.ar      1 2M9        -0.0582
     15 CAX         5.1600   19.4860   56.3520 C.ar      1 2M9        -0.0008
     16 CBA         4.2310   18.4570   56.7190 C.ar      1 2M9        -0.0033
     17 CBB         4.4500   17.6600   57.8880 C.ar      1 2M9        -0.0048
     18 CAY         3.5580   16.6580   58.2940 C.ar      1 2M9        -0.0022
     19 CAQ         6.3230   19.6630   57.1480 C.ar      1 2M9        -0.0566
     20 CAR         6.5130   18.8950   58.2790 C.ar      1 2M9        -0.0551
     21 CAZ         5.5910   17.9110   58.6590 C.ar      1 2M9         0.0197
     22 CAV         5.8600   17.1700   59.8010 C.ar      1 2M9         0.1102
     23 OBF         7.0310   17.4960   60.4850 O.3       1 2M9        -0.3136
     24 CAG         7.7110   16.5320   61.3020 C.3       1 2M9         0.0624
     25 CAN         4.9710   16.1580   60.2160 C.ar      1 2M9        -0.0038
     26 CAU         3.7790   15.9100   59.4950 C.ar      1 2M9         0.0550
     27 SBE         2.7780   14.7170   60.0430 S.o2      1 2M9        -0.1632
     28 OAK         1.3810   15.0640   60.2860 O.co2     1 2M9        -0.4795
     29 OAE         2.8040   13.6090   59.0190 O.co2     1 2M9        -0.4795
     30 OAF         3.3700   14.0950   61.2370 O.co2     1 2M9        -0.4795
     31 H1          3.5710   20.5580   53.5281 H         1 2M9         0.0638
     32 H2          1.2982   16.9741   55.7510 H         1 2M9         0.0573
     33 H3          1.6978   15.6648   57.7813 H         1 2M9         0.0615
     34 H4          7.0633   20.4032   56.8665 H         1 2M9         0.0573
     35 H5          7.3957   19.0569   58.8871 H         1 2M9         0.0626
     36 H6          8.6049   16.9937   61.7467 H         1 2M9         0.0585
     37 H7          8.0111   15.6734   60.6833 H         1 2M9         0.0585
     38 H8          7.0384   16.1900   62.1023 H         1 2M9         0.0585
     39 H9          5.2021   15.5654   61.0938 H         1 2M9         0.0577
@<TRIPOS>BOND
     1    1    2 ar 
     2    2    3 ar 
     3    2    4 ar 
     4    2    5 1  
     5    5    6 ar 
     6    5   15 ar 
     7    6    7 ar 
     8    7    8 1  
     9    7   12 ar 
    10    8    9 ar 
    11    8   10 ar 
    12    8   11 ar 
    13   12   13 ar 
    14   12   16 ar 
    15   13   14 ar 
    16   14   18 ar 
    17   15   16 ar 
    18   15   19 ar 
    19   16   17 ar 
    20   17   18 ar 
    21   17   21 ar 
    22   18   26 ar 
    23   19   20 ar 
    24   20   21 ar 
    25   21   22 ar 
    26   22   23 1  
    27   22   25 ar 
    28   23   24 1  
    29   25   26 ar 
    30   26   27 1  
    31   27   28 ar 
    32   27   29 ar 
    33   27   30 ar 
    34    6   31 1  
    35   13   32 1  
    36   14   33 1  
    37   19   34 1  
    38   20   35 1  
    39   24   36 1  
    40   24   37 1  
    41   24   38 1  
    42   25   39 1  
@<TRIPOS>SUBSTRUCTURE
     1 2M9         1

