### 
### Created by X-TOOL on Mon Sep 10 21:13:19 2018
### 

@<TRIPOS>MOLECULE
4nja_ligand
   39    42     1     0     0
SMALL
GAST_HUCK


@<TRIPOS>ATOM
      1 OAJ       -30.5000  -18.9310   14.1040 O.co2     1 2M9        -0.4804
      2 SBD       -31.0140  -17.5570   13.7240 S.o2      1 2M9        -0.1649
      3 OAC       -31.7950  -17.7010   12.4750 O.co2     1 2M9        -0.4804
      4 OAD       -29.7530  -16.7600   13.5620 O.co2     1 2M9        -0.4804
      5 CAT       -31.9720  -16.9470   14.8790 C.ar      1 2M9         0.0552
      6 CAM       -31.6240  -15.8110   15.6010 C.ar      1 2M9        -0.0228
      7 CAS       -32.4550  -15.2710   16.6020 C.ar      1 2M9         0.0552
      8 SBC       -31.9980  -13.9420   17.4300 S.o2      1 2M9        -0.1648
      9 OAA       -30.6120  -13.6370   17.1460 O.co2     1 2M9        -0.4804
     10 OAB       -32.9930  -12.8970   17.1290 O.co2     1 2M9        -0.4804
     11 OAI       -32.0850  -14.1100   18.8530 O.co2     1 2M9        -0.4804
     12 CAW       -33.6930  -15.9020   16.8560 C.ar      1 2M9        -0.0010
     13 CAO       -34.5590  -15.4160   17.8640 C.ar      1 2M9        -0.0573
     14 CAP       -35.7720  -16.0330   18.1560 C.ar      1 2M9        -0.0582
     15 CAX       -33.1760  -17.5650   15.1540 C.ar      1 2M9        -0.0008
     16 CBA       -34.0410  -17.0580   16.1440 C.ar      1 2M9        -0.0033
     17 CBB       -35.2550  -17.6850   16.4270 C.ar      1 2M9        -0.0048
     18 CAY       -36.1200  -17.1840   17.4390 C.ar      1 2M9        -0.0022
     19 CAQ       -33.5340  -18.6930   14.4090 C.ar      1 2M9        -0.0566
     20 CAR       -34.7860  -19.2990   14.6740 C.ar      1 2M9        -0.0551
     21 CAZ       -35.6230  -18.8290   15.6900 C.ar      1 2M9         0.0197
     22 CAV       -36.8490  -19.4790   15.9700 C.ar      1 2M9         0.1102
     23 OBF       -37.2330  -20.6290   15.2950 O.3       1 2M9        -0.3136
     24 CAG       -38.5730  -21.1380   15.3740 C.3       1 2M9         0.0624
     25 CAN       -37.6910  -18.9740   16.9690 C.ar      1 2M9        -0.0038
     26 CAU       -37.3490  -17.8290   17.7100 C.ar      1 2M9         0.0550
     27 SBE       -38.3950  -17.3660   18.8890 S.o2      1 2M9        -0.1632
     28 OAK       -37.7320  -17.5070   20.2070 O.co2     1 2M9        -0.4795
     29 OAE       -38.8370  -15.9410   18.8260 O.co2     1 2M9        -0.4795
     30 OAF       -39.5120  -18.3780   18.9070 O.co2     1 2M9        -0.4795
     31 H1        -30.6799  -15.3236   15.3860 H         1 2M9         0.0638
     32 H2        -34.2687  -14.5358   18.4263 H         1 2M9         0.0573
     33 H3        -36.4301  -15.6327   18.9187 H         1 2M9         0.0615
     34 H4        -32.8714  -19.0924   13.6497 H         1 2M9         0.0573
     35 H5        -35.1023  -20.1459   14.0759 H         1 2M9         0.0626
     36 H6        -38.6548  -22.0511   14.7660 H         1 2M9         0.0585
     37 H7        -39.2757  -20.3812   14.9952 H         1 2M9         0.0585
     38 H8        -38.8153  -21.3719   16.4212 H         1 2M9         0.0585
     39 H9        -38.6283  -19.4778   17.1757 H         1 2M9         0.0577
@<TRIPOS>BOND
     1    1    2 ar 
     2    2    3 ar 
     3    2    4 ar 
     4    2    5 1  
     5    5    6 ar 
     6    5   15 ar 
     7    6    7 ar 
     8    7    8 1  
     9    7   12 ar 
    10    8    9 ar 
    11    8   10 ar 
    12    8   11 ar 
    13   12   13 ar 
    14   12   16 ar 
    15   13   14 ar 
    16   14   18 ar 
    17   15   16 ar 
    18   15   19 ar 
    19   16   17 ar 
    20   17   18 ar 
    21   17   21 ar 
    22   18   26 ar 
    23   19   20 ar 
    24   20   21 ar 
    25   21   22 ar 
    26   22   23 1  
    27   22   25 ar 
    28   23   24 1  
    29   25   26 ar 
    30   26   27 1  
    31   27   28 ar 
    32   27   29 ar 
    33   27   30 ar 
    34    6   31 1  
    35   13   32 1  
    36   14   33 1  
    37   19   34 1  
    38   20   35 1  
    39   24   36 1  
    40   24   37 1  
    41   24   38 1  
    42   25   39 1  
@<TRIPOS>SUBSTRUCTURE
     1 2M9         1

