### 
### Created by X-TOOL on Mon Sep 10 21:13:17 2018
### 

@<TRIPOS>MOLECULE
4nk3_ligand
   46    47     1     0     0
SMALL
GAST_HUCK


@<TRIPOS>ATOM
      1 C4          3.6100   13.7740   19.4520 C.3       1 MK7        -0.0025
      2 C5          9.4460   17.8560   17.3980 C.3       1 MK7        -0.0315
      3 C6         10.7600   15.9270   17.9200 C.3       1 MK7        -0.0315
      4 C7          5.1220   11.9790   20.2100 C.3       1 MK7         0.0807
      5 C8          5.4990   10.6470   18.1850 C.2       1 MK7         0.1743
      6 C10         5.6120   13.0290   17.9860 C.3       1 MK7         0.1342
      7 C1          4.3030   13.8170   18.0930 C.3       1 MK7        -0.0069
      8 C2          8.2670   16.9680   17.0360 C.3       1 MK7         0.0106
      9 C3          9.6450   14.9860   17.4940 C.3       1 MK7         0.0106
     10 C9          8.3300   15.6690   17.8110 C.3       1 MK7         0.0517
     11 C11         6.8260   13.8220   18.4310 C.2       1 MK7         0.2023
     12 C12         3.6830   12.4320   20.1650 C.3       1 MK7         0.0316
     13 N13        10.6990   17.1550   17.1340 N.4       1 MK7         0.2271
     14 N14         7.1800   14.8200   17.5510 N.am      1 MK7        -0.2816
     15 N15         3.0160   11.3530   19.4430 N.4       1 MK7         0.4138
     16 N16         5.5930   11.8450   18.8360 N.am      1 MK7        -0.2479
     17 O17         1.7490    9.4650   17.9160 O.co2     1 MK7        -0.4578
     18 O18         5.5160   10.5150   16.9610 O.2       1 MK7        -0.3828
     19 O19         7.4500   13.5770   19.4560 O.2       1 MK7        -0.3945
     20 O20        -0.4440   10.7030   18.2140 O.co2     1 MK7        -0.4578
     21 O21         1.4990   11.7010   16.9440 O.co2     1 MK7        -0.4578
     22 O22         1.5850   11.5660   19.4220 O.3       1 MK7        -0.2010
     23 S23         0.9850   10.8950   18.0400 S.o2      1 MK7        -0.0327
     24 H1          2.5494   14.0247   19.3030 H         1 MK7         0.0323
     25 H2          4.0783   14.5306   20.0987 H         1 MK7         0.0323
     26 H3          9.3920   18.1159   18.4655 H         1 MK7         0.0814
     27 H4          9.4087   18.7749   16.7945 H         1 MK7         0.0814
     28 H5         11.7320   15.4381   17.7583 H         1 MK7         0.0814
     29 H6         10.6448   16.1703   18.9866 H         1 MK7         0.0814
     30 H7          5.1928   11.0099   20.7255 H         1 MK7         0.0583
     31 H8          5.7317   12.7234   20.7431 H         1 MK7         0.0583
     32 H9          5.4024    9.7471   18.7907 H         1 MK7         0.1547
     33 H10         5.7421   12.7268   16.9364 H         1 MK7         0.0804
     34 H11         4.5227   14.8692   17.8595 H         1 MK7         0.0314
     35 H12         3.6044   13.4136   17.3452 H         1 MK7         0.0314
     36 H13         8.2949   16.7492   15.9583 H         1 MK7         0.0339
     37 H14         7.3305   17.4909   17.2799 H         1 MK7         0.0339
     38 H15         9.7199   14.0389   18.0484 H         1 MK7         0.0339
     39 H16         9.7139   14.7856   16.4146 H         1 MK7         0.0339
     40 H17         8.3221   15.9101   18.8842 H         1 MK7         0.0560
     41 H18         3.2629   12.5340   21.1765 H         1 MK7         0.0882
     42 H19        11.4733   17.7500   17.3840 H         1 MK7         0.2013
     43 H20        10.7535   16.9267   16.1537 H         1 MK7         0.2013
     44 H21         6.6387   14.9623   16.7223 H         1 MK7         0.1855
     45 H22         3.2142   10.4764   19.8994 H         1 MK7         0.2382
     46 H23         3.3610   11.3245   18.4963 H         1 MK7         0.2382
@<TRIPOS>BOND
     1    1    7 1  
     2   12    1 1  
     3    8    2 1  
     4    2   13 1  
     5    9    3 1  
     6    3   13 1  
     7   12    4 1  
     8    4   16 1  
     9   16    5 am 
    10    5   18 2  
    11    7    6 1  
    12    6   11 1  
    13   16    6 1  
    14   10    8 1  
    15   10    9 1  
    16   14   10 1  
    17   11   14 am 
    18   11   19 2  
    19   15   12 1  
    20   22   15 1  
    21   23   17 ar 
    22   23   20 ar 
    23   23   21 ar 
    24   22   23 1  
    25    1   24 1  
    26    1   25 1  
    27    2   26 1  
    28    2   27 1  
    29    3   28 1  
    30    3   29 1  
    31    4   30 1  
    32    4   31 1  
    33    5   32 1  
    34    6   33 1  
    35    7   34 1  
    36    7   35 1  
    37    8   36 1  
    38    8   37 1  
    39    9   38 1  
    40    9   39 1  
    41   10   40 1  
    42   12   41 1  
    43   13   42 1  
    44   13   43 1  
    45   14   44 1  
    46   15   45 1  
    47   15   46 1  
@<TRIPOS>SUBSTRUCTURE
     1 MK7         1

