### 
### Created by X-TOOL on Mon Sep 10 21:13:15 2018
### 

@<TRIPOS>MOLECULE
4nk9_ligand
   57    60     1     0     0
SMALL
GAST_HUCK


@<TRIPOS>ATOM
      1 C21        89.8260    1.8940   19.4540 C.3       1 2K5         0.0590
      2 O2         89.5550    1.7530   18.0520 O.3       1 2K5        -0.3257
      3 C16        90.0300    2.7040   17.1660 C.ar      1 2K5         0.0756
      4 C15        89.3170    2.8220   15.9480 C.ar      1 2K5        -0.0431
      5 C17        91.1940    3.4760   17.4120 C.ar      1 2K5        -0.0125
      6 C18        91.6050    4.3940   16.4320 C.ar      1 2K5         0.0756
      7 O1         92.7300    5.1980   16.5620 O.3       1 2K5        -0.3257
      8 C20        93.2440    5.5050   17.8640 C.3       1 2K5         0.0590
      9 C19        90.9050    4.5350   15.2260 C.ar      1 2K5        -0.0431
     10 C14        89.7530    3.7560   14.9900 C.ar      1 2K5        -0.0581
     11 C13        89.0400    3.8830   13.6600 C.3       1 2K5        -0.0106
     12 C12        90.0440    3.4410   12.5420 C.3       1 2K5         0.0171
     13 C11        89.4080    2.7440   11.4090 C.2       1 2K5         0.0609
     14 C10        88.6580    3.2890   10.3490 C.2       1 2K5        -0.0254
     15 N5         89.5020    1.4050   11.2670 N.pl3     1 2K5        -0.2333
     16 N6         88.7830    1.1330   10.1580 N.2       1 2K5        -0.2284
     17 C9         88.2770    2.2220    9.5720 C.2       1 2K5         0.0972
     18 N4         87.4720    2.2050    8.4340 N.pl3     1 2K5        -0.2583
     19 C8         86.4700    3.0900    8.0410 C.ar      1 2K5         0.1305
     20 C7         85.4660    2.7470    7.1330 C.ar      1 2K5        -0.0033
     21 C6         84.5260    3.7330    6.8490 C.ar      1 2K5        -0.0003
     22 N2         84.5310    4.9870    7.4180 N.ar      1 2K5        -0.2730
     23 N3         86.4910    4.3490    8.6470 N.ar      1 2K5        -0.2390
     24 C5         85.5160    5.2210    8.2960 C.ar      1 2K5         0.1762
     25 N1         85.5380    6.4350    8.8830 N.pl3     1 2K5        -0.2758
     26 C4         86.4790    6.8590    9.9200 C.3       1 2K5         0.1025
     27 C3         86.1600    6.3060   11.2630 C.2       1 2K5         0.1539
     28 C2         85.4680    5.2310   11.6620 C.2       1 2K5        -0.0307
     29 O          86.6450    6.9730   12.3600 O.3       1 2K5        -0.1788
     30 N          86.2140    6.2550   13.4960 N.2       1 2K5        -0.1736
     31 C1         85.5290    5.2460   13.0590 C.2       1 2K5         0.0082
     32 C          84.9090    4.2830   14.0240 C.3       1 2K5        -0.0293
     33 H1         89.3750    1.0530   20.0010 H         1 2K5         0.0577
     34 H2         89.3971    2.8396   19.8171 H         1 2K5         0.0577
     35 H3         90.9136    1.8974   19.6187 H         1 2K5         0.0577
     36 H4         88.4485    2.2022   15.7566 H         1 2K5         0.0390
     37 H5         91.7526    3.3603   18.3337 H         1 2K5         0.0408
     38 H6         94.1307    6.1485   17.7658 H         1 2K5         0.0577
     39 H7         93.5225    4.5729   18.3775 H         1 2K5         0.0577
     40 H8         92.4734    6.0293   18.4482 H         1 2K5         0.0577
     41 H9         91.2476    5.2401   14.4774 H         1 2K5         0.0390
     42 H10        88.7325    4.9265   13.4971 H         1 2K5         0.0448
     43 H11        88.1528    3.2328   13.6461 H         1 2K5         0.0448
     44 H12        90.7870    2.7655   12.9911 H         1 2K5         0.0494
     45 H13        90.5500    4.3384   12.1565 H         1 2K5         0.0494
     46 H14        88.4275    4.3398   10.1800 H         1 2K5         0.0219
     47 H15        90.0085    0.7406   11.8694 H         1 2K5         0.2454
     48 H16        87.6434    1.4217    7.7875 H         1 2K5         0.2126
     49 H17        85.4213    1.7659    6.6743 H         1 2K5         0.0575
     50 H18        83.7426    3.4999    6.1369 H         1 2K5         0.0845
     51 H19        84.8337    7.1208    8.5757 H         1 2K5         0.1892
     52 H20        86.4605    7.9571    9.9809 H         1 2K5         0.0747
     53 H21        87.4874    6.5245    9.6349 H         1 2K5         0.0747
     54 H22        84.9642    4.4997   11.0317 H         1 2K5         0.0259
     55 H23        85.1529    4.5866   15.0527 H         1 2K5         0.0374
     56 H24        85.3016    3.2726   13.8371 H         1 2K5         0.0374
     57 H25        83.8171    4.2825   13.8911 H         1 2K5         0.0374
@<TRIPOS>BOND
     1    1    2 1  
     2    2    3 1  
     3    3    4 ar 
     4    3    5 ar 
     5    4   10 ar 
     6    5    6 ar 
     7    6    7 1  
     8    6    9 ar 
     9    7    8 1  
    10    9   10 ar 
    11   10   11 1  
    12   11   12 1  
    13   12   13 1  
    14   13   14 2  
    15   13   15 1  
    16   14   17 1  
    17   15   16 1  
    18   16   17 2  
    19   17   18 1  
    20   18   19 1  
    21   19   20 ar 
    22   19   23 ar 
    23   20   21 ar 
    24   21   22 ar 
    25   22   24 ar 
    26   23   24 ar 
    27   24   25 1  
    28   25   26 1  
    29   26   27 1  
    30   27   28 2  
    31   27   29 1  
    32   28   31 1  
    33   29   30 1  
    34   30   31 2  
    35   31   32 1  
    36    1   33 1  
    37    1   34 1  
    38    1   35 1  
    39    4   36 1  
    40    5   37 1  
    41    8   38 1  
    42    8   39 1  
    43    8   40 1  
    44    9   41 1  
    45   11   42 1  
    46   11   43 1  
    47   12   44 1  
    48   12   45 1  
    49   14   46 1  
    50   15   47 1  
    51   18   48 1  
    52   20   49 1  
    53   21   50 1  
    54   25   51 1  
    55   26   52 1  
    56   26   53 1  
    57   28   54 1  
    58   32   55 1  
    59   32   56 1  
    60   32   57 1  
@<TRIPOS>SUBSTRUCTURE
     1 2K5         1

