### 
### Created by X-TOOL on Mon Sep 10 21:13:14 2018
### 

@<TRIPOS>MOLECULE
4nka_ligand
   57    60     1     0     0
SMALL
GAST_HUCK


@<TRIPOS>ATOM
      1 C1         84.1590    2.8180   12.9570 C.2       1 2K7         0.0082
      2 C2         84.0040    3.0750   11.5870 C.2       1 2K7        -0.0307
      3 C3         85.0290    3.8610   11.2490 C.2       1 2K7         0.1539
      4 N6         88.4160   -1.0030    9.9730 N.pl3     1 2K7        -0.2108
      5 C7         85.1230    0.4980    6.7970 C.ar      1 2K7        -0.0020
      6 C8         85.8800    0.8020    7.9580 C.ar      1 2K7         0.1369
      7 C9         87.6310    0.0180    9.6380 C.2       1 2K7         0.1730
      8 C10        87.7500    1.1070   10.5460 C.2       1 2K7        -0.0270
      9 C11        88.6940    0.7010   11.4540 C.2       1 2K7        -0.0106
     10 C12        89.1460    1.3780   12.6820 C.3       1 2K7        -0.0125
     11 C13        88.1420    1.2280   13.8670 C.3       1 2K7        -0.0181
     12 C14        88.6270    1.9420   15.0840 C.ar      1 2K7        -0.0609
     13 C15        89.3910    1.2550   16.0450 C.ar      1 2K7        -0.0800
     14 C16        89.8650    1.8960   17.1860 C.ar      1 2K7        -0.0479
     15 C19        88.3400    3.2980   15.2510 C.ar      1 2K7        -0.0397
     16 C20        87.2870    5.8600   16.3880 C.3       1 2K7         0.0568
     17 C21        91.4240    4.3810   18.3670 C.3       1 2K7         0.0554
     18 O2         90.0400    4.0020   18.4150 O.3       1 2K7        -0.3294
     19 C17        89.5680    3.2520   17.3690 C.ar      1 2K7         0.1122
     20 C18        88.8010    3.9620   16.3860 C.ar      1 2K7         0.1132
     21 O1         88.5880    5.3160   16.6520 O.3       1 2K7        -0.3266
     22 N5         89.0520   -0.5580   11.1240 N.2       1 2K7        -0.2522
     23 N4         86.8000   -0.1220    8.4930 N.pl3     1 2K7        -0.2297
     24 C6         84.2160    1.4680    6.3790 C.ar      1 2K7         0.0002
     25 N2         84.0620    2.6590    7.0390 N.ar      1 2K7        -0.2725
     26 N3         85.7490    1.9860    8.6130 N.ar      1 2K7        -0.2377
     27 C5         84.8130    2.8550    8.1400 C.ar      1 2K7         0.1767
     28 N1         84.6270    4.0230    8.8030 N.pl3     1 2K7        -0.2757
     29 C4         85.4270    4.4710    9.9600 C.3       1 2K7         0.1025
     30 O          85.8040    4.0930   12.3530 O.3       1 2K7        -0.1788
     31 N          85.2130    3.4020   13.4370 N.2       1 2K7        -0.1736
     32 C          83.2790    1.9980   13.8520 C.3       1 2K7        -0.0293
     33 H1         83.2123    2.7095   10.9346 H         1 2K7         0.0259
     34 H2         88.5256   -1.9076    9.4929 H         1 2K7         0.2465
     35 H3         85.2443   -0.4384    6.2646 H         1 2K7         0.0580
     36 H4         87.2110    2.0530   10.5246 H         1 2K7         0.0178
     37 H5         89.2742    2.4487   12.4649 H         1 2K7         0.0428
     38 H6         90.1118    0.9470   12.9845 H         1 2K7         0.0428
     39 H7         88.0226    0.1601   14.1022 H         1 2K7         0.0423
     40 H8         87.1704    1.6486   13.5685 H         1 2K7         0.0423
     41 H9         89.6151    0.2052   15.8938 H         1 2K7         0.0436
     42 H10        90.4530    1.3556   17.9190 H         1 2K7         0.0493
     43 H11        87.7630    3.8302   14.5035 H         1 2K7         0.0450
     44 H12        87.2773    6.9292   16.6464 H         1 2K7         0.0573
     45 H13        86.5378    5.3295   16.9941 H         1 2K7         0.0573
     46 H14        87.0483    5.7385   15.3211 H         1 2K7         0.0573
     47 H15        91.6726    4.9752   19.2587 H         1 2K7         0.0570
     48 H16        91.6088    4.9808   17.4636 H         1 2K7         0.0570
     49 H17        92.0510    3.4775   18.3420 H         1 2K7         0.0570
     50 H18        86.8809   -1.0161    7.9881 H         1 2K7         0.2220
     51 H19        83.6106    1.2744    5.5009 H         1 2K7         0.0846
     52 H20        83.8725    4.6430    8.4755 H         1 2K7         0.1892
     53 H21        86.4802    4.2173    9.7694 H         1 2K7         0.0747
     54 H22        85.3230    5.5625   10.0487 H         1 2K7         0.0747
     55 H23        83.6888    2.0021   14.8728 H         1 2K7         0.0374
     56 H24        83.2369    0.9644   13.4779 H         1 2K7         0.0374
     57 H25        82.2657    2.4259   13.8620 H         1 2K7         0.0374
@<TRIPOS>BOND
     1    2    1 1  
     2    1   31 2  
     3    1   32 1  
     4    3    2 2  
     5   29    3 1  
     6    3   30 1  
     7    7    4 1  
     8    4   22 1  
     9    6    5 ar 
    10   24    5 ar 
    11    6   23 1  
    12   26    6 ar 
    13    7    8 2  
    14   23    7 1  
    15    8    9 1  
    16    9   10 1  
    17    9   22 2  
    18   10   11 1  
    19   11   12 1  
    20   12   13 ar 
    21   12   15 ar 
    22   13   14 ar 
    23   14   19 ar 
    24   15   20 ar 
    25   21   16 1  
    26   18   17 1  
    27   19   18 1  
    28   20   19 ar 
    29   20   21 1  
    30   25   24 ar 
    31   27   25 ar 
    32   27   26 ar 
    33   28   27 1  
    34   28   29 1  
    35   30   31 1  
    36    2   33 1  
    37    4   34 1  
    38    5   35 1  
    39    8   36 1  
    40   10   37 1  
    41   10   38 1  
    42   11   39 1  
    43   11   40 1  
    44   13   41 1  
    45   14   42 1  
    46   15   43 1  
    47   16   44 1  
    48   16   45 1  
    49   16   46 1  
    50   17   47 1  
    51   17   48 1  
    52   17   49 1  
    53   23   50 1  
    54   24   51 1  
    55   28   52 1  
    56   29   53 1  
    57   29   54 1  
    58   32   55 1  
    59   32   56 1  
    60   32   57 1  
@<TRIPOS>SUBSTRUCTURE
     1 2K7         1

