### 
### Created by X-TOOL on Mon Sep 10 21:13:15 2018
### 

@<TRIPOS>MOLECULE
4nks_ligand
   49    52     1     0     0
SMALL
GAST_HUCK


@<TRIPOS>ATOM
      1 C1         83.3670    2.1930   14.2340 C.3       1 2M2        -0.0293
      2 C2         84.3150    3.0600   13.4110 C.2       1 2M2         0.0082
      3 C3         84.2450    3.4160   12.0260 C.2       1 2M2        -0.0307
      4 C4         85.3620    4.1810   11.7910 C.2       1 2M2         0.1539
      5 C5         85.7890    4.8430   10.5190 C.3       1 2M2         0.1025
      6 N6         84.7710    4.5020    9.5200 N.pl3     1 2M2        -0.2757
      7 C7         84.8850    3.3780    8.7350 C.ar      1 2M2         0.1767
      8 N8         84.1100    3.2850    7.6490 N.ar      1 2M2        -0.2725
      9 C9         84.1710    2.2090    6.8420 C.ar      1 2M2         0.0002
     10 C10        85.0480    1.1780    7.1490 C.ar      1 2M2        -0.0020
     11 C11        85.8360    1.3090    8.3060 C.ar      1 2M2         0.1369
     12 N12        86.7430    0.3120    8.5820 N.pl3     1 2M2        -0.2297
     13 C13        87.4930    0.2420    9.7390 C.2       1 2M2         0.1730
     14 C14        87.6100    1.1480   10.7860 C.2       1 2M2        -0.0270
     15 C15        88.4460    0.5880   11.7190 C.2       1 2M2        -0.0104
     16 C16        88.8710    1.1000   13.0740 C.3       1 2M2        -0.0109
     17 C17        89.6680    2.3710   12.9370 C.3       1 2M2        -0.0105
     18 C18        90.3810    2.7220   14.2170 C.ar      1 2M2        -0.0413
     19 C19        91.7360    3.0690   14.1620 C.ar      1 2M2        -0.0602
     20 C20        92.4130    3.4240   15.3380 C.ar      1 2M2        -0.0686
     21 C21        91.7100    3.4390   16.5540 C.ar      1 2M2        -0.0687
     22 C22        90.3580    3.1090   16.5930 C.ar      1 2M2        -0.0686
     23 C23        89.6940    2.7510   15.4220 C.ar      1 2M2        -0.0602
     24 N24        88.8180   -0.6010   11.2410 N.2       1 2M2        -0.2521
     25 N26        88.2030   -0.7990    9.9840 N.pl3     1 2M2        -0.2108
     26 N27        85.7460    2.4040    9.0660 N.ar      1 2M2        -0.2377
     27 O28        86.0050    4.2550   12.9690 O.3       1 2M2        -0.1788
     28 N29        85.4050    3.6170   13.8440 N.2       1 2M2        -0.1736
     29 H1         82.5306    1.8615   13.6011 H         1 2M2         0.0374
     30 H2         82.9770    2.7775   15.0803 H         1 2M2         0.0374
     31 H3         83.9097    1.3149   14.6139 H         1 2M2         0.0374
     32 H4         83.4714    3.1394   11.3112 H         1 2M2         0.0259
     33 H5         86.7734    4.4661   10.2045 H         1 2M2         0.0747
     34 H6         85.8400    5.9334   10.6548 H         1 2M2         0.0747
     35 H7         83.9531    5.1172    9.4036 H         1 2M2         0.1892
     36 H8         83.5416    2.1485    5.9615 H         1 2M2         0.0846
     37 H9         85.1230    0.3003    6.5173 H         1 2M2         0.0580
     38 H10        86.8708   -0.4305    7.8797 H         1 2M2         0.2220
     39 H11        87.1276    2.1220   10.8536 H         1 2M2         0.0178
     40 H12        89.4895    0.3377   13.5703 H         1 2M2         0.0430
     41 H13        87.9761    1.2988   13.6819 H         1 2M2         0.0430
     42 H14        88.9863    3.1925   12.6719 H         1 2M2         0.0446
     43 H15        90.4129    2.2404   12.1383 H         1 2M2         0.0446
     44 H16        92.2605    3.0634   13.2134 H         1 2M2         0.0557
     45 H17        93.4651    3.6834   15.3088 H         1 2M2         0.0599
     46 H18        92.2241    3.7096   17.4691 H         1 2M2         0.0559
     47 H19        89.8219    3.1307   17.5349 H         1 2M2         0.0599
     48 H20        88.6410    2.4952   15.4522 H         1 2M2         0.0557
     49 H21        88.3055   -1.6250    9.3773 H         1 2M2         0.2465
@<TRIPOS>BOND
     1    1    2 1  
     2    2    3 1  
     3    2   28 2  
     4    3    4 2  
     5    4    5 1  
     6    4   27 1  
     7    5    6 1  
     8    6    7 1  
     9    7    8 ar 
    10    7   26 ar 
    11    8    9 ar 
    12    9   10 ar 
    13   10   11 ar 
    14   11   12 1  
    15   11   26 ar 
    16   12   13 1  
    17   13   14 2  
    18   13   25 1  
    19   14   15 1  
    20   15   16 1  
    21   15   24 2  
    22   16   17 1  
    23   17   18 1  
    24   18   19 ar 
    25   18   23 ar 
    26   19   20 ar 
    27   20   21 ar 
    28   21   22 ar 
    29   22   23 ar 
    30   24   25 1  
    31   27   28 1  
    32    1   29 1  
    33    1   30 1  
    34    1   31 1  
    35    3   32 1  
    36    5   33 1  
    37    5   34 1  
    38    6   35 1  
    39    9   36 1  
    40   10   37 1  
    41   12   38 1  
    42   14   39 1  
    43   16   40 1  
    44   16   41 1  
    45   17   42 1  
    46   17   43 1  
    47   19   44 1  
    48   20   45 1  
    49   21   46 1  
    50   22   47 1  
    51   23   48 1  
    52   25   49 1  
@<TRIPOS>SUBSTRUCTURE
     1 2M2         1

