### 
### Created by X-TOOL on Mon Sep 10 21:13:19 2018
### 

@<TRIPOS>MOLECULE
4nl1_ligand
   24    24     1     0     0
SMALL
GAST_HUCK


@<TRIPOS>ATOM
      1 F2        -23.4390   42.9250   11.5990 F         1 Z13        -0.2274
      2 F3        -25.0930   41.5660   11.6530 F         1 Z13        -0.2274
      3 F4        -25.4190   43.7360   11.6310 F         1 Z13        -0.2274
      4 C1        -24.6250   42.7090   17.8860 C.3       1 Z13         0.0146
      5 N1        -23.6110   41.7640   18.2340 N.4       1 Z13         0.2421
      6 C2        -22.3020   42.3760   18.1480 C.3       1 Z13        -0.0429
      7 C4        -23.6780   43.4750   15.6920 C.ar      1 Z13        -0.0231
      8 C5        -24.6750   42.7710   16.4230 C.ar      1 Z13         0.0331
      9 C6        -25.6130   42.0340   15.6950 C.ar      1 Z13        -0.0231
     10 C7        -25.6040   42.0460   14.2910 C.ar      1 Z13        -0.0370
     11 C8        -23.6880   43.4910   14.3140 C.ar      1 Z13        -0.0370
     12 C15       -24.6600   42.7700   13.5660 C.ar      1 Z13         0.0385
     13 C16       -24.6560   42.7620   12.0760 C.3       1 Z13         0.3684
     14 H         -24.3753   43.6983   18.2969 H         1 Z13         0.1056
     15 H         -25.5974   42.3819   18.2828 H         1 Z13         0.1056
     16 H         -23.6543   40.9814   17.6001 H         1 Z13         0.2031
     17 H         -23.7661   41.4420   19.1765 H         1 Z13         0.2031
     18 H         -21.5333   41.6371   18.4184 H         1 Z13         0.0777
     19 H         -22.2499   43.2293   18.8403 H         1 Z13         0.0777
     20 H         -22.1280   42.7266   17.1200 H         1 Z13         0.0777
     21 H         -22.8991   44.0066   16.2267 H         1 Z13         0.0654
     22 H         -26.3566   41.4459   16.2206 H         1 Z13         0.0654
     23 H         -26.3537   41.4750   13.7553 H         1 Z13         0.0836
     24 H         -22.9364   44.0674   13.7868 H         1 Z13         0.0836
@<TRIPOS>BOND
     1   13    1 1  
     2   13    2 1  
     3   13    3 1  
     4    4    5 1  
     5    8    4 1  
     6    5    6 1  
     7    7    8 ar 
     8   11    7 ar 
     9    9    8 ar 
    10   10    9 ar 
    11   12   10 ar 
    12   12   11 ar 
    13   12   13 1  
    14    4   14 1  
    15    4   15 1  
    16    5   16 1  
    17    5   17 1  
    18    6   18 1  
    19    6   19 1  
    20    6   20 1  
    21    7   21 1  
    22    9   22 1  
    23   10   23 1  
    24   11   24 1  
@<TRIPOS>SUBSTRUCTURE
     1 Z13         1

