### 
### Created by X-TOOL on Mon Sep 10 21:13:19 2018
### 

@<TRIPOS>MOLECULE
4nld_ligand
   93   100     1     0     0
SMALL
GAST_HUCK


@<TRIPOS>ATOM
      1 C1         36.4220    8.8390   43.8760 C.ar      1 2N7         0.0349
      2 C2         35.5490    9.7300   44.4980 C.ar      1 2N7        -0.0613
      3 C3         35.5870    9.9280   45.8670 C.ar      1 2N7        -0.0707
      4 C4         37.3120    8.1000   44.6570 C.ar      1 2N7        -0.0247
      5 C5         37.3350    8.2950   46.0350 C.ar      1 2N7         0.0673
      6 C6         36.4710    9.2040   46.6640 C.ar      1 2N7        -0.0163
      7 C7         36.7410    9.1380   48.0870 C.2       1 2N7        -0.0322
      8 C8         37.7690    8.2190   48.2780 C.2       1 2N7         0.0577
      9 N9         38.1360    7.6990   46.9950 N.pl3     1 2N7        -0.2680
     10 C10        39.1490    6.6920   46.7550 C.3       1 2N7         0.0626
     11 C11        36.0180    9.8640   49.1660 C.3       1 2N7        -0.0222
     12 C12        34.5160    9.5800   49.1150 C.3       1 2N7        -0.0453
     13 C13        33.7720   10.3630   50.1890 C.3       1 2N7        -0.0516
     14 C14        34.0170   11.8560   50.0570 C.3       1 2N7        -0.0528
     15 C15        35.4920   12.1470   50.1330 C.3       1 2N7        -0.0516
     16 C16        36.2600   11.3780   49.0600 C.3       1 2N7        -0.0453
     17 C17        38.5800    6.3220   49.7000 C.ar      1 2N7        -0.0392
     18 C18        38.4010    7.7010   49.5090 C.ar      1 2N7        -0.0077
     19 C19        38.8250    8.5970   50.4930 C.ar      1 2N7        -0.0682
     20 C20        39.4210    8.1390   51.6550 C.ar      1 2N7        -0.0399
     21 C21        39.5980    6.7710   51.8460 C.ar      1 2N7         0.0842
     22 C22        39.1640    5.8650   50.8820 C.ar      1 2N7        -0.0314
     23 O23        40.2540    6.4200   52.9980 O.3       1 2N7        -0.3228
     24 C24        40.4670    5.0310   53.2650 C.3       1 2N7         0.0594
     25 C25        38.5500    5.3930   47.2170 C.3       1 2N7         0.0907
     26 C26        38.2540    5.2520   48.7180 C.3       1 2N7         0.0060
     27 C27        39.3920    4.5070   48.0950 C.3       1 2N7        -0.0238
     28 C28        37.5890    4.7300   46.1940 C.2       1 2N7         0.2101
     29 N30        36.2360    4.7970   46.3150 N.am      1 2N7        -0.2555
     30 O31        38.1050    4.2350   45.2050 O.2       1 2N7        -0.3438
     31 C32        35.2160    4.1540   45.4620 C.3       1 2N7         0.0853
     32 C33        34.3380    3.2370   46.2940 C.3       1 2N7        -0.0082
     33 N34        33.6460    3.9190   47.3900 N.4       1 2N7         0.2364
     34 C35        34.5620    4.7710   48.1480 C.3       1 2N7        -0.0082
     35 C36        35.3560    5.6230   47.1810 C.3       1 2N7         0.0853
     36 C37        34.4580    5.3720   44.9380 C.3       1 2N7        -0.0223
     37 C38        34.4150    6.2980   46.1590 C.3       1 2N7        -0.0223
     38 C39        32.9900    2.9540   48.2750 C.3       1 2N7        -0.0429
     39 C40        36.3270    8.6850   42.3880 C.2       1 2N7         0.2172
     40 O41        35.4100    9.1970   41.7440 O.2       1 2N7        -0.3873
     41 N42        37.2840    7.8890   41.7700 N.am      1 2N7        -0.1422
     42 S43        37.4410    7.4890   40.1290 S.o2      1 2N7         0.1403
     43 N44        36.1890    6.4310   39.8810 N.am      1 2N7        -0.2242
     44 O45        38.6780    6.7950   39.9800 O.2       1 2N7        -0.1305
     45 O46        37.2320    8.6980   39.4040 O.2       1 2N7        -0.1305
     46 C47        35.0770    6.8470   39.0190 C.3       1 2N7         0.0194
     47 C48        35.8230    5.4930   40.9510 C.3       1 2N7         0.0194
     48 H          34.8289   10.2765   43.8998 H         1 2N7         0.0549
     49 H          34.9229   10.6530   46.3234 H         1 2N7         0.0541
     50 H          37.9789    7.3811   44.1948 H         1 2N7         0.0594
     51 H          40.0595    6.9198   47.3287 H         1 2N7         0.0582
     52 H          39.3935    6.6418   45.6837 H         1 2N7         0.0582
     53 H          36.4054    9.5149   50.1345 H         1 2N7         0.0394
     54 H          34.3483    8.5045   49.2738 H         1 2N7         0.0283
     55 H          34.1292    9.8695   48.1268 H         1 2N7         0.0283
     56 H          34.1176   10.0299   51.1787 H         1 2N7         0.0267
     57 H          32.6939   10.1675   50.0921 H         1 2N7         0.0267
     58 H          33.4998   12.3830   50.8723 H         1 2N7         0.0265
     59 H          33.6269   12.2046   49.0894 H         1 2N7         0.0265
     60 H          35.8660   11.8510   51.1242 H         1 2N7         0.0267
     61 H          35.6535   13.2252   49.9871 H         1 2N7         0.0267
     62 H          35.9309   11.7235   48.0689 H         1 2N7         0.0283
     63 H          37.3353   11.5768   49.1792 H         1 2N7         0.0283
     64 H          38.6858    9.6618   50.3450 H         1 2N7         0.0562
     65 H          39.7484    8.8416   52.4127 H         1 2N7         0.0491
     66 H          39.2802    4.8005   51.0504 H         1 2N7         0.0479
     67 H          41.0022    4.9190   54.2195 H         1 2N7         0.0578
     68 H          41.0659    4.5895   52.4548 H         1 2N7         0.0578
     69 H          39.4968    4.5163   53.3261 H         1 2N7         0.0578
     70 H          37.3444    4.7241   49.0404 H         1 2N7         0.0456
     71 H          40.4270    4.7964   48.3296 H         1 2N7         0.0284
     72 H          39.3330    3.4142   47.9840 H         1 2N7         0.0284
     73 H          35.6716    3.5821   44.6402 H         1 2N7         0.0613
     74 H          34.9703    2.4451   46.7220 H         1 2N7         0.0837
     75 H          33.5826    2.7863   45.6336 H         1 2N7         0.0837
     76 H          32.9339    4.5083   46.9879 H         1 2N7         0.2032
     77 H          35.2481    4.1436   48.7359 H         1 2N7         0.0837
     78 H          33.9872    5.4199   48.8251 H         1 2N7         0.0837
     79 H          35.9394    6.3685   47.7412 H         1 2N7         0.0613
     80 H          33.4435    5.0975   44.6133 H         1 2N7         0.0290
     81 H          34.9956    5.8436   44.1022 H         1 2N7         0.0290
     82 H          34.7783    7.3032   45.8990 H         1 2N7         0.0290
     83 H          33.3925    6.3695   46.5583 H         1 2N7         0.0290
     84 H          32.3064    2.3235   47.6875 H         1 2N7         0.0778
     85 H          32.4202    3.4925   49.0466 H         1 2N7         0.0778
     86 H          33.7506    2.3211   48.7555 H         1 2N7         0.0778
     87 H          37.9760    7.4978   42.3768 H         1 2N7         0.2149
     88 H          34.3360    6.0362   38.9596 H         1 2N7         0.0442
     89 H          35.4577    7.0703   38.0114 H         1 2N7         0.0442
     90 H          34.6035    7.7463   39.4397 H         1 2N7         0.0442
     91 H          34.9790    4.8701   40.6197 H         1 2N7         0.0442
     92 H          35.5319    6.0570   41.8494 H         1 2N7         0.0442
     93 H          36.6839    4.8495   41.1849 H         1 2N7         0.0442
@<TRIPOS>BOND
     1    1    2 ar 
     2    1    4 ar 
     3    1   39 1  
     4    2    3 ar 
     5    3    6 ar 
     6    4    5 ar 
     7    5    6 ar 
     8    5    9 1  
     9    6    7 1  
    10    7    8 2  
    11    7   11 1  
    12    8    9 1  
    13    8   18 1  
    14    9   10 1  
    15   10   25 1  
    16   11   12 1  
    17   11   16 1  
    18   12   13 1  
    19   13   14 1  
    20   14   15 1  
    21   15   16 1  
    22   18   17 ar 
    23   17   22 ar 
    24   17   26 1  
    25   18   19 ar 
    26   19   20 ar 
    27   20   21 ar 
    28   21   22 ar 
    29   21   23 1  
    30   23   24 1  
    31   25   26 1  
    32   25   27 1  
    33   25   28 1  
    34   26   27 1  
    35   28   29 am 
    36   28   30 2  
    37   29   31 1  
    38   29   35 1  
    39   31   32 1  
    40   31   36 1  
    41   32   33 1  
    42   33   34 1  
    43   33   38 1  
    44   34   35 1  
    45   35   37 1  
    46   36   37 1  
    47   39   40 2  
    48   39   41 am 
    49   41   42 am 
    50   42   43 am 
    51   42   44 2  
    52   42   45 2  
    53   43   46 1  
    54   43   47 1  
    55    2   48 1  
    56    3   49 1  
    57    4   50 1  
    58   10   51 1  
    59   10   52 1  
    60   11   53 1  
    61   12   54 1  
    62   12   55 1  
    63   13   56 1  
    64   13   57 1  
    65   14   58 1  
    66   14   59 1  
    67   15   60 1  
    68   15   61 1  
    69   16   62 1  
    70   16   63 1  
    71   19   64 1  
    72   20   65 1  
    73   22   66 1  
    74   24   67 1  
    75   24   68 1  
    76   24   69 1  
    77   26   70 1  
    78   27   71 1  
    79   27   72 1  
    80   31   73 1  
    81   32   74 1  
    82   32   75 1  
    83   33   76 1  
    84   34   77 1  
    85   34   78 1  
    86   35   79 1  
    87   36   80 1  
    88   36   81 1  
    89   37   82 1  
    90   37   83 1  
    91   38   84 1  
    92   38   85 1  
    93   38   86 1  
    94   41   87 1  
    95   46   88 1  
    96   46   89 1  
    97   46   90 1  
    98   47   91 1  
    99   47   92 1  
   100   47   93 1  
@<TRIPOS>SUBSTRUCTURE
     1 2N7         1

