### 
### Created by X-TOOL on Mon Sep 10 21:13:19 2018
### 

@<TRIPOS>MOLECULE
4nni_ligand
   12    12     1     0     0
SMALL
GAST_HUCK


@<TRIPOS>ATOM
      1 C1         15.4570    6.5040   22.1390 C.ar      1 VGL         0.1135
      2 C3         15.3250    4.6860   23.5590 C.ar      1 VGL         0.0457
      3 C4         16.6700    4.3810   23.2690 C.ar      1 VGL         0.0447
      4 C2         14.8030    7.6740   21.4980 C.2       1 VGL         0.0896
      5 C6         16.7960    6.2030   21.8350 C.ar      1 VGL         0.0565
      6 O1         13.7130    8.0630   21.9990 O.co2     1 VGL        -0.5553
      7 O2         15.3670    8.1940   20.4870 O.co2     1 VGL        -0.5553
      8 N2         14.7120    5.7490   22.9890 N.ar      1 VGL        -0.2564
      9 N5         17.3840    5.1380   22.3930 N.ar      1 VGL        -0.2673
     10 H1         14.7728    4.0590   24.2497 H         1 VGL         0.0936
     11 H2         17.1417    3.5320   23.7504 H         1 VGL         0.0946
     12 H3         17.3516    6.8326   21.1495 H         1 VGL         0.0961
@<TRIPOS>BOND
     1    1    4 1  
     2    1    5 ar 
     3    8    1 ar 
     4    2    3 ar 
     5    2    8 ar 
     6    3    9 ar 
     7    4    6 ar 
     8    4    7 ar 
     9    5    9 ar 
    10    2   10 1  
    11    3   11 1  
    12    5   12 1  
@<TRIPOS>SUBSTRUCTURE
     1 VGL         1

