### 
### Created by X-TOOL on Mon Sep 10 21:13:20 2018
### 

@<TRIPOS>MOLECULE
4nnn_ligand
   77    77     1     0     0
SMALL
GAST_HUCK


@<TRIPOS>ATOM
      1 C9         58.8420 -134.6280   34.9210 C.2       1 ALD         0.3239
      2 O31        58.7360 -135.8420   35.1050 O.2       1 ALD        -0.3773
      3 O8         57.8130 -133.9160   34.3600 O.3       1 ALD        -0.2506
      4 C7         56.7520 -134.6630   33.7800 C.3       1 ALD         0.1113
      5 C3         55.6330 -134.4450   34.6010 C.ar      1 ALD        -0.0130
      6 C4         54.7010 -133.4510   34.2890 C.ar      1 ALD        -0.0578
      7 C5         53.5900 -133.2410   35.1030 C.ar      1 ALD        -0.0685
      8 C6         53.3990 -134.0250   36.2370 C.ar      1 ALD        -0.0687
      9 C1         54.3220 -135.0180   36.5540 C.ar      1 ALD        -0.0685
     10 C2         55.4330 -135.2280   35.7390 C.ar      1 ALD        -0.0578
     11 N10        59.9790 -133.9940   35.2790 N.am      1 ALD        -0.2411
     12 C11        61.1080 -134.6970   35.9240 C.3       1 ALD         0.1331
     13 C12        60.7360 -134.9020   37.3970 C.2       1 ALD         0.2039
     14 O32        60.2690 -133.9730   38.0530 O.2       1 ALD        -0.3944
     15 C30        62.4090 -133.9210   35.8590 C.3       1 ALD        -0.0101
     16 C31        62.7140 -133.5480   34.3900 C.3       1 ALD        -0.0425
     17 C32        64.0650 -132.8690   34.3300 C.3       1 ALD        -0.0625
     18 C33        62.7750 -134.7460   33.4590 C.3       1 ALD        -0.0625
     19 N13        60.9540 -136.1380   37.8760 N.am      1 ALD        -0.2637
     20 C14        60.6260 -136.5230   39.2610 C.3       1 ALD         0.1311
     21 C15        61.8870 -136.5110   40.1380 C.2       1 ALD         0.2020
     22 O34        62.8960 -137.1140   39.7770 O.2       1 ALD        -0.3945
     23 C24        60.0380 -137.9520   39.2260 C.3       1 ALD        -0.0101
     24 C25        58.7040 -138.0980   39.9850 C.3       1 ALD        -0.0425
     25 C26        57.6840 -137.0300   39.5600 C.3       1 ALD        -0.0625
     26 C27        58.9480 -138.0360   41.4980 C.3       1 ALD        -0.0625
     27 N16        61.7900 -135.8270   41.2970 N.am      1 ALD        -0.2798
     28 C17        62.9000 -135.7770   42.2660 C.3       1 ALD         0.0653
     29 C22        62.6940 -136.9440   43.2510 C.3       1 ALD         0.0671
     30 C18        62.9330 -134.4360   43.0300 C.3       1 ALD        -0.0254
     31 C19        63.1240 -133.2260   42.1070 C.3       1 ALD        -0.0446
     32 C20        63.1670 -131.9560   42.9630 C.3       1 ALD        -0.0626
     33 C21        64.4220 -133.3340   41.3000 C.3       1 ALD        -0.0626
     34 O33        61.5410 -136.6840   44.0670 O.3       1 ALD        -0.3927
     35 H1         57.0061 -135.7330   33.7560 H         1 ALD         0.0776
     36 H2         56.5506 -134.3109   32.7576 H         1 ALD         0.0776
     37 H3         54.8439 -132.8384   33.4062 H         1 ALD         0.0557
     38 H4         52.8739 -132.4665   34.8530 H         1 ALD         0.0599
     39 H5         52.5348 -133.8631   36.8711 H         1 ALD         0.0559
     40 H6         54.1762 -135.6295   37.4371 H         1 ALD         0.0599
     41 H7         56.1464 -136.0045   35.9906 H         1 ALD         0.0557
     42 H8         60.0603 -133.0133   35.1014 H         1 ALD         0.1899
     43 H9         61.2515 -135.6711   35.4335 H         1 ALD         0.0799
     44 H10        63.2259 -134.5409   36.2570 H         1 ALD         0.0315
     45 H11        62.3190 -133.0035   36.4591 H         1 ALD         0.0315
     46 H12        61.9333 -132.8596   34.0340 H         1 ALD         0.0298
     47 H13        64.2935 -132.5985   33.2885 H         1 ALD         0.0232
     48 H14        64.8372 -133.5548   34.7085 H         1 ALD         0.0232
     49 H15        64.0464 -131.9601   34.9492 H         1 ALD         0.0232
     50 H16        61.8082 -135.2706   33.4727 H         1 ALD         0.0232
     51 H17        63.5683 -135.4305   33.7937 H         1 ALD         0.0232
     52 H18        62.9925 -134.4048   32.4361 H         1 ALD         0.0232
     53 H19        61.3547 -136.8243   37.2690 H         1 ALD         0.1883
     54 H20        59.8861 -135.8226   39.6757 H         1 ALD         0.0800
     55 H21        60.7697 -138.6386   39.6767 H         1 ALD         0.0315
     56 H22        59.8710 -138.2321   38.1755 H         1 ALD         0.0315
     57 H23        58.2817 -139.0847   39.7439 H         1 ALD         0.0298
     58 H24        56.7499 -137.1702   40.1238 H         1 ALD         0.0232
     59 H25        57.4802 -137.1255   38.4833 H         1 ALD         0.0232
     60 H26        58.0917 -136.0299   39.7688 H         1 ALD         0.0232
     61 H27        59.6795 -138.8064   41.7833 H         1 ALD         0.0232
     62 H28        58.0017 -138.2143   42.0297 H         1 ALD         0.0232
     63 H29        59.3379 -137.0430   41.7662 H         1 ALD         0.0232
     64 H30        60.9414 -135.3403   41.5045 H         1 ALD         0.1855
     65 H31        63.8544 -135.9048   41.7343 H         1 ALD         0.0579
     66 H32        63.5821 -137.0436   43.8924 H         1 ALD         0.0580
     67 H33        62.5418 -137.8766   42.6879 H         1 ALD         0.0580
     68 H34        63.7645 -134.4627   43.7497 H         1 ALD         0.0291
     69 H35        61.9829 -134.3174   43.5715 H         1 ALD         0.0291
     70 H36        62.2748 -133.1697   41.4101 H         1 ALD         0.0296
     71 H37        63.3038 -131.0797   42.3123 H         1 ALD         0.0232
     72 H38        64.0051 -132.0202   43.6725 H         1 ALD         0.0232
     73 H39        62.2230 -131.8562   43.5187 H         1 ALD         0.0232
     74 H40        64.3958 -134.2447   40.6836 H         1 ALD         0.0232
     75 H41        65.2788 -133.3817   41.9882 H         1 ALD         0.0232
     76 H42        64.5233 -132.4533   40.6488 H         1 ALD         0.0232
     77 H43        61.4150 -137.4040   44.6738 H         1 ALD         0.2095
@<TRIPOS>BOND
     1    1    2 2  
     2    1    3 1  
     3    1   11 am 
     4    3    4 1  
     5    4    5 1  
     6    5    6 ar 
     7    5   10 ar 
     8    6    7 ar 
     9    7    8 ar 
    10    8    9 ar 
    11    9   10 ar 
    12   11   12 1  
    13   12   13 1  
    14   12   15 1  
    15   13   14 2  
    16   13   19 am 
    17   15   16 1  
    18   16   17 1  
    19   16   18 1  
    20   19   20 1  
    21   20   21 1  
    22   20   23 1  
    23   21   22 2  
    24   21   27 am 
    25   23   24 1  
    26   24   25 1  
    27   24   26 1  
    28   27   28 1  
    29   28   29 1  
    30   28   30 1  
    31   29   34 1  
    32   30   31 1  
    33   31   32 1  
    34   31   33 1  
    35    4   35 1  
    36    4   36 1  
    37    6   37 1  
    38    7   38 1  
    39    8   39 1  
    40    9   40 1  
    41   10   41 1  
    42   11   42 1  
    43   12   43 1  
    44   15   44 1  
    45   15   45 1  
    46   16   46 1  
    47   17   47 1  
    48   17   48 1  
    49   17   49 1  
    50   18   50 1  
    51   18   51 1  
    52   18   52 1  
    53   19   53 1  
    54   20   54 1  
    55   23   55 1  
    56   23   56 1  
    57   24   57 1  
    58   25   58 1  
    59   25   59 1  
    60   25   60 1  
    61   26   61 1  
    62   26   62 1  
    63   26   63 1  
    64   27   64 1  
    65   28   65 1  
    66   29   66 1  
    67   29   67 1  
    68   30   68 1  
    69   30   69 1  
    70   31   70 1  
    71   32   71 1  
    72   32   72 1  
    73   32   73 1  
    74   33   74 1  
    75   33   75 1  
    76   33   76 1  
    77   34   77 1  
@<TRIPOS>SUBSTRUCTURE
     1 ALD         1

