### 
### Created by X-TOOL on Mon Sep 10 21:13:16 2018
### 

@<TRIPOS>MOLECULE
4nnr_ligand
  134   137     1     0     0
SMALL
GAST_HUCK


@<TRIPOS>ATOM
      1 C1         19.6430   32.8710    8.8290 C.2       1 FK5         0.2620
      2 C2         18.2570   32.5570    9.3250 C.3       1 FK5         0.1451
      3 C3         17.3360   32.4120    8.1180 C.3       1 FK5        -0.0108
      4 C4         16.9890   33.7310    7.4870 C.3       1 FK5        -0.0469
      5 C5         16.3970   34.7020    8.4950 C.3       1 FK5        -0.0321
      6 C6         17.2720   34.8560    9.7260 C.3       1 FK5         0.0369
      7 C8         17.5350   33.2240   11.5450 C.2       1 FK5         0.2152
      8 C9         16.9740   34.1170   12.4130 C.3       1 FK5         0.1981
      9 C10        17.7890   35.1120   13.2100 C.3       1 FK5         0.2148
     10 C11        19.0970   34.5010   13.6960 C.3       1 FK5         0.0176
     11 C12        19.9880   35.6290   14.2530 C.3       1 FK5        -0.0164
     12 C13        20.1300   36.7240   13.2080 C.3       1 FK5         0.0874
     13 C14        18.7450   37.2790   12.9210 C.3       1 FK5         0.1142
     14 C15        18.6890   38.4930   11.9820 C.3       1 FK5         0.0872
     15 C16        19.5150   38.3700   10.6830 C.3       1 FK5        -0.0215
     16 C17        19.3050   39.5640    9.7370 C.3       1 FK5        -0.0412
     17 C18        20.2630   40.7340   10.0420 C.3       1 FK5        -0.0478
     18 C19        21.6460   40.4330    9.4950 C.3       1 FK5        -0.0433
     19 C20        22.6700   39.8760   10.3790 C.3       1 FK5        -0.0453
     20 C21        23.9950   39.3620    9.9190 C.3       1 FK5        -0.0146
     21 C22        23.8240   37.9460    9.4940 C.3       1 FK5         0.0604
     22 C23        23.5680   37.5580    8.0720 C.3       1 FK5         0.0000
     23 C24        23.2190   36.0750    8.0250 C.3       1 FK5         0.0646
     24 C25        21.8380   35.6670    8.6240 C.3       1 FK5         0.0216
     25 C26        21.5570   34.1490    8.5930 C.3       1 FK5         0.1175
     26 C27        22.6140   33.4740    9.3980 C.2       1 FK5        -0.0504
     27 C28        23.5280   32.5510    8.7550 C.2       1 FK5        -0.1031
     28 C29        24.6690   31.9270    9.5170 C.3       1 FK5        -0.0326
     29 C30        24.6130   30.4010    9.3480 C.3       1 FK5        -0.0181
     30 C31        25.8290   29.7650   10.0010 C.3       1 FK5         0.0855
     31 C32        27.0590   30.2730    9.2400 C.3       1 FK5         0.0815
     32 C33        27.1930   31.7840    9.4530 C.3       1 FK5        -0.0231
     33 C34        25.9550   32.5360    8.9780 C.3       1 FK5        -0.0445
     34 C35        18.9030   33.4160   14.7400 C.3       1 FK5        -0.0572
     35 C36        17.8460   40.0410    9.8090 C.3       1 FK5        -0.0623
     36 C37        21.9330   40.7190    8.0550 C.3       1 FK5        -0.0624
     37 C38        24.9810   39.2780   11.0930 C.3       1 FK5        -0.0481
     38 C39        25.4620   40.6480   11.4910 C.3       1 FK5        -0.0556
     39 C40        26.8360   41.0450   11.1860 C.3       1 FK5        -0.0653
     40 C41        20.6350   36.3690    7.9870 C.3       1 FK5        -0.0556
     41 C42        22.7060   33.7730   10.8560 C.3       1 FK5        -0.0376
     42 C43        22.3320   37.1310   13.7480 C.3       1 FK5         0.0369
     43 C44        18.0340   40.2590   13.3870 C.3       1 FK5         0.0369
     44 C45        25.4650   27.7910    8.7800 C.3       1 FK5         0.0369
     45 N7         17.6950   33.5480   10.2510 N.am      1 FK5        -0.2481
     46 O1         20.2950   33.8880    9.1880 O.3       1 FK5        -0.2597
     47 O2         20.1780   31.9580    7.9400 O.2       1 FK5        -0.3676
     48 O3         17.8770   31.9670   12.0460 O.2       1 FK5        -0.3937
     49 O4         15.6000   34.1250   12.5060 O.3       1 FK5        -0.3667
     50 O5         18.0190   36.2150   12.3400 O.3       1 FK5        -0.3359
     51 O6         17.0330   35.5660   14.3550 O.3       1 FK5        -0.3606
     52 O7         21.0410   37.7000   13.6500 O.3       1 FK5        -0.3771
     53 O8         19.0920   39.6430   12.7000 O.3       1 FK5        -0.3771
     54 O9         23.9030   36.9400   10.4620 O.3       1 FK5        -0.3914
     55 O10        23.2690   35.8460    6.6420 O.3       1 FK5        -0.3912
     56 O11        25.6900   28.3550   10.0580 O.3       1 FK5        -0.3771
     57 O12        28.2630   29.6740    9.6640 O.3       1 FK5        -0.3892
     58 H1         18.3009   31.5946    9.8559 H         1 FK5         0.0818
     59 H2         16.4059   31.9225    8.4426 H         1 FK5         0.0314
     60 H3         17.8377   31.7845    7.3667 H         1 FK5         0.0314
     61 H4         16.2559   33.5599    6.6850 H         1 FK5         0.0268
     62 H5         17.9019   34.1729    7.0612 H         1 FK5         0.0268
     63 H6         15.4096   34.3307    8.8066 H         1 FK5         0.0285
     64 H7         16.2843   35.6855    8.0154 H         1 FK5         0.0285
     65 H8         16.7046   35.3875   10.5042 H         1 FK5         0.0524
     66 H9         18.1650   35.4404    9.4596 H         1 FK5         0.0524
     67 H10        17.0517   33.3894   13.2343 H         1 FK5         0.0893
     68 H11        19.6034   34.0468   12.8315 H         1 FK5         0.0353
     69 H12        20.9813   35.2248   14.4981 H         1 FK5         0.0295
     70 H13        19.5275   36.0458   15.1608 H         1 FK5         0.0295
     71 H14        20.5268   36.2853   12.2806 H         1 FK5         0.0623
     72 H15        18.2822   37.5701   13.8755 H         1 FK5         0.0649
     73 H16        17.6385   38.6233   11.6828 H         1 FK5         0.0623
     74 H17        19.2162   37.4492   10.1607 H         1 FK5         0.0294
     75 H18        20.5813   38.3123   10.9470 H         1 FK5         0.0294
     76 H19        19.5069   39.2217    8.7113 H         1 FK5         0.0299
     77 H20        20.3260   40.8781   11.1307 H         1 FK5         0.0270
     78 H21        19.8780   41.6512    9.5724 H         1 FK5         0.0270
     79 H22        21.3262   39.4147    9.2289 H         1 FK5         0.0298
     80 H23        22.1884   39.0324   10.8951 H         1 FK5         0.0271
     81 H24        22.8967   40.6696   11.1062 H         1 FK5         0.0271
     82 H25        24.3910   39.9891    9.1067 H         1 FK5         0.0326
     83 H26        24.9068   37.8733    9.3145 H         1 FK5         0.0597
     84 H27        24.4689   37.7454    7.4693 H         1 FK5         0.0315
     85 H28        22.7301   38.1482    7.6724 H         1 FK5         0.0315
     86 H29        23.9939   35.4935    8.5459 H         1 FK5         0.0599
     87 H30        21.8681   35.9707    9.6808 H         1 FK5         0.0373
     88 H31        21.5694   33.7803    7.5567 H         1 FK5         0.0802
     89 H32        23.3880   32.3042    7.7036 H         1 FK5         0.0246
     90 H33        24.5787   32.1666   10.5868 H         1 FK5         0.0375
     91 H34        24.6023   30.1525    8.2765 H         1 FK5         0.0308
     92 H35        23.6994   30.0144    9.8232 H         1 FK5         0.0308
     93 H36        25.9023   30.1245   11.0380 H         1 FK5         0.0623
     94 H37        26.9174   30.0627    8.1696 H         1 FK5         0.0619
     95 H38        28.0667   32.1464    8.8914 H         1 FK5         0.0292
     96 H39        27.3390   31.9806   10.5254 H         1 FK5         0.0292
     97 H40        26.0224   33.5797    9.3187 H         1 FK5         0.0283
     98 H41        25.9253   32.5103    7.8787 H         1 FK5         0.0283
     99 H42        18.2659   32.6198   14.3273 H         1 FK5         0.0234
    100 H43        18.4217   33.8460   15.6307 H         1 FK5         0.0234
    101 H44        19.8808   32.9959   15.0183 H         1 FK5         0.0234
    102 H45        17.1736   39.1985    9.5899 H         1 FK5         0.0232
    103 H46        17.6847   40.8404    9.0708 H         1 FK5         0.0232
    104 H47        17.6353   40.4255   10.8178 H         1 FK5         0.0232
    105 H48        21.0322   41.1307    7.5764 H         1 FK5         0.0232
    106 H49        22.2249   39.7879    7.5473 H         1 FK5         0.0232
    107 H50        22.7528   41.4488    7.9824 H         1 FK5         0.0232
    108 H51        25.8448   38.6659   10.7945 H         1 FK5         0.0269
    109 H52        24.4788   38.8092   11.9521 H         1 FK5         0.0269
    110 H53        25.3412   40.7253   12.5816 H         1 FK5         0.0263
    111 H54        24.8015   41.3753   10.9964 H         1 FK5         0.0263
    112 H55        27.0103   42.0694   11.5467 H         1 FK5         0.0230
    113 H56        26.9958   41.0071   10.0983 H         1 FK5         0.0230
    114 H57        27.5355   40.3571   11.6836 H         1 FK5         0.0230
    115 H58        20.8004   37.4565    7.9916 H         1 FK5         0.0236
    116 H59        19.7268   36.1338    8.5613 H         1 FK5         0.0236
    117 H60        20.5139   36.0210    6.9506 H         1 FK5         0.0236
    118 H61        23.5326   33.1966   11.2970 H         1 FK5         0.0376
    119 H62        21.7620   33.4951   11.3476 H         1 FK5         0.0376
    120 H63        22.8914   34.8478   10.9989 H         1 FK5         0.0376
    121 H64        23.0440   37.8948   14.0937 H         1 FK5         0.0524
    122 H65        22.6444   36.7584   12.7613 H         1 FK5         0.0524
    123 H66        22.3118   36.2972   14.4652 H         1 FK5         0.0524
    124 H67        18.4102   41.1428   13.9230 H         1 FK5         0.0524
    125 H68        17.6023   39.5492   14.1080 H         1 FK5         0.0524
    126 H69        17.2606   40.5678   12.6684 H         1 FK5         0.0524
    127 H70        25.3638   26.6997    8.8735 H         1 FK5         0.0524
    128 H71        26.3141   28.0254    8.1211 H         1 FK5         0.0524
    129 H72        24.5422   28.2094    8.3519 H         1 FK5         0.0524
    130 H73        15.3437   33.9652   13.4068 H         1 FK5         0.2135
    131 H74        16.2025   35.9234   14.0633 H         1 FK5         0.2130
    132 H75        24.0680   37.3318   11.3116 H         1 FK5         0.2098
    133 H76        22.5925   36.3566    6.2130 H         1 FK5         0.2098
    134 H77        28.2073   28.7334    9.5426 H         1 FK5         0.2099
@<TRIPOS>BOND
     1    2    1 1  
     2    1   46 1  
     3    1   47 2  
     4    2    3 1  
     5   45    2 1  
     6    3    4 1  
     7    5    4 1  
     8    6    5 1  
     9   45    6 1  
    10    7    8 1  
    11    7   45 am 
    12    7   48 2  
    13    8    9 1  
    14    8   49 1  
    15    9   10 1  
    16    9   50 1  
    17    9   51 1  
    18   10   11 1  
    19   10   34 1  
    20   11   12 1  
    21   12   13 1  
    22   12   52 1  
    23   13   14 1  
    24   13   50 1  
    25   14   15 1  
    26   14   53 1  
    27   15   16 1  
    28   16   17 1  
    29   16   35 1  
    30   17   18 1  
    31   18   19 1  
    32   18   36 1  
    33   19   20 1  
    34   20   21 1  
    35   20   37 1  
    36   21   22 1  
    37   21   54 1  
    38   22   23 1  
    39   23   24 1  
    40   23   55 1  
    41   24   25 1  
    42   24   40 1  
    43   25   26 1  
    44   25   46 1  
    45   26   27 2  
    46   26   41 1  
    47   27   28 1  
    48   28   29 1  
    49   28   33 1  
    50   29   30 1  
    51   30   31 1  
    52   30   56 1  
    53   31   32 1  
    54   31   57 1  
    55   32   33 1  
    56   37   38 1  
    57   38   39 1  
    58   52   42 1  
    59   53   43 1  
    60   56   44 1  
    61    2   58 1  
    62    3   59 1  
    63    3   60 1  
    64    4   61 1  
    65    4   62 1  
    66    5   63 1  
    67    5   64 1  
    68    6   65 1  
    69    6   66 1  
    70    8   67 1  
    71   10   68 1  
    72   11   69 1  
    73   11   70 1  
    74   12   71 1  
    75   13   72 1  
    76   14   73 1  
    77   15   74 1  
    78   15   75 1  
    79   16   76 1  
    80   17   77 1  
    81   17   78 1  
    82   18   79 1  
    83   19   80 1  
    84   19   81 1  
    85   20   82 1  
    86   21   83 1  
    87   22   84 1  
    88   22   85 1  
    89   23   86 1  
    90   24   87 1  
    91   25   88 1  
    92   27   89 1  
    93   28   90 1  
    94   29   91 1  
    95   29   92 1  
    96   30   93 1  
    97   31   94 1  
    98   32   95 1  
    99   32   96 1  
   100   33   97 1  
   101   33   98 1  
   102   34   99 1  
   103   34  100 1  
   104   34  101 1  
   105   35  102 1  
   106   35  103 1  
   107   35  104 1  
   108   36  105 1  
   109   36  106 1  
   110   36  107 1  
   111   37  108 1  
   112   37  109 1  
   113   38  110 1  
   114   38  111 1  
   115   39  112 1  
   116   39  113 1  
   117   39  114 1  
   118   40  115 1  
   119   40  116 1  
   120   40  117 1  
   121   41  118 1  
   122   41  119 1  
   123   41  120 1  
   124   42  121 1  
   125   42  122 1  
   126   42  123 1  
   127   43  124 1  
   128   43  125 1  
   129   43  126 1  
   130   44  127 1  
   131   44  128 1  
   132   44  129 1  
   133   49  130 1  
   134   51  131 1  
   135   54  132 1  
   136   55  133 1  
   137   57  134 1  
@<TRIPOS>SUBSTRUCTURE
     1 FK5         1

