### 
### Created by X-TOOL on Mon Sep 10 21:13:18 2018
### 

@<TRIPOS>MOLECULE
4nnw_ligand
   80    80     1     0     0
SMALL
GAST_HUCK


@<TRIPOS>ATOM
      1 C27        58.9940 -135.5500   35.2480 C.2       1 2MK         0.3239
      2 O36        58.9060 -136.7710   35.3980 O.2       1 2MK        -0.3773
      3 O28        57.9450 -134.8150   34.7500 O.3       1 2MK        -0.2506
      4 C29        56.9690 -135.5200   33.9920 C.3       1 2MK         0.1113
      5 C30        55.7050 -135.1170   34.4730 C.ar      1 2MK        -0.0130
      6 C35        55.4290 -135.1310   35.8440 C.ar      1 2MK        -0.0578
      7 C34        54.1750 -134.7410   36.3170 C.ar      1 2MK        -0.0685
      8 C33        53.1830 -134.3380   35.4270 C.ar      1 2MK        -0.0687
      9 C32        53.4470 -134.3270   34.0600 C.ar      1 2MK        -0.0685
     10 C31        54.6990 -134.7170   33.5870 C.ar      1 2MK        -0.0578
     11 N26        60.1280 -134.9130   35.5960 N.am      1 2MK        -0.2411
     12 C25        61.2850 -135.6220   36.1730 C.3       1 2MK         0.1331
     13 C24        60.9830 -135.9140   37.6480 C.2       1 2MK         0.2039
     14 O41        60.3690 -135.0880   38.3240 O.2       1 2MK        -0.3944
     15 C37        62.5330 -134.7410   36.0930 C.3       1 2MK        -0.0101
     16 C38        62.9730 -134.5450   34.6370 C.3       1 2MK        -0.0425
     17 C39        63.8930 -135.6900   34.2160 C.3       1 2MK        -0.0625
     18 C40        63.7220 -133.2160   34.5030 C.3       1 2MK        -0.0625
     19 N23        61.4200 -137.0960   38.1200 N.am      1 2MK        -0.2637
     20 C22        61.1940 -137.5030   39.5210 C.3       1 2MK         0.1311
     21 C21        62.4760 -137.2640   40.3300 C.2       1 2MK         0.2020
     22 O46        63.5870 -137.3710   39.8150 O.2       1 2MK        -0.3945
     23 C42        60.7570 -138.9710   39.5810 C.3       1 2MK        -0.0101
     24 C43        59.5910 -139.1460   40.5690 C.3       1 2MK        -0.0425
     25 C44        59.3290 -140.6470   40.7440 C.3       1 2MK        -0.0625
     26 C45        58.3210 -138.4430   40.0530 C.3       1 2MK        -0.0625
     27 C13        64.3180 -134.1400   42.3080 C.3       1 2MK        -0.0446
     28 C9         63.7650 -138.7400   43.6890 C.3       1 2MK        -0.0368
     29 C1         63.2360 -137.2920   43.8530 C.3       1 2MK         0.0753
     30 O10        61.8510 -137.2850   44.2790 O.3       1 2MK        -0.3898
     31 C11        63.3370 -136.5260   42.5190 C.3       1 2MK         0.0679
     32 C12        63.1170 -135.0060   42.7020 C.3       1 2MK        -0.0251
     33 C47        63.9170 -132.6610   42.4510 C.3       1 2MK        -0.0626
     34 C19        64.7640 -134.4280   40.8640 C.3       1 2MK        -0.0626
     35 N20        62.2610 -136.9220   41.6070 N.am      1 2MK        -0.2795
     36 H1         57.0965 -136.6042   34.1266 H         1 2MK         0.0776
     37 H2         57.0651 -135.2691   32.9253 H         1 2MK         0.0776
     38 H3         56.1941 -135.4468   36.5440 H         1 2MK         0.0557
     39 H4         53.9726 -134.7519   37.3819 H         1 2MK         0.0599
     40 H5         52.2102 -134.0344   35.7965 H         1 2MK         0.0559
     41 H6         52.6780 -134.0148   33.3626 H         1 2MK         0.0599
     42 H7         54.8952 -134.7102   32.5209 H         1 2MK         0.0557
     43 H8         60.1877 -133.9243   35.4583 H         1 2MK         0.1899
     44 H9         61.4573 -136.5620   35.6283 H         1 2MK         0.0799
     45 H10        63.3487 -135.2204   36.6541 H         1 2MK         0.0315
     46 H11        62.3099 -133.7596   36.5369 H         1 2MK         0.0315
     47 H12        62.0858 -134.5320   33.9869 H         1 2MK         0.0298
     48 H13        64.2053 -135.5442   33.1714 H         1 2MK         0.0232
     49 H14        63.3553 -136.6452   34.3080 H         1 2MK         0.0232
     50 H15        64.7807 -135.7048   34.8654 H         1 2MK         0.0232
     51 H16        63.0610 -132.3905   34.8057 H         1 2MK         0.0232
     52 H17        64.0314 -133.0733   33.4571 H         1 2MK         0.0232
     53 H18        64.6115 -133.2295   35.1499 H         1 2MK         0.0232
     54 H19        61.9104 -137.7145   37.5060 H         1 2MK         0.1883
     55 H20        60.3904 -136.8837   39.9461 H         1 2MK         0.0800
     56 H21        61.6059 -139.5883   39.9100 H         1 2MK         0.0315
     57 H22        60.4349 -139.2940   38.5801 H         1 2MK         0.0315
     58 H23        59.8699 -138.7087   41.5390 H         1 2MK         0.0298
     59 H24        58.4970 -140.7943   41.4483 H         1 2MK         0.0232
     60 H25        60.2334 -141.1336   41.1380 H         1 2MK         0.0232
     61 H26        59.0686 -141.0897   39.7712 H         1 2MK         0.0232
     62 H27        58.5206 -137.3681   39.9314 H         1 2MK         0.0232
     63 H28        57.5041 -138.5847   40.7758 H         1 2MK         0.0232
     64 H29        58.0315 -138.8741   39.0833 H         1 2MK         0.0232
     65 H30        65.1559 -134.3572   42.9867 H         1 2MK         0.0296
     66 H31        64.8161 -138.7119   43.3657 H         1 2MK         0.0255
     67 H32        63.1632 -139.2670   42.9340 H         1 2MK         0.0255
     68 H33        63.6912 -139.2685   44.6509 H         1 2MK         0.0255
     69 H34        63.8467 -136.7793   44.6108 H         1 2MK         0.0613
     70 H35        61.5538 -136.3874   44.3712 H         1 2MK         0.2099
     71 H36        64.3210 -136.7204   42.0674 H         1 2MK         0.0581
     72 H37        62.2587 -134.7058   42.0830 H         1 2MK         0.0291
     73 H38        62.8892 -134.8166   43.7613 H         1 2MK         0.0291
     74 H39        64.7677 -132.0219   42.1721 H         1 2MK         0.0232
     75 H40        63.6319 -132.4575   43.4937 H         1 2MK         0.0232
     76 H41        63.0648 -132.4465   41.7893 H         1 2MK         0.0232
     77 H42        65.0483 -135.4867   40.7723 H         1 2MK         0.0232
     78 H43        65.6270 -133.7936   40.6133 H         1 2MK         0.0232
     79 H44        63.9357 -134.2097   40.1739 H         1 2MK         0.0232
     80 H45        61.3232 -136.9377   41.9538 H         1 2MK         0.1855
@<TRIPOS>BOND
     1    1    2 2  
     2    1    3 1  
     3   11    1 am 
     4    3    4 1  
     5    4    5 1  
     6    5    6 ar 
     7    5   10 ar 
     8    6    7 ar 
     9    7    8 ar 
    10    9    8 ar 
    11   10    9 ar 
    12   12   11 1  
    13   13   12 1  
    14   12   15 1  
    15   13   14 2  
    16   19   13 am 
    17   15   16 1  
    18   16   17 1  
    19   16   18 1  
    20   20   19 1  
    21   21   20 1  
    22   20   23 1  
    23   21   22 2  
    24   35   21 am 
    25   23   24 1  
    26   24   25 1  
    27   24   26 1  
    28   32   27 1  
    29   27   33 1  
    30   27   34 1  
    31   29   28 1  
    32   29   30 1  
    33   31   29 1  
    34   31   32 1  
    35   31   35 1  
    36    4   36 1  
    37    4   37 1  
    38    6   38 1  
    39    7   39 1  
    40    8   40 1  
    41    9   41 1  
    42   10   42 1  
    43   11   43 1  
    44   12   44 1  
    45   15   45 1  
    46   15   46 1  
    47   16   47 1  
    48   17   48 1  
    49   17   49 1  
    50   17   50 1  
    51   18   51 1  
    52   18   52 1  
    53   18   53 1  
    54   19   54 1  
    55   20   55 1  
    56   23   56 1  
    57   23   57 1  
    58   24   58 1  
    59   25   59 1  
    60   25   60 1  
    61   25   61 1  
    62   26   62 1  
    63   26   63 1  
    64   26   64 1  
    65   27   65 1  
    66   28   66 1  
    67   28   67 1  
    68   28   68 1  
    69   29   69 1  
    70   30   70 1  
    71   31   71 1  
    72   32   72 1  
    73   32   73 1  
    74   33   74 1  
    75   33   75 1  
    76   33   76 1  
    77   34   77 1  
    78   34   78 1  
    79   34   79 1  
    80   35   80 1  
@<TRIPOS>SUBSTRUCTURE
     1 2MK         1

