### 
### Created by X-TOOL on Mon Sep 10 21:13:17 2018
### 

@<TRIPOS>MOLECULE
4no6_ligand
   85    85     1     0     0
SMALL
GAST_HUCK


@<TRIPOS>ATOM
      1 C7         11.0090 -137.2580   21.7010 C.2       1 2M1         0.3239
      2 O8         11.4400 -138.3220   21.2530 O.2       1 2M1        -0.3773
      3 O6         11.3630 -136.8600   22.9580 O.3       1 2M1        -0.2506
      4 C5         12.7600 -136.6880   23.1160 C.3       1 2M1         0.1113
      5 C4         12.9420 -136.3160   24.4640 C.ar      1 2M1        -0.0130
      6 C32        12.5550 -137.1780   25.4960 C.ar      1 2M1        -0.0578
      7 C33        12.7320 -136.8160   26.8320 C.ar      1 2M1        -0.0685
      8 C1         13.3010 -135.5830   27.1480 C.ar      1 2M1        -0.0687
      9 C2         13.6920 -134.7180   26.1260 C.ar      1 2M1        -0.0685
     10 C3         13.5150 -135.0810   24.7900 C.ar      1 2M1        -0.0578
     11 N9         10.1750 -136.4900   20.9680 N.am      1 2M1        -0.2411
     12 C10         9.7150 -136.8890   19.6220 C.3       1 2M1         0.1331
     13 C15        10.7930 -136.6880   18.5610 C.2       1 2M1         0.2039
     14 O31        11.5300 -135.7020   18.5720 O.2       1 2M1        -0.3944
     15 C11         8.4930 -136.0710   19.1910 C.3       1 2M1        -0.0101
     16 C12         7.2510 -136.4230   20.0190 C.3       1 2M1        -0.0425
     17 C13         6.0410 -135.7200   19.3990 C.3       1 2M1        -0.0625
     18 C14         6.9800 -137.9280   20.0550 C.3       1 2M1        -0.0625
     19 N16        10.7940 -137.6550   17.6290 N.am      1 2M1        -0.2637
     20 C17        11.7270 -137.6930   16.5050 C.3       1 2M1         0.1311
     21 C22        10.9230 -137.7320   15.2050 C.2       1 2M1         0.2019
     22 O23        10.0250 -138.5550   15.0510 O.2       1 2M1        -0.3945
     23 C18        12.5310 -138.9960   16.6320 C.3       1 2M1        -0.0101
     24 C19        14.0320 -138.7860   16.8770 C.3       1 2M1        -0.0425
     25 C20        14.3180 -137.6780   17.9010 C.3       1 2M1        -0.0625
     26 C21        14.6010 -140.1050   17.4110 C.3       1 2M1        -0.0625
     27 C26        12.8910 -137.4510   12.0250 C.3       1 2M1         0.0675
     28 C28        10.0610 -134.3110   13.3790 C.3       1 2M1        -0.0446
     29 C41        11.3710 -137.7440   12.0040 C.3       1 2M1        -0.0105
     30 S42        13.9190 -138.9670   12.1490 S.o2      1 2M1        -0.0337
     31 O43        13.9960 -139.6870   10.8010 O.2       1 2M1        -0.1746
     32 O44        13.3180 -139.8980   13.1960 O.2       1 2M1        -0.1746
     33 C45        15.5660 -138.5160   12.6530 C.3       1 2M1         0.0544
     34 C25        10.6190 -136.7850   12.9570 C.3       1 2M1         0.0438
     35 C27        10.6080 -135.3520   12.3810 C.3       1 2M1        -0.0275
     36 C30        10.1290 -132.9190   12.7340 C.3       1 2M1        -0.0626
     37 C29         8.6110 -134.6180   13.7760 C.3       1 2M1        -0.0626
     38 N24        11.2730 -136.8310   14.2800 N.am      1 2M1        -0.2819
     39 H1         13.1286 -135.8976   22.4457 H         1 2M1         0.0776
     40 H2         13.2901 -137.6276   22.9013 H         1 2M1         0.0776
     41 H3         12.1127 -138.1379   25.2550 H         1 2M1         0.0557
     42 H4         12.4277 -137.4922   27.6227 H         1 2M1         0.0599
     43 H5         13.4391 -135.2975   28.1846 H         1 2M1         0.0559
     44 H6         14.1353 -133.7595   26.3705 H         1 2M1         0.0599
     45 H7         13.8225 -134.4038   24.0014 H         1 2M1         0.0557
     46 H8          9.8579 -135.6216   21.3491 H         1 2M1         0.1899
     47 H9          9.4420 -137.9541   19.6550 H         1 2M1         0.0799
     48 H10         8.2836 -136.2755   18.1307 H         1 2M1         0.0315
     49 H11         8.7163 -135.0018   19.3211 H         1 2M1         0.0315
     50 H12         7.3976 -136.0651   21.0488 H         1 2M1         0.0298
     51 H13         5.1391 -135.9612   19.9806 H         1 2M1         0.0232
     52 H14         5.9104 -136.0614   18.3615 H         1 2M1         0.0232
     53 H15         6.2039 -134.6322   19.4093 H         1 2M1         0.0232
     54 H16         7.8432 -138.4454   20.4990 H         1 2M1         0.0232
     55 H17         6.8188 -138.2962   19.0311 H         1 2M1         0.0232
     56 H18         6.0832 -138.1247   20.6609 H         1 2M1         0.0232
     57 H19        10.1195 -138.3890   17.7086 H         1 2M1         0.1883
     58 H20        12.3943 -136.8187   16.5194 H         1 2M1         0.0800
     59 H21        12.4100 -139.5686   15.7006 H         1 2M1         0.0315
     60 H22        12.1214 -139.5739   17.4736 H         1 2M1         0.0315
     61 H23        14.5189 -138.5255   15.9256 H         1 2M1         0.0298
     62 H24        15.4049 -137.5739   18.0346 H         1 2M1         0.0232
     63 H25        13.8537 -137.9394   18.8634 H         1 2M1         0.0232
     64 H26        13.9004 -136.7271   17.5386 H         1 2M1         0.0232
     65 H27        14.4035 -140.9093   16.6871 H         1 2M1         0.0232
     66 H28        14.1217 -140.3494   18.3704 H         1 2M1         0.0232
     67 H29        15.6863 -140.0031   17.5587 H         1 2M1         0.0232
     68 H30        13.1110 -136.8079   12.8899 H         1 2M1         0.0500
     69 H31        13.1579 -136.9227   11.0978 H         1 2M1         0.0500
     70 H32        10.6860 -134.3233   14.2841 H         1 2M1         0.0296
     71 H33        11.1983 -138.7818   12.3251 H         1 2M1         0.0303
     72 H34        10.9907 -137.6086   10.9808 H         1 2M1         0.0303
     73 H35        16.1869 -139.4209   12.7290 H         1 2M1         0.0464
     74 H36        15.5259 -138.0156   13.6318 H         1 2M1         0.0464
     75 H37        16.0029 -137.8330   11.9096 H         1 2M1         0.0464
     76 H38         9.5786 -137.1262   13.0628 H         1 2M1         0.0556
     77 H39        11.6375 -135.0736   12.1117 H         1 2M1         0.0290
     78 H40         9.9773 -135.3403   11.4799 H         1 2M1         0.0290
     79 H41         9.7407 -132.1690   13.4388 H         1 2M1         0.0232
     80 H42         9.5215 -132.9097   11.8171 H         1 2M1         0.0232
     81 H43        11.1735 -132.6812   12.4843 H         1 2M1         0.0232
     82 H44         8.5606 -135.6149   14.2382 H         1 2M1         0.0232
     83 H45         7.9731 -134.5966   12.8801 H         1 2M1         0.0232
     84 H46         8.2597 -133.8627   14.4943 H         1 2M1         0.0232
     85 H47        11.9955 -136.1723   14.4899 H         1 2M1         0.1854
@<TRIPOS>BOND
     1    1    2 2  
     2    1    3 1  
     3   11    1 am 
     4    3    4 1  
     5    4    5 1  
     6    5    6 ar 
     7    5   10 ar 
     8    6    7 ar 
     9    7    8 ar 
    10    9    8 ar 
    11   10    9 ar 
    12   12   11 1  
    13   13   12 1  
    14   12   15 1  
    15   13   14 2  
    16   19   13 am 
    17   15   16 1  
    18   16   17 1  
    19   16   18 1  
    20   20   19 1  
    21   21   20 1  
    22   20   23 1  
    23   21   22 2  
    24   38   21 am 
    25   23   24 1  
    26   24   25 1  
    27   24   26 1  
    28   29   27 1  
    29   27   30 1  
    30   35   28 1  
    31   28   36 1  
    32   28   37 1  
    33   34   29 1  
    34   30   31 2  
    35   30   32 2  
    36   30   33 1  
    37   34   35 1  
    38   34   38 1  
    39    4   39 1  
    40    4   40 1  
    41    6   41 1  
    42    7   42 1  
    43    8   43 1  
    44    9   44 1  
    45   10   45 1  
    46   11   46 1  
    47   12   47 1  
    48   15   48 1  
    49   15   49 1  
    50   16   50 1  
    51   17   51 1  
    52   17   52 1  
    53   17   53 1  
    54   18   54 1  
    55   18   55 1  
    56   18   56 1  
    57   19   57 1  
    58   20   58 1  
    59   23   59 1  
    60   23   60 1  
    61   24   61 1  
    62   25   62 1  
    63   25   63 1  
    64   25   64 1  
    65   26   65 1  
    66   26   66 1  
    67   26   67 1  
    68   27   68 1  
    69   27   69 1  
    70   28   70 1  
    71   29   71 1  
    72   29   72 1  
    73   33   73 1  
    74   33   74 1  
    75   33   75 1  
    76   34   76 1  
    77   35   77 1  
    78   35   78 1  
    79   36   79 1  
    80   36   80 1  
    81   36   81 1  
    82   37   82 1  
    83   37   83 1  
    84   37   84 1  
    85   38   85 1  
@<TRIPOS>SUBSTRUCTURE
     1 2M1         1

