### 
### Created by X-TOOL on Mon Sep 10 21:13:18 2018
### 

@<TRIPOS>MOLECULE
4no8_ligand
   91    92     1     0     0
SMALL
GAST_HUCK


@<TRIPOS>ATOM
      1 C7         10.8910 -137.1200   22.0140 C.2       1 2LV         0.3239
      2 O8         11.3710 -138.2320   21.7840 O.2       1 2LV        -0.3773
      3 O6         11.1680 -136.4750   23.1870 O.3       1 2LV        -0.2506
      4 C5         12.5540 -136.4170   23.5760 C.3       1 2LV         0.1113
      5 C4         12.6450 -136.5540   24.9660 C.ar      1 2LV        -0.0130
      6 C3         12.2960 -137.7640   25.5710 C.ar      1 2LV        -0.0578
      7 C2         12.3810 -137.9150   26.9550 C.ar      1 2LV        -0.0685
      8 C1         12.8170 -136.8500   27.7420 C.ar      1 2LV        -0.0687
      9 C43        13.1660 -135.6400   27.1440 C.ar      1 2LV        -0.0685
     10 C42        13.0810 -135.4900   25.7590 C.ar      1 2LV        -0.0578
     11 N9         10.0610 -136.5410   21.1260 N.am      1 2LV        -0.2411
     12 C10         9.6910 -137.1970   19.8590 C.3       1 2LV         0.1331
     13 C15        10.7810 -137.0120   18.8060 C.2       1 2LV         0.2039
     14 O41        11.4620 -135.9890   18.7650 O.2       1 2LV        -0.3944
     15 C11         8.3990 -136.5930   19.2920 C.3       1 2LV        -0.0101
     16 C12         7.2140 -136.7710   20.2480 C.3       1 2LV        -0.0425
     17 C13         5.9530 -136.2280   19.5700 C.3       1 2LV        -0.0625
     18 C14         7.0040 -138.2470   20.6050 C.3       1 2LV        -0.0625
     19 N16        10.8830 -138.0380   17.9480 N.am      1 2LV        -0.2637
     20 C17        11.8360 -138.0630   16.8330 C.3       1 2LV         0.1311
     21 C22        11.0040 -138.0860   15.5540 C.2       1 2LV         0.2021
     22 O23         9.9980 -138.7890   15.4890 O.2       1 2LV        -0.3945
     23 C18        12.6890 -139.3370   16.9290 C.3       1 2LV        -0.0101
     24 C19        14.1590 -138.9900   17.1940 C.3       1 2LV        -0.0425
     25 C20        14.3390 -138.4760   18.6330 C.3       1 2LV        -0.0625
     26 C21        15.0120 -140.2470   16.9780 C.3       1 2LV        -0.0625
     27 C30        11.2290 -138.3660   12.3290 C.3       1 2LV         0.1720
     28 O31        10.7600 -139.6230   12.8230 O.3       1 2LV        -0.3685
     29 C25        10.6980 -137.2590   13.2720 C.3       1 2LV         0.0858
     30 C26        10.8030 -135.8980   12.6100 C.3       1 2LV        -0.0229
     31 C27        10.2640 -134.7970   13.5630 C.3       1 2LV        -0.0444
     32 C28        10.1540 -133.5060   12.7880 C.3       1 2LV        -0.0626
     33 C29         8.8810 -135.0940   14.1100 C.3       1 2LV        -0.0626
     34 N24        11.4300 -137.3020   14.5510 N.am      1 2LV        -0.2772
     35 C32        12.7780 -138.4090   12.2930 C.2       1 2LV         0.2348
     36 O33        13.4380 -137.3740   12.2050 O.2       1 2LV        -0.3819
     37 C35        14.6310 -139.8460   12.3090 C.ar      1 2LV         0.0663
     38 C36        15.4780 -139.2060   11.3940 C.ar      1 2LV        -0.0413
     39 C37        16.8490 -139.4570   11.4160 C.ar      1 2LV        -0.0755
     40 C38        17.3810 -140.3560   12.3400 C.ar      1 2LV        -0.0772
     41 C39        16.5400 -141.0020   13.2460 C.ar      1 2LV        -0.0755
     42 C40        15.1710 -140.7500   13.2240 C.ar      1 2LV        -0.0413
     43 N34        13.3050 -139.6550   12.3340 N.am      1 2LV        -0.2317
     44 H1         12.9818 -135.4502   23.2723 H         1 2LV         0.0776
     45 H2         13.1080 -137.2326   23.0883 H         1 2LV         0.0776
     46 H3         11.9564 -138.5923   24.9598 H         1 2LV         0.0557
     47 H4         12.1090 -138.8571   27.4171 H         1 2LV         0.0599
     48 H5         12.8846 -136.9627   28.8180 H         1 2LV         0.0559
     49 H6         13.5046 -134.8126   27.7570 H         1 2LV         0.0599
     50 H7         13.3535 -134.5473   25.2985 H         1 2LV         0.0557
     51 H8          9.6839 -135.6381   21.3324 H         1 2LV         0.1899
     52 H9          9.5425 -138.2706   20.0468 H         1 2LV         0.0799
     53 H10         8.1637 -137.0888   18.3387 H         1 2LV         0.0315
     54 H11         8.5561 -135.5184   19.1175 H         1 2LV         0.0315
     55 H12         7.4075 -136.2043   21.1707 H         1 2LV         0.0298
     56 H13         5.0928 -136.3490   20.2449 H         1 2LV         0.0232
     57 H14         5.7692 -136.7836   18.6386 H         1 2LV         0.0232
     58 H15         6.0910 -135.1613   19.3395 H         1 2LV         0.0232
     59 H16         7.9091 -138.6387   21.0922 H         1 2LV         0.0232
     60 H17         6.8034 -138.8210   19.6884 H         1 2LV         0.0232
     61 H18         6.1489 -138.3404   21.2906 H         1 2LV         0.0232
     62 H19        10.2793 -138.8251   18.0747 H         1 2LV         0.1883
     63 H20        12.4840 -137.1744   16.8553 H         1 2LV         0.0800
     64 H21        12.6147 -139.8928   15.9827 H         1 2LV         0.0315
     65 H22        12.3121 -139.9621   17.7519 H         1 2LV         0.0315
     66 H23        14.4791 -138.2071   16.4907 H         1 2LV         0.0298
     67 H24        15.3977 -138.2322   18.8055 H         1 2LV         0.0232
     68 H25        14.0216 -139.2541   19.3427 H         1 2LV         0.0232
     69 H26        13.7265 -137.5741   18.7795 H         1 2LV         0.0232
     70 H27        14.8781 -140.6083   15.9477 H         1 2LV         0.0232
     71 H28        14.6978 -141.0293   17.6846 H         1 2LV         0.0232
     72 H29        16.0716 -140.0046   17.1467 H         1 2LV         0.0232
     73 H30        10.8471 -138.1923   11.3122 H         1 2LV         0.0866
     74 H31        11.0857 -139.7567   13.7053 H         1 2LV         0.2134
     75 H32         9.6356 -137.4569   13.4772 H         1 2LV         0.0608
     76 H33        10.2112 -135.8980   11.6828 H         1 2LV         0.0292
     77 H34        11.8566 -135.6894   12.3725 H         1 2LV         0.0292
     78 H35        10.9662 -134.6783   14.4013 H         1 2LV         0.0296
     79 H36         9.7730 -132.7132   13.4485 H         1 2LV         0.0232
     80 H37         9.4629 -133.6431   11.9433 H         1 2LV         0.0232
     81 H38        11.1460 -133.2210   12.4076 H         1 2LV         0.0232
     82 H39         8.9080 -136.0307   14.6861 H         1 2LV         0.0232
     83 H40         8.1711 -135.1968   13.2761 H         1 2LV         0.0232
     84 H41         8.5608 -134.2700   14.7646 H         1 2LV         0.0232
     85 H42        12.2502 -136.7429   14.6723 H         1 2LV         0.1857
     86 H43        15.0662 -138.5145   10.6678 H         1 2LV         0.0502
     87 H44        17.5028 -138.9526   10.7137 H         1 2LV         0.0577
     88 H45        18.4470 -140.5525   12.3541 H         1 2LV         0.0487
     89 H46        16.9519 -141.6995   13.9664 H         1 2LV         0.0577
     90 H47        14.5192 -141.2605   13.9237 H         1 2LV         0.0502
     91 H48        12.6949 -140.4458   12.3838 H         1 2LV         0.2257
@<TRIPOS>BOND
     1    1    2 2  
     2    1    3 1  
     3   11    1 am 
     4    3    4 1  
     5    4    5 1  
     6    5    6 ar 
     7    5   10 ar 
     8    6    7 ar 
     9    7    8 ar 
    10    9    8 ar 
    11   10    9 ar 
    12   12   11 1  
    13   13   12 1  
    14   12   15 1  
    15   13   14 2  
    16   19   13 am 
    17   15   16 1  
    18   16   17 1  
    19   16   18 1  
    20   20   19 1  
    21   21   20 1  
    22   20   23 1  
    23   21   22 2  
    24   34   21 am 
    25   23   24 1  
    26   24   25 1  
    27   24   26 1  
    28   27   28 1  
    29   27   29 1  
    30   35   27 1  
    31   29   30 1  
    32   29   34 1  
    33   30   31 1  
    34   31   32 1  
    35   31   33 1  
    36   35   36 2  
    37   43   35 am 
    38   37   38 ar 
    39   37   42 ar 
    40   37   43 1  
    41   38   39 ar 
    42   39   40 ar 
    43   40   41 ar 
    44   41   42 ar 
    45    4   44 1  
    46    4   45 1  
    47    6   46 1  
    48    7   47 1  
    49    8   48 1  
    50    9   49 1  
    51   10   50 1  
    52   11   51 1  
    53   12   52 1  
    54   15   53 1  
    55   15   54 1  
    56   16   55 1  
    57   17   56 1  
    58   17   57 1  
    59   17   58 1  
    60   18   59 1  
    61   18   60 1  
    62   18   61 1  
    63   19   62 1  
    64   20   63 1  
    65   23   64 1  
    66   23   65 1  
    67   24   66 1  
    68   25   67 1  
    69   25   68 1  
    70   25   69 1  
    71   26   70 1  
    72   26   71 1  
    73   26   72 1  
    74   27   73 1  
    75   28   74 1  
    76   29   75 1  
    77   30   76 1  
    78   30   77 1  
    79   31   78 1  
    80   32   79 1  
    81   32   80 1  
    82   32   81 1  
    83   33   82 1  
    84   33   83 1  
    85   33   84 1  
    86   34   85 1  
    87   38   86 1  
    88   39   87 1  
    89   40   88 1  
    90   41   89 1  
    91   42   90 1  
    92   43   91 1  
@<TRIPOS>SUBSTRUCTURE
     1 2LV         1

