### 
### Created by X-TOOL on Mon Sep 10 21:13:17 2018
### 

@<TRIPOS>MOLECULE
4no9_ligand
   87    87     1     0     0
SMALL
GAST_HUCK


@<TRIPOS>ATOM
      1 C7         58.8890 -135.3130   34.3600 C.2       1 2L0         0.3239
      2 O8         58.7430 -136.5100   34.6140 O.2       1 2L0        -0.3773
      3 O6         57.9330 -134.6240   33.6620 O.3       1 2L0        -0.2506
      4 C5         56.7830 -135.3700   33.2100 C.3       1 2L0         0.1113
      5 C4         55.7010 -135.1490   34.0680 C.ar      1 2L0        -0.0130
      6 C3         54.7510 -134.1720   33.7660 C.ar      1 2L0        -0.0578
      7 C2         53.6700 -133.9500   34.6170 C.ar      1 2L0        -0.0685
      8 C1         53.5330 -134.7080   35.7790 C.ar      1 2L0        -0.0687
      9 C32        54.4780 -135.6860   36.0850 C.ar      1 2L0        -0.0685
     10 C31        55.5590 -135.9070   35.2320 C.ar      1 2L0        -0.0578
     11 N9         59.9990 -134.6680   34.7720 N.am      1 2L0        -0.2411
     12 C10        61.0620 -135.3510   35.5350 C.3       1 2L0         0.1331
     13 C15        60.5990 -135.5740   36.9790 C.2       1 2L0         0.2039
     14 O30        59.9240 -134.7240   37.5590 O.2       1 2L0        -0.3944
     15 C11        62.3430 -134.5060   35.5800 C.3       1 2L0        -0.0101
     16 C12        62.9630 -134.3060   34.1900 C.3       1 2L0        -0.0425
     17 C13        64.2110 -133.4280   34.3350 C.3       1 2L0        -0.0625
     18 C14        63.3590 -135.6480   33.5650 C.3       1 2L0        -0.0625
     19 N16        60.9960 -136.7390   37.5240 N.am      1 2L0        -0.2637
     20 C17        60.6570 -137.1190   38.9100 C.3       1 2L0         0.1311
     21 C22        61.9090 -136.9600   39.7800 C.2       1 2L0         0.2020
     22 O23        63.0000 -136.7060   39.2710 O.2       1 2L0        -0.3945
     23 C18        60.1060 -138.5490   38.9430 C.3       1 2L0        -0.0101
     24 C19        58.5720 -138.5160   39.0170 C.3       1 2L0        -0.0425
     25 C20        57.9800 -137.7820   37.8070 C.3       1 2L0        -0.0625
     26 C21        58.0510 -139.9540   39.0320 C.3       1 2L0        -0.0625
     27 N24        61.6970 -137.0850   41.1030 N.am      1 2L0        -0.2795
     28 C25        62.7630 -136.8260   42.0790 C.3       1 2L0         0.0685
     29 C26        62.5030 -135.3500   42.4730 C.3       1 2L0        -0.0251
     30 C27        63.7620 -134.4800   42.4240 C.3       1 2L0        -0.0446
     31 C29        63.4140 -133.0670   42.9250 C.3       1 2L0        -0.0626
     32 C28        64.3310 -134.3930   40.9980 C.3       1 2L0        -0.0626
     33 C33        62.7240 -137.7650   43.3160 C.3       1 2L0         0.0827
     34 C34        63.5220 -139.0770   43.0550 C.3       1 2L0         0.0075
     35 C45        64.7060 -138.5880   42.4840 C.3       1 2L0        -0.0579
     36 C35        62.8970 -139.9640   41.9610 C.3       1 2L0         0.0492
     37 O40        61.5250 -140.2500   42.2520 O.3       1 2L0        -0.3947
     38 O43        61.3510 -138.0530   43.6630 O.3       1 2L0        -0.3892
     39 H          57.0260 -136.4428   33.1994 H         1 2L0         0.0776
     40 H          56.5144 -135.0448   32.1941 H         1 2L0         0.0776
     41 H          54.8548 -133.5816   32.8628 H         1 2L0         0.0557
     42 H          52.9367 -133.1890   34.3758 H         1 2L0         0.0599
     43 H          52.6934 -134.5372   36.4431 H         1 2L0         0.0559
     44 H          54.3724 -136.2762   36.9881 H         1 2L0         0.0599
     45 H          56.2909 -136.6693   35.4733 H         1 2L0         0.0557
     46 H          60.1053 -133.6978   34.5541 H         1 2L0         0.1899
     47 H          61.2789 -136.3194   35.0606 H         1 2L0         0.0799
     48 H          63.0771 -135.0118   36.2244 H         1 2L0         0.0315
     49 H          62.1009 -133.5202   36.0036 H         1 2L0         0.0315
     50 H          62.2335 -133.8057   33.5361 H         1 2L0         0.0298
     51 H          64.6682 -133.2746   33.3464 H         1 2L0         0.0232
     52 H          64.9332 -133.9242   35.0000 H         1 2L0         0.0232
     53 H          63.9272 -132.4551   34.7626 H         1 2L0         0.0232
     54 H          62.4657 -136.2811   33.4593 H         1 2L0         0.0232
     55 H          64.0912 -136.1523   34.2127 H         1 2L0         0.0232
     56 H          63.8043 -135.4740   32.5743 H         1 2L0         0.0232
     57 H          61.5399 -137.3697   36.9705 H         1 2L0         0.1883
     58 H          59.8785 -136.4400   39.2880 H         1 2L0         0.0800
     59 H          60.5026 -139.0726   39.8254 H         1 2L0         0.0315
     60 H          60.4159 -139.0805   38.0312 H         1 2L0         0.0315
     61 H          58.2639 -138.0011   39.9389 H         1 2L0         0.0298
     62 H          56.8828 -137.7728   37.8846 H         1 2L0         0.0232
     63 H          58.2778 -138.2989   36.8828 H         1 2L0         0.0232
     64 H          58.3548 -136.7480   37.7860 H         1 2L0         0.0232
     65 H          58.4714 -140.4872   39.8974 H         1 2L0         0.0232
     66 H          58.3536 -140.4633   38.1052 H         1 2L0         0.0232
     67 H          56.9534 -139.9456   39.1043 H         1 2L0         0.0232
     68 H          60.7927 -137.3606   41.4289 H         1 2L0         0.1855
     69 H          63.7472 -136.9292   41.5988 H         1 2L0         0.0582
     70 H          62.1024 -135.3272   43.4972 H         1 2L0         0.0291
     71 H          61.7603 -134.9289   41.7794 H         1 2L0         0.0291
     72 H          64.5246 -134.9209   43.0828 H         1 2L0         0.0296
     73 H          64.3136 -132.4348   42.8931 H         1 2L0         0.0232
     74 H          63.0435 -133.1255   43.9591 H         1 2L0         0.0232
     75 H          62.6363 -132.6308   42.2809 H         1 2L0         0.0232
     76 H          64.5796 -135.4030   40.6402 H         1 2L0         0.0232
     77 H          65.2389 -133.7719   41.0027 H         1 2L0         0.0232
     78 H          63.5816 -133.9419   40.3310 H         1 2L0         0.0232
     79 H          63.1937 -137.2426   44.1624 H         1 2L0         0.0620
     80 H          63.6841 -139.6457   43.9825 H         1 2L0         0.0346
     81 H          65.3733 -139.4296   42.2465 H         1 2L0         0.0234
     82 H          65.2051 -137.9139   43.1956 H         1 2L0         0.0234
     83 H          64.4682 -138.0371   41.5621 H         1 2L0         0.0234
     84 H          63.4564 -140.9093   41.9016 H         1 2L0         0.0560
     85 H          62.9580 -139.4405   40.9955 H         1 2L0         0.0560
     86 H          61.0365 -139.4366   42.3007 H         1 2L0         0.2094
     87 H          60.9374 -138.5245   42.9495 H         1 2L0         0.2099
@<TRIPOS>BOND
     1    1    2 2  
     2    1    3 1  
     3    1   11 am 
     4    3    4 1  
     5    4    5 1  
     6    5    6 ar 
     7    5   10 ar 
     8    6    7 ar 
     9    7    8 ar 
    10    8    9 ar 
    11    9   10 ar 
    12   11   12 1  
    13   12   13 1  
    14   12   15 1  
    15   13   14 2  
    16   13   19 am 
    17   15   16 1  
    18   16   17 1  
    19   16   18 1  
    20   19   20 1  
    21   20   21 1  
    22   20   23 1  
    23   21   22 2  
    24   21   27 am 
    25   23   24 1  
    26   24   25 1  
    27   24   26 1  
    28   27   28 1  
    29   28   29 1  
    30   28   33 1  
    31   29   30 1  
    32   30   31 1  
    33   30   32 1  
    34   33   34 1  
    35   33   38 1  
    36   34   35 1  
    37   34   36 1  
    38   36   37 1  
    39    4   39 1  
    40    4   40 1  
    41    6   41 1  
    42    7   42 1  
    43    8   43 1  
    44    9   44 1  
    45   10   45 1  
    46   11   46 1  
    47   12   47 1  
    48   15   48 1  
    49   15   49 1  
    50   16   50 1  
    51   17   51 1  
    52   17   52 1  
    53   17   53 1  
    54   18   54 1  
    55   18   55 1  
    56   18   56 1  
    57   19   57 1  
    58   20   58 1  
    59   23   59 1  
    60   23   60 1  
    61   24   61 1  
    62   25   62 1  
    63   25   63 1  
    64   25   64 1  
    65   26   65 1  
    66   26   66 1  
    67   26   67 1  
    68   27   68 1  
    69   28   69 1  
    70   29   70 1  
    71   29   71 1  
    72   30   72 1  
    73   31   73 1  
    74   31   74 1  
    75   31   75 1  
    76   32   76 1  
    77   32   77 1  
    78   32   78 1  
    79   33   79 1  
    80   34   80 1  
    81   35   81 1  
    82   35   82 1  
    83   35   83 1  
    84   36   84 1  
    85   36   85 1  
    86   37   86 1  
    87   38   87 1  
@<TRIPOS>SUBSTRUCTURE
     1 2L0         1

