### 
### Created by X-TOOL on Mon Sep 10 21:13:17 2018
### 

@<TRIPOS>MOLECULE
4np2_ligand
   35    37     1     0     0
SMALL
GAST_HUCK


@<TRIPOS>ATOM
      1 CAH        12.3730   -5.8190    1.4220 C.3       1 2L1        -0.0213
      2 CAG        12.8320   -4.5920    0.5830 C.3       1 2L1         0.0190
      3 CAN        11.8450   -4.2460   -0.3980 C.ar      1 2L1        -0.0309
      4 CAD        12.2150   -3.3350   -1.4080 C.ar      1 2L1        -0.0665
      5 CAB        11.2930   -2.9410   -2.3880 C.ar      1 2L1        -0.0755
      6 CAC         9.9990   -3.4580   -2.3780 C.ar      1 2L1        -0.0753
      7 CAE         9.6130   -4.3740   -1.3840 C.ar      1 2L1        -0.0618
      8 CAO        10.5200   -4.7670   -0.3810 C.ar      1 2L1         0.0035
      9 CAI        10.0730   -5.7040    0.6070 C.3       1 2L1         0.0005
     10 NAQ        10.9430   -5.6920    1.8130 N.4       1 2L1         0.2538
     11 CAJ        10.5690   -6.7690    2.7600 C.3       1 2L1        -0.0083
     12 CAP        11.3850   -6.6720    4.0700 C.2       1 2L1         0.0335
     13 NAL        11.3500   -5.6580    4.9290 N.2       1 2L1        -0.3334
     14 CAF        12.2090   -5.9440    5.9220 C.2       1 2L1         0.0835
     15 NAK        12.7720   -7.1410    5.6760 N.pl3     1 2L1        -0.2707
     16 CAM        12.2590   -7.5730    4.5260 C.2       1 2L1         0.0503
     17 CAA        12.6230   -8.8970    3.8520 C.3       1 2L1        -0.0155
     18 H          12.9899   -5.8849    2.3304 H         1 2L1         0.0837
     19 H          12.5026   -6.7329    0.8236 H         1 2L1         0.0837
     20 H          13.7759   -4.8364    0.0738 H         1 2L1         0.0463
     21 H          12.9888   -3.7348    1.2542 H         1 2L1         0.0463
     22 H          13.2224   -2.9351   -1.4272 H         1 2L1         0.0537
     23 H          11.5872   -2.2332   -3.1545 H         1 2L1         0.0541
     24 H           9.2888   -3.1533   -3.1381 H         1 2L1         0.0541
     25 H           8.6085   -4.7814   -1.3896 H         1 2L1         0.0539
     26 H          10.0833   -6.7137    0.1706 H         1 2L1         0.0965
     27 H           9.0468   -5.4441    0.9057 H         1 2L1         0.0965
     28 H          10.8195   -4.8072    2.2799 H         1 2L1         0.2056
     29 H          10.7622   -7.7439    2.2887 H         1 2L1         0.0894
     30 H           9.4984   -6.6821    2.9972 H         1 2L1         0.0894
     31 H          12.4155   -5.3112    6.7839 H         1 2L1         0.1131
     32 H          13.4645   -7.6279    6.2627 H         1 2L1         0.2346
     33 H          12.0528   -9.0014    2.9171 H         1 2L1         0.0380
     34 H          12.3780   -9.7311    4.5260 H         1 2L1         0.0380
     35 H          13.6999   -8.9106    3.6281 H         1 2L1         0.0380
@<TRIPOS>BOND
     1    1    2 1  
     2    1   10 1  
     3    2    3 1  
     4    3    4 ar 
     5    3    8 ar 
     6    4    5 ar 
     7    5    6 ar 
     8    6    7 ar 
     9    7    8 ar 
    10    8    9 1  
    11    9   10 1  
    12   10   11 1  
    13   11   12 1  
    14   12   13 1  
    15   12   16 2  
    16   13   14 2  
    17   14   15 1  
    18   15   16 1  
    19   16   17 1  
    20    1   18 1  
    21    1   19 1  
    22    2   20 1  
    23    2   21 1  
    24    4   22 1  
    25    5   23 1  
    26    6   24 1  
    27    7   25 1  
    28    9   26 1  
    29    9   27 1  
    30   10   28 1  
    31   11   29 1  
    32   11   30 1  
    33   14   31 1  
    34   15   32 1  
    35   17   33 1  
    36   17   34 1  
    37   17   35 1  
@<TRIPOS>SUBSTRUCTURE
     1 2L1         1

