### 
### Created by X-TOOL on Mon Sep 10 21:13:17 2018
### 

@<TRIPOS>MOLECULE
4np3_ligand
   37    39     1     0     0
SMALL
GAST_HUCK


@<TRIPOS>ATOM
      1 CAH        12.2890   -5.8900    1.2430 C.3       1 2L2        -0.0213
      2 CAG        12.8370   -4.6300    0.5440 C.3       1 2L2         0.0159
      3 CAO        11.9770   -4.2060   -0.5060 C.ar      1 2L2        -0.0424
      4 CAE        12.5020   -3.3160   -1.4720 C.ar      1 2L2        -0.0796
      5 CAC        11.7240   -2.8600   -2.5490 C.ar      1 2L2        -0.0869
      6 CAD        10.3790   -3.2820   -2.6570 C.ar      1 2L2        -0.0576
      7 CAM         9.8500   -4.1580   -1.6980 C.ar      1 2L2         0.0358
      8 NAB         8.5480   -4.5840   -1.8140 N.pl3     1 2L2        -0.3413
      9 CAQ        10.6210   -4.6400   -0.6080 C.ar      1 2L2         0.0207
     10 CAJ        10.0390   -5.5490    0.3680 C.3       1 2L2        -0.0025
     11 NAR        10.8650   -5.6740    1.6010 N.4       1 2L2         0.2567
     12 CAI        10.3240   -6.7210    2.5160 C.3       1 2L2         0.0191
     13 CAP        11.0950   -6.7110    3.8260 C.2       1 2L2         0.0933
     14 NAL        10.9890   -5.7350    4.7140 N.pl3     1 2L2        -0.2664
     15 CAF        11.8320   -6.0370    5.7190 C.2       1 2L2         0.0834
     16 NAK        12.4460   -7.1940    5.4440 N.2       1 2L2        -0.3386
     17 CAN        11.9810   -7.6170    4.2630 C.2       1 2L2        -0.0081
     18 CAA        12.4350   -8.9040    3.5430 C.3       1 2L2        -0.0438
     19 H          12.8712   -6.0863    2.1554 H         1 2L2         0.0836
     20 H          12.3702   -6.7514    0.5637 H         1 2L2         0.0836
     21 H          13.8291   -4.8552    0.1256 H         1 2L2         0.0460
     22 H          12.9260   -3.8203    1.2832 H         1 2L2         0.0460
     23 H          13.5278   -2.9782   -1.3791 H         1 2L2         0.0430
     24 H          12.1500   -2.1921   -3.2889 H         1 2L2         0.0510
     25 H           9.7609   -2.9309   -3.4754 H         1 2L2         0.0440
     26 H           7.9648   -4.2508   -2.5948 H         1 2L2         0.1695
     27 H           8.1558   -5.2363   -1.1201 H         1 2L2         0.1695
     28 H           9.9407   -6.5434   -0.0920 H         1 2L2         0.0935
     29 H           9.0434   -5.1744    0.6479 H         1 2L2         0.0935
     30 H          10.8110   -4.7963    2.0937 H         1 2L2         0.2059
     31 H          10.4246   -7.7080    2.0410 H         1 2L2         0.0967
     32 H           9.2618   -6.5170    2.7163 H         1 2L2         0.0967
     33 H          10.3805   -4.9065    4.6487 H         1 2L2         0.2348
     34 H          11.9893   -5.4358    6.6133 H         1 2L2         0.1131
     35 H          13.1722   -9.4319    4.1658 H         1 2L2         0.0310
     36 H          12.8915   -8.6422    2.5770 H         1 2L2         0.0310
     37 H          11.5651   -9.5554    3.3730 H         1 2L2         0.0310
@<TRIPOS>BOND
     1    1    2 1  
     2    1   11 1  
     3    2    3 1  
     4    3    4 ar 
     5    3    9 ar 
     6    4    5 ar 
     7    5    6 ar 
     8    6    7 ar 
     9    7    8 1  
    10    7    9 ar 
    11    9   10 1  
    12   10   11 1  
    13   11   12 1  
    14   12   13 1  
    15   13   14 1  
    16   13   17 2  
    17   14   15 1  
    18   15   16 2  
    19   16   17 1  
    20   17   18 1  
    21    1   19 1  
    22    1   20 1  
    23    2   21 1  
    24    2   22 1  
    25    4   23 1  
    26    5   24 1  
    27    6   25 1  
    28    8   26 1  
    29    8   27 1  
    30   10   28 1  
    31   10   29 1  
    32   11   30 1  
    33   12   31 1  
    34   12   32 1  
    35   14   33 1  
    36   15   34 1  
    37   18   35 1  
    38   18   36 1  
    39   18   37 1  
@<TRIPOS>SUBSTRUCTURE
     1 2L2         1

