### 
### Created by X-TOOL on Mon Sep 10 21:13:18 2018
### 

@<TRIPOS>MOLECULE
4nq6_ligand
   24    25     1     0     0
SMALL
GAST_HUCK


@<TRIPOS>ATOM
      1 O          12.1550    7.9590   27.9570 O.co2     1 3R9        -0.5642
      2 N          10.1020    9.4700   25.3840 N.4       1 3R9         0.2697
      3 C          11.5700    8.0510   26.8800 C.2       1 3R9         0.0854
      4 OXT        11.2970    7.0690   26.1200 O.co2     1 3R9        -0.5642
      5 CA         11.1080    9.5150   26.4980 C.3       1 3R9         0.0435
      6 CB         12.2920   10.4830   26.1730 C.3       1 3R9         0.0540
      7 SAH        12.0210   10.9990   24.4770 S.3       1 3R9        -0.1001
      8 CAM        10.3430   10.4450   24.2460 C.3       1 3R9         0.0388
      9 CAF         9.4500   11.6490   24.3670 C.3       1 3R9         0.0518
     10 SAG         8.9980   11.4610   26.0980 S.3       1 3R9        -0.1011
     11 CAJ         8.7830    9.7060   25.9960 C.3       1 3R9         0.0383
     12 CAD         7.6620    9.2880   25.1000 C.3       1 3R9         0.0437
     13 SAC         8.1460    7.6810   24.3760 S.3       1 3R9        -0.1717
     14 H1         10.1179    8.5426   24.9895 H         1 3R9         0.2075
     15 H2         10.5983    9.9288   27.3805 H         1 3R9         0.1035
     16 H3         13.2553    9.9606   26.2685 H         1 3R9         0.0453
     17 H4         12.2773   11.3515   26.8479 H         1 3R9         0.0453
     18 H5         10.2033    9.9572   23.2700 H         1 3R9         0.0984
     19 H6          8.5771   11.5879   23.7004 H         1 3R9         0.0443
     20 H7          9.9905   12.5882   24.1782 H         1 3R9         0.0443
     21 H8          8.6662    9.2285   26.9800 H         1 3R9         0.0984
     22 H9          7.5132   10.0334   24.3048 H         1 3R9         0.0438
     23 H10         6.7332    9.1793   25.6792 H         1 3R9         0.0438
     24 H11         7.4160    7.3575   23.7607 H         1 3R9         0.1019
@<TRIPOS>BOND
     1    3    1 ar 
     2    5    2 1  
     3    2    8 1  
     4    2   11 1  
     5    3    4 ar 
     6    3    5 1  
     7    5    6 1  
     8    6    7 1  
     9    7    8 1  
    10    8    9 1  
    11    9   10 1  
    12   10   11 1  
    13   11   12 1  
    14   12   13 1  
    15    2   14 1  
    16    5   15 1  
    17    6   16 1  
    18    6   17 1  
    19    8   18 1  
    20    9   19 1  
    21    9   20 1  
    22   11   21 1  
    23   12   22 1  
    24   12   23 1  
    25   13   24 1  
@<TRIPOS>SUBSTRUCTURE
     1 3R9         1

