### 
### Created by X-TOOL on Mon Sep 10 21:13:13 2018
### 

@<TRIPOS>MOLECULE
4nra_ligand
   26    28     1     0     0
SMALL
GAST_HUCK


@<TRIPOS>ATOM
      1 CAH        67.5520   40.8620   -0.3610 C.2       1 2LW         0.1128
      2 CAG        68.6830   41.1270   -1.3650 C.2       1 2LW        -0.0147
      3 CAM        69.7200   40.1010   -1.2360 C.2       1 2LW        -0.0185
      4 NAJ        70.9660   40.1470   -1.7350 N.2       1 2LW        -0.3970
      5 CAO        71.6390   39.0280   -1.4450 C.ar      1 2LW        -0.0397
      6 CAE        72.9090   38.6920   -1.7640 C.ar      1 2LW        -0.0734
      7 CAD        73.4350   37.4590   -1.3440 C.ar      1 2LW        -0.0660
      8 CAL        72.6020   36.6060   -0.5970 C.ar      1 2LW         0.0218
      9 CL         73.2570   35.1080   -0.0760 Cl        1 2LW        -0.0838
     10 CAF        71.2800   37.0090   -0.3160 C.ar      1 2LW        -0.0631
     11 CAP        70.8110   38.2030   -0.7180 C.ar      1 2LW        -0.0372
     12 CAN        69.6230   38.8670   -0.5800 C.2       1 2LW         0.0271
     13 CAI        68.4190   38.4900    0.0340 C.2       1 2LW         0.1313
     14 NAQ        67.2840   39.4470   -0.4070 N.am      1 2LW        -0.1203
     15 CAK        66.1610   39.0660   -0.9220 C.2       1 2LW         0.2768
     16 OAB        65.1830   39.7620   -1.1610 O.2       1 2LW        -0.3453
     17 CAA        65.9470   37.5020   -0.7930 C.3       1 2LW         0.0495
     18 H          67.0503   41.5995    0.2638 H         1 2LW         0.1275
     19 H          68.7101   41.9566   -2.0700 H         1 2LW         0.0528
     20 H          73.5211   39.3736   -2.3435 H         1 2LW         0.0509
     21 H          74.4518   37.1734   -1.5880 H         1 2LW         0.0541
     22 H          70.6281   36.3416    0.2360 H         1 2LW         0.0559
     23 H          68.3005   37.6507    0.7178 H         1 2LW         0.1510
     24 H          64.9822   37.2256   -1.2432 H         1 2LW         0.0491
     25 H          65.9505   37.2178    0.2696 H         1 2LW         0.0491
     26 H          66.7596   36.9763   -1.3159 H         1 2LW         0.0491
@<TRIPOS>BOND
     1    1    2 2  
     2    1   14 1  
     3    2    3 1  
     4    3    4 2  
     5    3   12 1  
     6    4    5 1  
     7    5    6 ar 
     8    5   11 ar 
     9    6    7 ar 
    10    7    8 ar 
    11    8    9 1  
    12    8   10 ar 
    13   10   11 ar 
    14   11   12 1  
    15   12   13 2  
    16   13   14 1  
    17   14   15 am 
    18   15   16 2  
    19   15   17 1  
    20    1   18 1  
    21    2   19 1  
    22    6   20 1  
    23    7   21 1  
    24   10   22 1  
    25   13   23 1  
    26   17   24 1  
    27   17   25 1  
    28   17   26 1  
@<TRIPOS>SUBSTRUCTURE
     1 2LW         1

