### 
### Created by X-TOOL on Mon Sep 10 21:13:13 2018
### 

@<TRIPOS>MOLECULE
4nrb_ligand
   34    35     1     0     0
SMALL
GAST_HUCK


@<TRIPOS>ATOM
      1 C01        25.1110   11.3590    0.3980 C.3       1 2LX         0.0188
      2 N02        26.2190   10.3390    0.4200 N.am      1 2LX        -0.2911
      3 C03        25.8590    8.9020    0.8110 C.2       1 2LX         0.1990
      4 C04        26.9650    7.8870    0.8310 C.ar      1 2LX         0.0783
      5 C05        26.5710    6.5400    1.2560 C.ar      1 2LX        -0.0503
      6 C06        27.5480    5.5010    1.4040 C.ar      1 2LX        -0.0671
      7 C07        28.9260    5.7900    1.0130 C.ar      1 2LX        -0.0661
      8 C08        29.3580    7.0530    0.5520 C.ar      1 2LX        -0.0267
      9 C09        28.4130    8.1320    0.4610 C.ar      1 2LX         0.1131
     10 O10        28.7950    9.3760    0.0180 O.3       1 2LX        -0.3092
     11 C11        30.0170    9.8770   -0.2090 C.3       1 2LX         0.0871
     12 C12        29.9150   11.1030   -1.0370 C.3       1 2LX         0.0017
     13 C13        31.2920   11.7180   -1.2790 C.3       1 2LX         0.0504
     14 O14        31.8770   12.0040   -0.0060 O.3       1 2LX        -0.3796
     15 C15        32.0340   10.7950    0.9620 C.3       1 2LX         0.0504
     16 C16        30.7210   10.0870    1.1070 C.3       1 2LX         0.0017
     17 O17        24.5650    8.6000    1.1280 O.2       1 2LX        -0.3909
     18 H          25.5186   12.3367    0.1015 H         1 2LX         0.0483
     19 H          24.6642   11.4367    1.4001 H         1 2LX         0.0483
     20 H          24.3411   11.0486   -0.3237 H         1 2LX         0.0483
     21 H          27.1582   10.5913    0.1872 H         1 2LX         0.1837
     22 H          25.5280    6.3271    1.4609 H         1 2LX         0.0640
     23 H          27.2721    4.5283    1.7950 H         1 2LX         0.0536
     24 H          29.6562    4.9917    1.0805 H         1 2LX         0.0625
     25 H          30.3931    7.2073    0.2693 H         1 2LX         0.0555
     26 H          30.5952    9.1374   -0.7822 H         1 2LX         0.0655
     27 H          29.2803   11.8359   -0.5174 H         1 2LX         0.0316
     28 H          29.4609   10.8460   -2.0054 H         1 2LX         0.0316
     29 H          31.1895   12.6464   -1.8600 H         1 2LX         0.0561
     30 H          31.9263   11.0084   -1.8305 H         1 2LX         0.0561
     31 H          32.3648   11.1563    1.9469 H         1 2LX         0.0561
     32 H          32.7821   10.0976    0.5570 H         1 2LX         0.0561
     33 H          30.9014    9.1050    1.5687 H         1 2LX         0.0316
     34 H          30.0702   10.6858    1.7611 H         1 2LX         0.0316
@<TRIPOS>BOND
     1    1    2 1  
     2    2    3 am 
     3    3    4 1  
     4    3   17 2  
     5    4    5 ar 
     6    4    9 ar 
     7    5    6 ar 
     8    6    7 ar 
     9    7    8 ar 
    10    8    9 ar 
    11    9   10 1  
    12   10   11 1  
    13   11   12 1  
    14   11   16 1  
    15   12   13 1  
    16   13   14 1  
    17   14   15 1  
    18   15   16 1  
    19    1   18 1  
    20    1   19 1  
    21    1   20 1  
    22    2   21 1  
    23    5   22 1  
    24    6   23 1  
    25    7   24 1  
    26    8   25 1  
    27   11   26 1  
    28   12   27 1  
    29   12   28 1  
    30   13   29 1  
    31   13   30 1  
    32   15   31 1  
    33   15   32 1  
    34   16   33 1  
    35   16   34 1  
@<TRIPOS>SUBSTRUCTURE
     1 2LX         1

