### 
### Created by X-TOOL on Mon Sep 10 21:13:13 2018
### 

@<TRIPOS>MOLECULE
4nrc_ligand
   22    23     1     0     0
SMALL
GAST_HUCK


@<TRIPOS>ATOM
      1 C01       -24.7950  -11.5230    0.6430 C.3       1 2LY         0.0179
      2 N02       -25.9850  -10.7100    0.5590 N.am      1 2LY        -0.2949
      3 C03       -25.8010   -9.2690    0.7590 C.2       1 2LY         0.1900
      4 C04       -26.9580   -8.3780    0.6470 C.2       1 2LY         0.1134
      5 C05       -28.3330   -8.8660    0.4190 C.2       1 2LY         0.1311
      6 C06       -29.2340   -7.7510    0.3340 C.2       1 2LY         0.1168
      7 C07       -28.4730   -6.4560    0.4910 C.2       1 2LY         0.0154
      8 S08       -26.8860   -6.7520    0.6870 S.3       1 2LY        -0.0615
      9 O09       -30.5770   -7.9360    0.1470 O.3       1 2LY        -0.3292
     10 C10       -31.0640   -9.2180   -0.0200 C.3       1 2LY         0.0916
     11 C11       -30.2270  -10.4050    0.4610 C.3       1 2LY         0.0946
     12 O12       -28.7830  -10.2480    0.3350 O.3       1 2LY        -0.3208
     13 O13       -24.7190   -8.7390    0.9710 O.2       1 2LY        -0.4042
     14 H         -25.0591  -12.5778    0.4769 H         1 2LY         0.0481
     15 H         -24.3437  -11.4106    1.6399 H         1 2LY         0.0481
     16 H         -24.0754  -11.2001   -0.1238 H         1 2LY         0.0481
     17 H         -26.8841  -11.1071    0.3748 H         1 2LY         0.1824
     18 H         -28.9232   -5.4645    0.4752 H         1 2LY         0.0598
     19 H         -31.2322   -9.3597   -1.0978 H         1 2LY         0.0629
     20 H         -32.0261   -9.2676    0.5109 H         1 2LY         0.0629
     21 H         -30.5240  -11.2880   -0.1239 H         1 2LY         0.0637
     22 H         -30.4579  -10.5740    1.5231 H         1 2LY         0.0637
@<TRIPOS>BOND
     1    1    2 1  
     2    2    3 am 
     3    3    4 1  
     4    3   13 2  
     5    4    5 2  
     6    4    8 1  
     7    5    6 1  
     8    5   12 1  
     9    6    7 2  
    10    6    9 1  
    11    7    8 1  
    12    9   10 1  
    13   10   11 1  
    14   11   12 1  
    15    1   14 1  
    16    1   15 1  
    17    1   16 1  
    18    2   17 1  
    19    7   18 1  
    20   10   19 1  
    21   10   20 1  
    22   11   21 1  
    23   11   22 1  
@<TRIPOS>SUBSTRUCTURE
     1 2LY         1

