### 
### Created by X-TOOL on Mon Sep 10 21:13:19 2018
### 

@<TRIPOS>MOLECULE
4nrk_ligand
   38    38     1     0     0
SMALL
GAST_HUCK


@<TRIPOS>ATOM
      1 C1          3.7870  -86.5090  -16.5290 C.2       1 SIA         0.0637
      2 C2          3.8890  -88.0160  -16.6710 C.3       1 SIA         0.1137
      3 C3          2.9350  -88.5890  -17.6990 C.3       1 SIA         0.0137
      4 C4          3.2940  -88.0910  -19.0810 C.3       1 SIA         0.0845
      5 C5          4.7170  -88.4880  -19.3960 C.3       1 SIA         0.0967
      6 C6          5.5940  -87.9900  -18.2740 C.3       1 SIA         0.1147
      7 C7          7.0290  -88.4080  -18.4980 C.3       1 SIA         0.1116
      8 C8          7.8800  -87.8170  -17.3980 C.3       1 SIA         0.1065
      9 C9          9.3440  -87.9360  -17.7550 C.3       1 SIA         0.0727
     10 C10         5.6200  -88.6450  -21.6930 C.2       1 SIA         0.1733
     11 C11         5.7390  -90.1500  -21.5740 C.3       1 SIA         0.0257
     12 N5          5.1180  -87.8750  -20.6110 N.am      1 SIA        -0.2790
     13 O1A         2.6530  -85.9650  -16.5920 O.co2     1 SIA        -0.5663
     14 O1B         4.8070  -85.7920  -16.3280 O.co2     1 SIA        -0.5663
     15 O4          2.4180  -88.6480  -20.0330 O.3       1 SIA        -0.3892
     16 O6          5.1540  -88.5190  -17.0430 O.3       1 SIA        -0.3543
     17 O7          7.1140  -89.8110  -18.4580 O.3       1 SIA        -0.3865
     18 O8          7.5470  -86.4600  -17.2310 O.3       1 SIA        -0.3869
     19 O9         10.1240  -87.7080  -16.6010 O.3       1 SIA        -0.3924
     20 O10         5.9560  -88.0900  -22.7200 O.2       1 SIA        -0.3974
     21 H           3.6340  -88.4356  -15.6867 H         1 SIA         0.0767
     22 H           1.9087  -88.2768  -17.4558 H         1 SIA         0.0334
     23 H           2.9983  -89.6870  -17.6809 H         1 SIA         0.0334
     24 H           3.2072  -86.9948  -19.1075 H         1 SIA         0.0619
     25 H           4.7960  -89.5816  -19.4840 H         1 SIA         0.0608
     26 H           5.5385  -86.8920  -18.2380 H         1 SIA         0.0648
     27 H           7.3770  -88.0433  -19.4757 H         1 SIA         0.0647
     28 H           7.6897  -88.3587  -16.4597 H         1 SIA         0.0643
     29 H           9.5970  -87.1903  -18.5231 H         1 SIA         0.0584
     30 H           9.5472  -88.9452  -18.1426 H         1 SIA         0.0584
     31 H           6.1453  -90.5608  -22.5100 H         1 SIA         0.0467
     32 H           4.7455  -90.5826  -21.3845 H         1 SIA         0.0467
     33 H           6.4127  -90.3999  -20.7411 H         1 SIA         0.0467
     34 H           5.0457  -86.8822  -20.7071 H         1 SIA         0.1856
     35 H           1.5260  -88.3937  -19.8278 H         1 SIA         0.2099
     36 H           6.8031  -90.1221  -17.6159 H         1 SIA         0.2100
     37 H           6.6268  -86.3862  -17.0067 H         1 SIA         0.2100
     38 H          11.0448  -87.7822  -16.8228 H         1 SIA         0.2095
@<TRIPOS>BOND
     1    2    1 1  
     2    1   13 ar 
     3    1   14 ar 
     4    3    2 1  
     5   16    2 1  
     6    4    3 1  
     7    5    4 1  
     8    4   15 1  
     9    5    6 1  
    10   12    5 1  
    11    6    7 1  
    12    6   16 1  
    13    7    8 1  
    14    7   17 1  
    15    8    9 1  
    16    8   18 1  
    17    9   19 1  
    18   10   11 1  
    19   10   12 am 
    20   10   20 2  
    21    2   21 1  
    22    3   22 1  
    23    3   23 1  
    24    4   24 1  
    25    5   25 1  
    26    6   26 1  
    27    7   27 1  
    28    8   28 1  
    29    9   29 1  
    30    9   30 1  
    31   11   31 1  
    32   11   32 1  
    33   11   33 1  
    34   12   34 1  
    35   15   35 1  
    36   17   36 1  
    37   18   37 1  
    38   19   38 1  
@<TRIPOS>SUBSTRUCTURE
     1 SIA         1

