### 
### Created by X-TOOL on Mon Sep 10 21:13:18 2018
### 

@<TRIPOS>MOLECULE
4nrl_ligand
   38    38     1     0     0
SMALL
GAST_HUCK


@<TRIPOS>ATOM
      1 C1         38.0060   22.3860  -16.4740 C.2       1 SIA         0.0637
      2 C2         37.8770   23.8970  -16.4750 C.3       1 SIA         0.1137
      3 C3         38.8260   24.5560  -17.4540 C.3       1 SIA         0.0137
      4 C4         38.5370   24.0560  -18.8540 C.3       1 SIA         0.0845
      5 C5         37.1200   24.4240  -19.2280 C.3       1 SIA         0.0967
      6 C6         36.2160   23.9140  -18.1270 C.3       1 SIA         0.1147
      7 C7         34.7820   24.3260  -18.3700 C.3       1 SIA         0.1116
      8 C8         33.9230   23.7140  -17.2890 C.3       1 SIA         0.1065
      9 C9         32.4900   23.6320  -17.7610 C.3       1 SIA         0.0727
     10 C10        36.1140   24.5040  -21.4870 C.2       1 SIA         0.1733
     11 C11        35.7650   23.8150  -22.7880 C.3       1 SIA         0.0257
     12 N5         36.7860   23.7940  -20.4580 N.am      1 SIA        -0.2790
     13 O1A        39.1500   21.8740  -16.6050 O.co2     1 SIA        -0.5663
     14 O1B        37.0070   21.6350  -16.3050 O.co2     1 SIA        -0.5663
     15 O4         39.4450   24.6150  -19.7740 O.3       1 SIA        -0.3892
     16 O6         36.6230   24.4070  -16.8670 O.3       1 SIA        -0.3543
     17 O7         34.6760   25.7300  -18.3280 O.3       1 SIA        -0.3865
     18 O8         34.3920   22.4190  -16.9980 O.3       1 SIA        -0.3869
     19 O9         31.6380   23.5330  -16.6420 O.3       1 SIA        -0.3924
     20 O10        35.8110   25.6680  -21.3210 O.2       1 SIA        -0.3974
     21 H          38.0995   24.2415  -15.4543 H         1 SIA         0.0767
     22 H          39.8627   24.3076  -17.1830 H         1 SIA         0.0334
     23 H          38.6892   25.6469  -17.4191 H         1 SIA         0.0334
     24 H          38.6414   22.9611  -18.8730 H         1 SIA         0.0619
     25 H          37.0206   25.5150  -19.3272 H         1 SIA         0.0608
     26 H          36.2723   22.8155  -18.1131 H         1 SIA         0.0648
     27 H          34.4531   23.9636  -19.3551 H         1 SIA         0.0647
     28 H          33.9754   24.3362  -16.3834 H         1 SIA         0.0643
     29 H          32.3631   22.7453  -18.3995 H         1 SIA         0.0584
     30 H          32.2395   24.5362  -18.3352 H         1 SIA         0.0584
     31 H          35.2515   24.5252  -23.4528 H         1 SIA         0.0467
     32 H          35.1038   22.9599  -22.5842 H         1 SIA         0.0467
     33 H          36.6859   23.4591  -23.2730 H         1 SIA         0.0467
     34 H          37.0286   22.8344  -20.6006 H         1 SIA         0.1856
     35 H          40.3309   24.3764  -19.5277 H         1 SIA         0.2099
     36 H          34.9677   26.0432  -17.4799 H         1 SIA         0.2100
     37 H          35.2930   22.4690  -16.7011 H         1 SIA         0.2100
     38 H          30.7361   23.4813  -16.9357 H         1 SIA         0.2095
@<TRIPOS>BOND
     1    2    1 1  
     2    1   13 ar 
     3    1   14 ar 
     4    3    2 1  
     5   16    2 1  
     6    4    3 1  
     7    5    4 1  
     8    4   15 1  
     9    5    6 1  
    10   12    5 1  
    11    6    7 1  
    12    6   16 1  
    13    7    8 1  
    14    7   17 1  
    15    8    9 1  
    16    8   18 1  
    17    9   19 1  
    18   10   11 1  
    19   10   12 am 
    20   10   20 2  
    21    2   21 1  
    22    3   22 1  
    23    3   23 1  
    24    4   24 1  
    25    5   25 1  
    26    6   26 1  
    27    7   27 1  
    28    8   28 1  
    29    9   29 1  
    30    9   30 1  
    31   11   31 1  
    32   11   32 1  
    33   11   33 1  
    34   12   34 1  
    35   15   35 1  
    36   17   36 1  
    37   18   37 1  
    38   19   38 1  
@<TRIPOS>SUBSTRUCTURE
     1 SIA         1

