### 
### Created by X-TOOL on Mon Sep 10 21:13:19 2018
### 

@<TRIPOS>MOLECULE
4nrm_ligand
   18    17     1     0     0
SMALL
GAST_HUCK


@<TRIPOS>ATOM
      1 CAC        10.0980   23.9640   17.0020 C.2       1 FLC         0.0371
      2 CA         10.9010   22.7940   16.4910 C.3       1 FLC         0.0356
      3 CB         10.8070   21.7340   17.5740 C.3       1 FLC         0.1328
      4 CBC         9.4700   21.0960   17.8410 C.2       1 FLC         0.0796
      5 CG         12.0490   21.2730   18.3350 C.3       1 FLC         0.0356
      6 CGC        13.1300   20.5580   17.5480 C.2       1 FLC         0.0371
      7 OA1         8.8790   23.9840   16.7420 O.co2     1 FLC        -0.5690
      8 OA2        10.6670   24.8520   17.6770 O.co2     1 FLC        -0.5690
      9 OB1         8.8850   21.5600   18.8390 O.co2     1 FLC        -0.5449
     10 OB2         8.9820   20.2070   17.1040 O.co2     1 FLC        -0.5449
     11 OG1        13.3220   20.8380   16.3430 O.co2     1 FLC        -0.5690
     12 OG2        13.8120   19.7060   18.1580 O.co2     1 FLC        -0.5690
     13 OHB        11.0450   20.7860   16.5200 O.3       1 FLC        -0.3818
     14 H          11.9488   23.0876   16.3304 H         1 FLC         0.0452
     15 H          10.4766   22.4189   15.5480 H         1 FLC         0.0452
     16 H          11.7136   20.5895   19.1289 H         1 FLC         0.0452
     17 H          12.5071   22.1646   18.7880 H         1 FLC         0.0452
     18 H          10.3672   20.8713   15.8599 H         1 FLC         0.2091
@<TRIPOS>BOND
     1    1    2 1  
     2    1    7 ar 
     3    1    8 ar 
     4    2    3 1  
     5    3    4 1  
     6    3    5 1  
     7    3   13 1  
     8    4    9 ar 
     9    4   10 ar 
    10    5    6 1  
    11    6   11 ar 
    12    6   12 ar 
    13    2   14 1  
    14    2   15 1  
    15    5   16 1  
    16    5   17 1  
    17   13   18 1  
@<TRIPOS>SUBSTRUCTURE
     1 FLC         1

