### 
### Created by X-TOOL on Mon Sep 10 21:13:20 2018
### 

@<TRIPOS>MOLECULE
4nro_ligand
   14    13     1     0     0
SMALL
GAST_HUCK


@<TRIPOS>ATOM
      1 C1         12.5160   20.4920   16.7890 C.2       1 AKG         0.1249
      2 O1         11.4460   20.0720   17.2940 O.co2     1 AKG        -0.5464
      3 O2         13.6200   20.1100   17.2310 O.co2     1 AKG        -0.5464
      4 C2         12.4810   21.4550   15.6840 C.2       1 AKG         0.1731
      5 O5         11.7080   21.2790   14.7560 O.2       1 AKG        -0.3576
      6 C3         13.4110   22.6570   15.7090 C.3       1 AKG         0.0423
      7 C4         13.0500   23.7340   14.6870 C.3       1 AKG         0.0164
      8 C5         14.2970   24.4780   14.2520 C.2       1 AKG         0.0371
      9 O3         14.2150   25.6990   13.9810 O.co2     1 AKG        -0.5688
     10 O4         15.3810   23.8570   14.1620 O.co2     1 AKG        -0.5688
     11 H          14.4336   22.3094   15.5006 H         1 AKG         0.0516
     12 H          13.3733   23.1045   16.7131 H         1 AKG         0.0516
     13 H          12.3426   24.4437   15.1408 H         1 AKG         0.0456
     14 H          12.5836   23.2616   13.8099 H         1 AKG         0.0456
@<TRIPOS>BOND
     1    1    2 ar 
     2    1    3 ar 
     3    1    4 1  
     4    4    5 2  
     5    4    6 1  
     6    6    7 1  
     7    7    8 1  
     8    8    9 ar 
     9    8   10 ar 
    10    6   11 1  
    11    6   12 1  
    12    7   13 1  
    13    7   14 1  
@<TRIPOS>SUBSTRUCTURE
     1 AKG         1

