### 
### Created by X-TOOL on Mon Sep 10 21:13:18 2018
### 

@<TRIPOS>MOLECULE
4nrp_ligand
   13    12     1     0     0
SMALL
GAST_HUCK


@<TRIPOS>ATOM
      1 C1         -7.7530   15.5620  -19.2920 C.2       1 OGA         0.1433
      2 C2         -6.8660   15.5380  -20.4580 C.2       1 OGA         0.2452
      3 C4         -5.0250   14.6290  -21.6540 C.3       1 OGA         0.0841
      4 C5         -4.1470   13.4170  -21.8180 C.2       1 OGA         0.0572
      5 O1         -8.0790   14.4950  -18.7300 O.co2     1 OGA        -0.5457
      6 O2         -8.1610   16.6700  -18.8730 O.co2     1 OGA        -0.5457
      7 O2'        -6.7110   16.5690  -21.0830 O.2       1 OGA        -0.3655
      8 O3         -2.9390   13.6160  -22.0910 O.co2     1 OGA        -0.5669
      9 N1         -6.2090   14.4390  -20.8280 N.am      1 OGA        -0.2659
     10 O4         -4.6640   12.2810  -21.6990 O.co2     1 OGA        -0.5669
     11 H          -5.3568   14.9448  -22.6541 H         1 OGA         0.0691
     12 H          -4.4195   15.4270  -21.1996 H         1 OGA         0.0691
     13 H          -6.5145   13.5278  -20.5516 H         1 OGA         0.1886
@<TRIPOS>BOND
     1    2    1 1  
     2    1    5 ar 
     3    1    6 ar 
     4    2    7 2  
     5    9    2 am 
     6    3    4 1  
     7    3    9 1  
     8    4    8 ar 
     9    4   10 ar 
    10    3   11 1  
    11    3   12 1  
    12    9   13 1  
@<TRIPOS>SUBSTRUCTURE
     1 OGA         1

