### 
### Created by X-TOOL on Mon Sep 10 21:13:20 2018
### 

@<TRIPOS>MOLECULE
4nrq_ligand
   15    15     1     0     0
SMALL
GAST_HUCK


@<TRIPOS>ATOM
      1 O42        12.1930    4.3030   14.2870 O.co2     1 PD2        -0.5574
      2 C41        13.3140    3.7480   14.3650 C.2       1 PD2         0.0728
      3 O41        13.4650    2.5180   14.1750 O.co2     1 PD2        -0.5574
      4 C4         14.5260    4.5790   14.6760 C.ar      1 PD2         0.0333
      5 C5         15.7520    4.1900   14.1510 C.ar      1 PD2        -0.0173
      6 C6         16.8820    4.9510   14.4230 C.ar      1 PD2         0.0184
      7 C3         14.4540    5.7300   15.4670 C.ar      1 PD2        -0.0054
      8 C2         15.6230    6.4630   15.7070 C.ar      1 PD2         0.0862
      9 N1         16.8010    6.0550   15.1800 N.ar      1 PD2        -0.2790
     10 C21        15.6230    7.7040   16.5550 C.2       1 PD2         0.0817
     11 O21        16.7260    8.2520   16.7890 O.co2     1 PD2        -0.5572
     12 O22        14.5510    8.1520   17.0170 O.co2     1 PD2        -0.5572
     13 H          15.8262    3.3011   13.5350 H         1 PD2         0.0763
     14 H          17.8411    4.6487   14.0183 H         1 PD2         0.0842
     15 H          13.5077    6.0500   15.8880 H         1 PD2         0.0779
@<TRIPOS>BOND
     1    1    2 ar 
     2    2    3 ar 
     3    2    4 1  
     4    4    5 ar 
     5    4    7 ar 
     6    5    6 ar 
     7    6    9 ar 
     8    7    8 ar 
     9    8    9 ar 
    10    8   10 1  
    11   10   11 ar 
    12   10   12 ar 
    13    5   13 1  
    14    6   14 1  
    15    7   15 1  
@<TRIPOS>SUBSTRUCTURE
     1 PD2         1

