### 
### Created by X-TOOL on Mon Sep 10 21:13:18 2018
### 

@<TRIPOS>MOLECULE
4nru_ligand
   57    60     1     0     0
SMALL
GAST_HUCK


@<TRIPOS>ATOM
      1 OAI        35.1820   -8.4630   48.1710 O.co2     1 2NG        -0.4737
      2 SBN        36.0860   -9.1840   47.1540 S.o2      1 2NG        -0.1365
      3 OAF        37.4000   -8.4060   47.0550 O.co2     1 2NG        -0.4737
      4 OAG        35.3050   -9.2820   45.8470 O.co2     1 2NG        -0.4737
      5 CBI        36.4520  -10.7950   47.6550 C.ar      1 2NG         0.1331
      6 CBK        37.1780  -11.7120   46.8580 C.ar      1 2NG         0.1653
      7 CAR        35.9720  -11.1550   48.9140 C.ar      1 2NG         0.0271
      8 CAM        36.1920  -12.4220   49.4180 C.ar      1 2NG         0.0077
      9 CAU        36.8960  -13.3380   48.6630 C.ar      1 2NG         0.0205
     10 CBJ        37.3930  -13.0040   47.3970 C.ar      1 2NG         0.1249
     11 CBH        38.1060  -13.9750   46.6740 C.ar      1 2NG         0.1706
     12 SBM        38.3700  -15.6180   47.3270 S.o2      1 2NG        -0.1059
     13 OAH        37.0310  -16.2710   47.6180 O.co2     1 2NG        -0.4668
     14 OAE        39.1320  -15.5480   48.6360 O.co2     1 2NG        -0.4668
     15 OAD        39.0830  -16.5010   46.3030 O.co2     1 2NG        -0.4668
     16 CAT        38.6000  -13.6740   45.4090 C.ar      1 2NG         0.0871
     17 CAS        38.3990  -12.4110   44.8590 C.ar      1 2NG         0.1142
     18 CBF        37.7200  -11.4160   45.5700 C.ar      1 2NG         0.2623
     19 NAY        37.5090  -10.2190   44.9600 N.am      1 2NG        -0.1247
     20 CBA        38.5280   -9.4340   44.4960 C.2       1 2NG         0.3180
     21 OAC        39.7170   -9.6730   44.6760 O.2       1 2NG        -0.3203
     22 CBD        38.1580   -8.2680   43.7870 C.ar      1 2NG         0.0602
     23 CAV        38.9360   -7.8600   42.6970 C.ar      1 2NG        -0.0248
     24 CAQ        37.0310   -7.4850   44.1080 C.ar      1 2NG        -0.0606
     25 CAO        36.6740   -6.3430   43.3900 C.ar      1 2NG        -0.0668
     26 CBB        37.4530   -5.9390   42.3080 C.ar      1 2NG        -0.0185
     27 CAA        37.0980   -4.7850   41.5830 C.3       1 2NG        -0.0324
     28 CBE        38.5900   -6.7040   41.9840 C.ar      1 2NG         0.0746
     29 NAX        39.2930   -6.3020   40.9220 N.am      1 2NG        -0.2349
     30 CAZ        40.3850   -5.5160   41.0600 C.2       1 2NG         0.2321
     31 OAB        40.8500   -5.1630   42.1470 O.2       1 2NG        -0.3737
     32 CBC        41.0080   -5.1760   39.8460 C.ar      1 2NG         0.0634
     33 CAW        42.3950   -5.1030   39.7820 C.ar      1 2NG        -0.0077
     34 CAN        40.2710   -4.9200   38.6750 C.ar      1 2NG        -0.0364
     35 CAL        40.9060   -4.6020   37.4750 C.ar      1 2NG        -0.0486
     36 CAP        42.2970   -4.5280   37.4260 C.ar      1 2NG        -0.0240
     37 CBG        43.0420   -4.7800   38.5850 C.ar      1 2NG         0.0898
     38 NBL        44.3700   -4.7080   38.5700 N.2       1 2NG        -0.2154
     39 OAK        45.1050   -4.5220   39.8180 O.2       1 2NG        -0.4886
     40 OAJ        45.1010   -4.7870   37.3320 O.2       1 2NG        -0.4886
     41 H          35.4199  -10.4322   49.5038 H         1 2NG         0.1013
     42 H          35.8153  -12.6943   50.3973 H         1 2NG         0.0889
     43 H          37.0672  -14.3333   49.0568 H         1 2NG         0.1151
     44 H          39.1438  -14.4261   44.8490 H         1 2NG         0.1091
     45 H          38.7742  -12.1955   43.8651 H         1 2NG         0.1401
     46 H          36.5684   -9.8992   44.8459 H         1 2NG         0.3485
     47 H          39.8054   -8.4377   42.4047 H         1 2NG         0.0531
     48 H          36.4150   -7.7827   44.9488 H         1 2NG         0.0529
     49 H          35.7958   -5.7737   43.6724 H         1 2NG         0.0528
     50 H          36.1814   -4.3515   42.0096 H         1 2NG         0.0374
     51 H          36.9216   -5.0528   40.5308 H         1 2NG         0.0374
     52 H          37.9136   -4.0493   41.6424 H         1 2NG         0.0374
     53 H          39.0066   -6.5876   40.0074 H         1 2NG         0.2233
     54 H          42.9826   -5.2990   40.6716 H         1 2NG         0.0743
     55 H          39.1886   -4.9710   38.7064 H         1 2NG         0.0710
     56 H          40.3197   -4.4129   36.5831 H         1 2NG         0.0643
     57 H          42.7983   -4.2774   36.4981 H         1 2NG         0.0723
@<TRIPOS>BOND
     1    1    2 ar 
     2    2    3 ar 
     3    2    4 ar 
     4    2    5 1  
     5    5    6 ar 
     6    5    7 ar 
     7    6   10 ar 
     8    6   18 ar 
     9    7    8 ar 
    10    8    9 ar 
    11    9   10 ar 
    12   10   11 ar 
    13   11   12 1  
    14   11   16 ar 
    15   12   13 ar 
    16   12   14 ar 
    17   12   15 ar 
    18   16   17 ar 
    19   17   18 ar 
    20   18   19 1  
    21   19   20 am 
    22   20   21 2  
    23   20   22 1  
    24   22   23 ar 
    25   22   24 ar 
    26   23   28 ar 
    27   24   25 ar 
    28   25   26 ar 
    29   26   27 1  
    30   26   28 ar 
    31   28   29 1  
    32   29   30 am 
    33   30   31 2  
    34   30   32 1  
    35   32   33 ar 
    36   32   34 ar 
    37   33   37 ar 
    38   34   35 ar 
    39   35   36 ar 
    40   36   37 ar 
    41   37   38 1  
    42   38   39 2  
    43   38   40 2  
    44    7   41 1  
    45    8   42 1  
    46    9   43 1  
    47   16   44 1  
    48   17   45 1  
    49   19   46 1  
    50   23   47 1  
    51   24   48 1  
    52   25   49 1  
    53   27   50 1  
    54   27   51 1  
    55   27   52 1  
    56   29   53 1  
    57   33   54 1  
    58   34   55 1  
    59   35   56 1  
    60   36   57 1  
@<TRIPOS>SUBSTRUCTURE
     1 2NG         1

