### 
### Created by X-TOOL on Mon Sep 10 21:13:19 2018
### 

@<TRIPOS>MOLECULE
4ntj_ligand
   59    61     1     0     0
SMALL
GAST_HUCK


@<TRIPOS>ATOM
      1 CAA        15.9210   94.1750   57.3890 C.3       1 AZJ        -0.0373
      2 CAB        13.7710  100.3390   55.7690 C.3       1 AZJ        -0.0110
      3 NAC        18.7320   97.5250   52.1240 N.1       1 AZJ        -0.3412
      4 OAD        19.3140  103.0570   48.9460 O.2       1 AZJ        -0.3951
      5 OAE        13.9550   97.9480   57.2890 O.2       1 AZJ        -0.3639
      6 OAF        17.2190  106.0380   46.4550 O.2       1 AZJ        -0.1486
      7 OAG        19.1540  105.9810   48.0450 O.2       1 AZJ        -0.1486
      8 CAH        17.8800   97.9800   52.7570 C.1       1 AZJ         0.0920
      9 CAI        17.5640  101.5630   43.1690 C.ar      1 AZJ        -0.0687
     10 CAJ        18.0810  102.7790   42.7150 C.ar      1 AZJ        -0.0685
     11 CAK        17.6190  101.2490   44.5310 C.ar      1 AZJ        -0.0685
     12 CAL        18.6560  103.6760   43.6240 C.ar      1 AZJ        -0.0587
     13 CAM        18.1880  102.1480   45.4390 C.ar      1 AZJ        -0.0587
     14 CAN        16.3670   97.8880   54.6700 C.ar      1 AZJ        -0.0042
     15 CAO        15.0310   95.2870   56.8260 C.3       1 AZJ         0.0726
     16 CAP        17.0380  102.9050   51.1080 C.3       1 AZJ        -0.0121
     17 CAQ        17.5770  100.7870   49.7120 C.3       1 AZJ        -0.0121
     18 CAR        16.1740  102.0070   51.9960 C.3       1 AZJ         0.0357
     19 CAS        16.6730   99.9840   50.6710 C.3       1 AZJ         0.0357
     20 CAT        19.3190  104.2820   45.8810 C.3       1 AZJ         0.1227
     21 NAU        15.2540  100.2950   53.9820 N.ar      1 AZJ        -0.2658
     22 NAV        17.4270  104.0470   48.0910 N.am      1 AZJ        -0.1563
     23 OAW        15.7140   96.5520   56.8950 O.3       1 AZJ        -0.2796
     24 CAX        18.0870  103.1560   48.8540 C.2       1 AZJ         0.1991
     25 CAY        14.9350   97.6440   56.6050 C.2       1 AZJ         0.2586
     26 CAZ        14.7980   99.6680   55.0910 C.ar      1 AZJ         0.0415
     27 CBA        18.6840  103.3830   44.9960 C.ar      1 AZJ        -0.0200
     28 CBB        16.8140   98.5660   53.5360 C.ar      1 AZJ         0.1384
     29 CBC        15.3500   98.4110   55.4850 C.ar      1 AZJ         0.0874
     30 CBD        16.2130   99.7860   53.1770 C.ar      1 AZJ         0.1478
     31 CBE        17.1430  102.2920   49.6980 C.3       1 AZJ         0.0540
     32 NBF        16.7030  100.6040   52.0280 N.pl3     1 AZJ        -0.2846
     33 SBG        18.2510  105.1280   47.1410 S.o2      1 AZJ         0.0713
     34 H          15.3884   93.2143   57.3308 H         1 AZJ         0.0255
     35 H          16.1644   94.3962   58.4387 H         1 AZJ         0.0255
     36 H          16.8493   94.1157   56.8019 H         1 AZJ         0.0255
     37 H          13.4702   99.7538   56.6505 H         1 AZJ         0.0451
     38 H          12.9078  100.4615   55.0983 H         1 AZJ         0.0451
     39 H          14.1290  101.3282   56.0904 H         1 AZJ         0.0451
     40 H          17.1215  100.8648   42.4677 H         1 AZJ         0.0559
     41 H          18.0371  103.0278   41.6608 H         1 AZJ         0.0599
     42 H          17.2191  100.3054   44.8841 H         1 AZJ         0.0599
     43 H          19.0833  104.6051   43.2644 H         1 AZJ         0.0557
     44 H          18.2459  101.8891   46.4900 H         1 AZJ         0.0557
     45 H          16.8150   96.9353   54.9282 H         1 AZJ         0.0837
     46 H          14.1029   95.3425   57.4138 H         1 AZJ         0.0608
     47 H          14.7878   95.0620   55.7771 H         1 AZJ         0.0608
     48 H          18.0438  102.9927   51.5447 H         1 AZJ         0.0312
     49 H          16.5795  103.9026   51.0401 H         1 AZJ         0.0312
     50 H          17.4886  100.3733   48.6966 H         1 AZJ         0.0312
     51 H          18.6216  100.7126   50.0486 H         1 AZJ         0.0312
     52 H          15.1471  101.9941   51.6019 H         1 AZJ         0.0530
     53 H          16.1692  102.4118   53.0188 H         1 AZJ         0.0530
     54 H          17.0365   98.9478   50.7344 H         1 AZJ         0.0530
     55 H          15.6411   99.9879   50.2900 H         1 AZJ         0.0530
     56 H          19.7957  105.0645   45.2723 H         1 AZJ         0.0686
     57 H          20.0916  103.7198   46.4260 H         1 AZJ         0.0686
     58 H          16.4271  104.0572   48.0971 H         1 AZJ         0.2143
     59 H          16.1441  102.3353   49.2393 H         1 AZJ         0.0540
@<TRIPOS>BOND
     1   15    1 1  
     2   26    2 1  
     3    8    3 3  
     4   24    4 2  
     5   25    5 2  
     6   33    6 2  
     7   33    7 2  
     8   28    8 1  
     9   10    9 ar 
    10   11    9 ar 
    11   12   10 ar 
    12   13   11 ar 
    13   27   12 ar 
    14   27   13 ar 
    15   28   14 ar 
    16   14   29 ar 
    17   23   15 1  
    18   18   16 1  
    19   16   31 1  
    20   19   17 1  
    21   17   31 1  
    22   32   18 1  
    23   32   19 1  
    24   20   27 1  
    25   33   20 1  
    26   21   26 ar 
    27   30   21 ar 
    28   24   22 am 
    29   22   33 am 
    30   25   23 1  
    31   31   24 1  
    32   29   25 1  
    33   26   29 ar 
    34   30   28 ar 
    35   30   32 1  
    36    1   34 1  
    37    1   35 1  
    38    1   36 1  
    39    2   37 1  
    40    2   38 1  
    41    2   39 1  
    42    9   40 1  
    43   10   41 1  
    44   11   42 1  
    45   12   43 1  
    46   13   44 1  
    47   14   45 1  
    48   15   46 1  
    49   15   47 1  
    50   16   48 1  
    51   16   49 1  
    52   17   50 1  
    53   17   51 1  
    54   18   52 1  
    55   18   53 1  
    56   19   54 1  
    57   19   55 1  
    58   20   56 1  
    59   20   57 1  
    60   22   58 1  
    61   31   59 1  
@<TRIPOS>SUBSTRUCTURE
     1 AZJ         1

