### 
### Created by X-TOOL on Mon Sep 10 21:13:16 2018
### 

@<TRIPOS>MOLECULE
4nuc_ligand
   45    47     1     0     0
SMALL
GAST_HUCK


@<TRIPOS>ATOM
      1 C1        -15.2860   13.2230   -6.4670 C.ar      1 435        -0.0142
      2 C2        -15.8050   11.9990   -6.1170 C.ar      1 435        -0.0443
      3 C3        -15.3150   10.8030   -6.6030 C.ar      1 435         0.0564
      4 C4        -14.1630   10.8270   -7.4010 C.ar      1 435        -0.0443
      5 C5        -13.5730   12.0650   -7.7230 C.ar      1 435        -0.0142
      6 C6        -14.1480   13.2570   -7.2370 C.ar      1 435         0.0988
      7 O7        -13.5680   14.4690   -7.5620 O.3       1 435        -0.3350
      8 C8        -12.3840   12.1140   -8.6080 C.3       1 435        -0.0330
      9 N9        -15.8980    9.5870   -6.1690 N.2       1 435        -0.1867
     10 N10       -15.3980    8.5140   -6.6350 N.2       1 435        -0.1821
     11 C11       -15.8760    7.2620   -6.1850 C.ar      1 435         0.0742
     12 C12       -15.3630    6.0910   -6.7700 C.ar      1 435        -0.0320
     13 C13       -15.7500    4.8480   -6.3670 C.ar      1 435        -0.0292
     14 C14       -16.6190    4.6840   -5.2740 C.ar      1 435         0.1181
     15 C15       -17.0830    5.8880   -4.6470 C.ar      1 435        -0.0292
     16 C16       -16.6860    7.1590   -5.0840 C.ar      1 435        -0.0320
     17 S17       -16.9900    3.1580   -4.7460 S.o2      1 435         0.0940
     18 O18       -17.2610    2.3180   -5.9240 O.2       1 435        -0.1435
     19 O19       -18.0990    3.4170   -3.7990 O.2       1 435        -0.1435
     20 N20       -15.7010    2.4440   -4.0310 N.am      1 435        -0.1690
     21 C21       -15.1150    2.8310   -2.8890 C.ar      1 435         0.1338
     22 N22       -13.9010    2.2750   -2.6020 N.ar      1 435        -0.2899
     23 C23       -13.2220    2.6100   -1.4960 C.ar      1 435        -0.0099
     24 C24       -13.7460    3.5700   -0.6160 C.ar      1 435        -0.0524
     25 C25       -14.9900    4.1590   -0.8940 C.ar      1 435        -0.0586
     26 C26       -15.6940    3.7920   -2.0410 C.ar      1 435        -0.0176
     27 C27       -15.9000   14.4970   -5.9510 C.3       1 435        -0.0330
     28 H         -16.6396   11.9714   -5.4258 H         1 435         0.0534
     29 H         -13.7306    9.9026   -7.7666 H         1 435         0.0534
     30 H         -13.5664   14.5750   -8.5061 H         1 435         0.2466
     31 H         -12.0863   11.0903   -8.8790 H         1 435         0.0368
     32 H         -11.5551   12.6096   -8.0814 H         1 435         0.0368
     33 H         -12.6287   12.6783   -9.5200 H         1 435         0.0368
     34 H         -14.6352    6.1798   -7.5684 H         1 435         0.0665
     35 H         -15.3835    3.9754   -6.8954 H         1 435         0.0647
     36 H         -17.7637    5.8121   -3.8068 H         1 435         0.0647
     37 H         -17.0149    8.0483   -4.5586 H         1 435         0.0665
     38 H         -15.3146    1.6438   -4.4896 H         1 435         0.2229
     39 H         -12.2691    2.1400   -1.2813 H         1 435         0.0768
     40 H         -13.1939    3.8548    0.2723 H         1 435         0.0562
     41 H         -15.4031    4.8985   -0.2176 H         1 435         0.0685
     42 H         -16.6568    4.2335   -2.2714 H         1 435         0.0577
     43 H         -16.7970   14.2588   -5.3605 H         1 435         0.0368
     44 H         -16.1793   15.1392   -6.7992 H         1 435         0.0368
     45 H         -15.1724   15.0238   -5.3162 H         1 435         0.0368
@<TRIPOS>BOND
     1    1    2 ar 
     2    1    6 ar 
     3    1   27 1  
     4    2    3 ar 
     5    3    4 ar 
     6    3    9 1  
     7    4    5 ar 
     8    5    6 ar 
     9    5    8 1  
    10    6    7 1  
    11    9   10 2  
    12   10   11 1  
    13   11   12 ar 
    14   11   16 ar 
    15   12   13 ar 
    16   13   14 ar 
    17   14   15 ar 
    18   14   17 1  
    19   15   16 ar 
    20   17   18 2  
    21   17   19 2  
    22   17   20 am 
    23   20   21 1  
    24   21   22 ar 
    25   21   26 ar 
    26   22   23 ar 
    27   23   24 ar 
    28   24   25 ar 
    29   25   26 ar 
    30    2   28 1  
    31    4   29 1  
    32    7   30 1  
    33    8   31 1  
    34    8   32 1  
    35    8   33 1  
    36   12   34 1  
    37   13   35 1  
    38   15   36 1  
    39   16   37 1  
    40   20   38 1  
    41   23   39 1  
    42   24   40 1  
    43   25   41 1  
    44   26   42 1  
    45   27   43 1  
    46   27   44 1  
    47   27   45 1  
@<TRIPOS>SUBSTRUCTURE
     1 435         1

