### 
### Created by X-TOOL on Mon Sep 10 21:13:16 2018
### 

@<TRIPOS>MOLECULE
4nud_ligand
   44    46     1     0     0
SMALL
GAST_HUCK


@<TRIPOS>ATOM
      1 C1        -14.2510   12.7250   -6.4730 C.2       1 NUD        -0.0154
      2 C2        -14.9410   11.7140   -5.8580 C.2       1 NUD         0.0664
      3 C3        -14.8680   10.4210   -6.4400 C.2       1 NUD         0.1231
      4 C4        -14.0450   10.1590   -7.5760 C.2       1 NUD         0.0052
      5 C5        -13.3160   11.1990   -8.1450 C.3       1 NUD         0.0695
      6 C6        -13.4360   12.5060   -7.6010 C.2       1 NUD         0.0985
      7 O7        -12.7560   13.5150   -8.1040 O.2       1 NUD        -0.4224
      8 C8        -12.3870   10.9820   -9.3530 C.3       1 NUD        -0.0301
      9 N9        -15.5840    9.4420   -5.7800 N.2       1 NUD        -0.1812
     10 N10       -15.5800    8.2350   -6.1990 N.2       1 NUD        -0.1900
     11 C11       -16.3380    7.3030   -5.4660 C.ar      1 NUD         0.0685
     12 C12       -16.5320    6.0330   -5.9940 C.ar      1 NUD        -0.0341
     13 C13       -17.3070    5.1330   -5.2650 C.ar      1 NUD        -0.0304
     14 C14       -17.9870    5.4700   -4.0960 C.ar      1 NUD         0.1170
     15 C15       -17.8180    6.7320   -3.5960 C.ar      1 NUD        -0.0304
     16 C16       -17.0040    7.6840   -4.2340 C.ar      1 NUD        -0.0341
     17 S17       -18.9980    4.3530   -3.3260 S.o2      1 NUD         0.0935
     18 O18       -19.6230    3.6350   -4.3890 O.2       1 NUD        -0.1437
     19 O19       -19.9610    5.0780   -2.4430 O.2       1 NUD        -0.1437
     20 N20       -18.0550    3.3400   -2.4860 N.am      1 NUD        -0.1691
     21 C21       -17.5010    3.6610   -1.2700 C.ar      1 NUD         0.1337
     22 N22       -16.8460    2.6750   -0.6570 N.ar      1 NUD        -0.2899
     23 C23       -16.1610    2.7790    0.5160 C.ar      1 NUD        -0.0099
     24 C24       -16.2670    4.0040    1.1790 C.ar      1 NUD        -0.0524
     25 C25       -16.9370    5.0730    0.5540 C.ar      1 NUD        -0.0586
     26 C26       -17.5730    4.8610   -0.6550 C.ar      1 NUD        -0.0176
     27 N41       -15.6870   11.9420   -4.7640 N.pl3     1 NUD        -0.3269
     28 H         -14.3356   13.7352   -6.0753 H         1 NUD         0.0248
     29 H         -13.9879    9.1549   -7.9937 H         1 NUD         0.1082
     30 H         -12.4796   10.9813   -7.4645 H         1 NUD         0.0805
     31 H         -12.4093    9.9223   -9.6470 H         1 NUD         0.0298
     32 H         -11.3595   11.2654   -9.0810 H         1 NUD         0.0298
     33 H         -12.7282   11.6031  -10.1943 H         1 NUD         0.0298
     34 H         -16.0938    5.7505   -6.9444 H         1 NUD         0.0654
     35 H         -17.3853    4.1143   -5.6272 H         1 NUD         0.0644
     36 H         -18.3276    7.0064   -2.6794 H         1 NUD         0.0644
     37 H         -16.8771    8.6765   -3.8169 H         1 NUD         0.0654
     38 H         -17.8664    2.4365   -2.8708 H         1 NUD         0.2229
     39 H         -15.5696    1.9608    0.9109 H         1 NUD         0.0768
     40 H         -15.8372    4.1304    2.1661 H         1 NUD         0.0562
     41 H         -16.9540    6.0532    1.0165 H         1 NUD         0.0685
     42 H         -18.1352    5.6662   -1.1139 H         1 NUD         0.0577
     43 H         -15.7275   12.8869   -4.3560 H         1 NUD         0.1800
     44 H         -16.2184   11.1719   -4.3333 H         1 NUD         0.1800
@<TRIPOS>BOND
     1    1    2 2  
     2    1    6 1  
     3    2    3 1  
     4    2   27 1  
     5    3    4 2  
     6    3    9 1  
     7    4    5 1  
     8    5    6 1  
     9    5    8 1  
    10    6    7 2  
    11    9   10 2  
    12   10   11 1  
    13   11   12 ar 
    14   11   16 ar 
    15   12   13 ar 
    16   13   14 ar 
    17   14   15 ar 
    18   14   17 1  
    19   15   16 ar 
    20   17   18 2  
    21   17   19 2  
    22   17   20 am 
    23   20   21 1  
    24   21   22 ar 
    25   21   26 ar 
    26   22   23 ar 
    27   23   24 ar 
    28   24   25 ar 
    29   25   26 ar 
    30    1   28 1  
    31    4   29 1  
    32    5   30 1  
    33    8   31 1  
    34    8   32 1  
    35    8   33 1  
    36   12   34 1  
    37   13   35 1  
    38   15   36 1  
    39   16   37 1  
    40   20   38 1  
    41   23   39 1  
    42   24   40 1  
    43   25   41 1  
    44   26   42 1  
    45   27   43 1  
    46   27   44 1  
@<TRIPOS>SUBSTRUCTURE
     1 NUD         1

