### 
### Created by X-TOOL on Mon Sep 10 21:13:16 2018
### 

@<TRIPOS>MOLECULE
4nue_ligand
   47    49     1     0     0
SMALL
GAST_HUCK


@<TRIPOS>ATOM
      1 C1        -13.6920    3.4370   -0.3270 C.ar      1 NUE        -0.0524
      2 C2        -14.9250    4.0470   -0.5820 C.ar      1 NUE        -0.0586
      3 C3        -13.1450    2.5440   -1.2770 C.ar      1 NUE        -0.0099
      4 C4        -15.5810    3.7440   -1.7620 C.ar      1 NUE        -0.0176
      5 N5        -13.7720    2.2800   -2.4210 N.ar      1 NUE        -0.2899
      6 C6        -14.9860    2.8590   -2.6900 C.ar      1 NUE         0.1337
      7 N7        -15.5770    2.5540   -3.8690 N.am      1 NUE        -0.1691
      8 S8        -16.9140    3.3420   -4.4500 S.o2      1 NUE         0.0935
      9 C9        -16.9000    6.0710   -4.4120 C.ar      1 NUE        -0.0304
     10 C10       -16.4730    4.8630   -5.0460 C.ar      1 NUE         0.1170
     11 C11       -16.4940    7.3880   -4.9110 C.ar      1 NUE        -0.0340
     12 C12       -15.6720    5.0230   -6.2120 C.ar      1 NUE        -0.0304
     13 C13       -15.7000    7.4450   -6.0240 C.ar      1 NUE         0.0686
     14 C14       -15.3000    6.2890   -6.6730 C.ar      1 NUE        -0.0340
     15 O15       -17.9500    3.8210   -3.5000 O.2       1 NUE        -0.1437
     16 O16       -17.2400    2.6230   -5.6570 O.2       1 NUE        -0.1437
     17 N17       -15.2090    8.6610   -6.5070 N.2       1 NUE        -0.1901
     18 N18       -15.5960    9.7460   -5.9690 N.2       1 NUE        -0.1847
     19 C19       -15.0190   10.9530   -6.3990 C.2       1 NUE         0.1105
     20 C20       -14.0160   11.0180   -7.4150 C.2       1 NUE        -0.0044
     21 C21       -15.4910   12.1740   -5.8830 C.2       1 NUE         0.0639
     22 C22       -13.4630   12.2070   -7.7450 C.3       1 NUE         0.0670
     23 C23       -14.9880   13.3850   -6.2800 C.2       1 NUE         0.0060
     24 C24       -13.9830   13.4250   -7.2040 C.2       1 NUE         0.1102
     25 N25       -16.5090   12.1360   -4.9590 N.pl3     1 NUE        -0.3358
     26 C26       -15.5070   14.6960   -5.7580 C.3       1 NUE        -0.0427
     27 O27       -13.4250   14.5660   -7.5200 O.2       1 NUE        -0.4170
     28 C28       -12.3540   12.2480   -8.7560 C.3       1 NUE        -0.0314
     29 H         -13.1593    3.6477    0.5933 H         1 NUE         0.0562
     30 H         -15.3569    4.7417    0.1292 H         1 NUE         0.0685
     31 H         -12.1953    2.0644   -1.0693 H         1 NUE         0.0768
     32 H         -16.5486    4.1841   -1.9743 H         1 NUE         0.0577
     33 H         -15.1865    1.8148   -4.4178 H         1 NUE         0.2229
     34 H         -17.5407    6.0115   -3.5396 H         1 NUE         0.0644
     35 H         -16.8148    8.2945   -4.4107 H         1 NUE         0.0655
     36 H         -15.3434    4.1437   -6.7542 H         1 NUE         0.0644
     37 H         -14.6830    6.3679   -7.5608 H         1 NUE         0.0655
     38 H         -13.6969   10.1095   -7.9237 H         1 NUE         0.0987
     39 H         -12.7404   12.1255   -6.9196 H         1 NUE         0.0785
     40 H         -16.8941   11.2307   -4.6540 H         1 NUE         0.1740
     41 H         -16.8863   13.0128   -4.5720 H         1 NUE         0.1740
     42 H         -16.3075   14.5086   -5.0272 H         1 NUE         0.0312
     43 H         -15.9048   15.2915   -6.5929 H         1 NUE         0.0312
     44 H         -14.6885   15.2470   -5.2719 H         1 NUE         0.0312
     45 H         -12.0901   11.2221   -9.0526 H         1 NUE         0.0295
     46 H         -11.4743   12.7400   -8.3156 H         1 NUE         0.0295
     47 H         -12.6849   12.8118   -9.6407 H         1 NUE         0.0295
@<TRIPOS>BOND
     1    1    2 ar 
     2    1    3 ar 
     3    2    4 ar 
     4    3    5 ar 
     5    4    6 ar 
     6    5    6 ar 
     7    6    7 1  
     8    7    8 am 
     9    8   10 1  
    10    8   15 2  
    11    8   16 2  
    12   10    9 ar 
    13    9   11 ar 
    14   10   12 ar 
    15   11   13 ar 
    16   12   14 ar 
    17   13   14 ar 
    18   13   17 1  
    19   17   18 2  
    20   18   19 1  
    21   19   20 2  
    22   19   21 1  
    23   20   22 1  
    24   21   23 2  
    25   21   25 1  
    26   22   24 1  
    27   22   28 1  
    28   23   24 1  
    29   23   26 1  
    30   24   27 2  
    31    1   29 1  
    32    2   30 1  
    33    3   31 1  
    34    4   32 1  
    35    7   33 1  
    36    9   34 1  
    37   11   35 1  
    38   12   36 1  
    39   14   37 1  
    40   20   38 1  
    41   22   39 1  
    42   25   40 1  
    43   25   41 1  
    44   26   42 1  
    45   26   43 1  
    46   26   44 1  
    47   28   45 1  
    48   28   46 1  
    49   28   47 1  
@<TRIPOS>SUBSTRUCTURE
     1 NUE         1

