### 
### Created by X-TOOL on Mon Sep 10 21:13:18 2018
### 

@<TRIPOS>MOLECULE
4nus_ligand
   50    53     1     0     0
SMALL
GAST_HUCK


@<TRIPOS>ATOM
      1 C1        -15.8240    2.2260  -26.8690 C.ar      1 2NK         0.0124
      2 N1        -17.1200    1.9860  -27.0890 N.ar      1 2NK        -0.3031
      3 C2        -17.9500    3.0310  -27.0680 C.ar      1 2NK         0.0055
      4 C3        -17.5500    4.3290  -26.8050 C.ar      1 2NK        -0.0325
      5 C4        -16.1990    4.5740  -26.5410 C.ar      1 2NK        -0.0031
      6 C5        -15.2940    3.4880  -26.6080 C.ar      1 2NK         0.0041
      7 C6        -13.8210    3.6330  -26.4250 C.ar      1 2NK        -0.0255
      8 C7        -15.8330    5.9520  -26.0930 C.ar      1 2NK        -0.0218
      9 C8        -13.1430    2.8640  -25.4720 C.ar      1 2NK        -0.0307
     10 C9        -11.8140    3.0890  -25.2130 C.ar      1 2NK         0.1605
     11 C10       -11.1100    4.0720  -25.8800 C.ar      1 2NK         0.1574
     12 C11       -11.7810    4.8030  -26.8370 C.ar      1 2NK         0.1605
     13 C12       -13.1030    4.5960  -27.1380 C.ar      1 2NK        -0.0307
     14 F1        -11.1840    2.3200  -24.2910 F         1 2NK        -0.1907
     15 C13       -16.2530    7.0730  -26.8050 C.ar      1 2NK        -0.0618
     16 C14       -15.8560    8.3480  -26.4390 C.ar      1 2NK        -0.0404
     17 C15       -15.0250    8.5490  -25.3280 C.ar      1 2NK         0.0444
     18 C16       -14.6190    7.4270  -24.5980 C.ar      1 2NK        -0.0404
     19 C17       -15.0350    6.1570  -24.9660 C.ar      1 2NK        -0.0618
     20 O1         -9.8270    4.4380  -25.7010 O.3       1 2NK        -0.3313
     21 F2        -11.1090    5.7920  -27.4660 F         1 2NK        -0.1907
     22 N2        -14.6490    9.8620  -24.9210 N.pl3     1 2NK        -0.2966
     23 C18       -15.3580   10.9590  -25.5920 C.3       1 2NK         0.0678
     24 C19       -14.7410   12.3030  -25.2500 C.3       1 2NK        -0.0118
     25 N3        -14.7180   12.5130  -23.8050 N.4       1 2NK         0.2359
     26 C20       -13.9290   11.4580  -23.1720 C.3       1 2NK        -0.0118
     27 C21       -14.5150   10.0830  -23.4750 C.3       1 2NK         0.0678
     28 C22       -14.1690   13.8400  -23.4820 C.3       1 2NK        -0.0430
     29 H         -15.1409    1.3847  -26.8953 H         1 2NK         0.0804
     30 H         -19.0001    2.8520  -27.2690 H         1 2NK         0.0793
     31 H         -18.2695    5.1398  -26.8036 H         1 2NK         0.0686
     32 H         -13.6715    2.0850  -24.9345 H         1 2NK         0.0557
     33 H         -13.5847    5.1725  -27.9195 H         1 2NK         0.0557
     34 H         -16.9035    6.9447  -27.6626 H         1 2NK         0.0609
     35 H         -16.1916    9.2006  -27.0182 H         1 2NK         0.0527
     36 H         -13.9730    7.5518  -23.7365 H         1 2NK         0.0527
     37 H         -14.7345    5.3054  -24.3663 H         1 2NK         0.0609
     38 H          -9.4338    3.8922  -25.0302 H         1 2NK         0.2467
     39 H         -16.4101   10.9554  -25.2711 H         1 2NK         0.0569
     40 H         -15.3060   10.8071  -26.6802 H         1 2NK         0.0569
     41 H         -15.3334   13.1015  -25.7206 H         1 2NK         0.0834
     42 H         -13.7111   12.3350  -25.6350 H         1 2NK         0.0834
     43 H         -15.6623   12.4644  -23.4557 H         1 2NK         0.2032
     44 H         -13.9248   11.6156  -22.0834 H         1 2NK         0.0834
     45 H         -12.8980   11.5018  -23.5529 H         1 2NK         0.0834
     46 H         -13.8525    9.3117  -23.0553 H         1 2NK         0.0569
     47 H         -15.5081   10.0069  -23.0082 H         1 2NK         0.0569
     48 H         -14.7775   14.6168  -23.9681 H         1 2NK         0.0778
     49 H         -13.1325   13.9061  -23.8443 H         1 2NK         0.0778
     50 H         -14.1868   13.9889  -22.3923 H         1 2NK         0.0778
@<TRIPOS>BOND
     1    1    2 ar 
     2    1    6 ar 
     3    2    3 ar 
     4    3    4 ar 
     5    4    5 ar 
     6    5    6 ar 
     7    5    8 1  
     8    6    7 1  
     9    7    9 ar 
    10    7   13 ar 
    11    8   15 ar 
    12    8   19 ar 
    13    9   10 ar 
    14   10   11 ar 
    15   10   14 1  
    16   11   12 ar 
    17   11   20 1  
    18   12   13 ar 
    19   12   21 1  
    20   15   16 ar 
    21   16   17 ar 
    22   17   18 ar 
    23   17   22 1  
    24   18   19 ar 
    25   22   23 1  
    26   22   27 1  
    27   23   24 1  
    28   24   25 1  
    29   25   26 1  
    30   25   28 1  
    31   26   27 1  
    32    1   29 1  
    33    3   30 1  
    34    4   31 1  
    35    9   32 1  
    36   13   33 1  
    37   15   34 1  
    38   16   35 1  
    39   18   36 1  
    40   19   37 1  
    41   20   38 1  
    42   23   39 1  
    43   23   40 1  
    44   24   41 1  
    45   24   42 1  
    46   25   43 1  
    47   26   44 1  
    48   26   45 1  
    49   27   46 1  
    50   27   47 1  
    51   28   48 1  
    52   28   49 1  
    53   28   50 1  
@<TRIPOS>SUBSTRUCTURE
     1 2NK         1

