### 
### Created by X-TOOL on Mon Sep 10 21:13:19 2018
### 

@<TRIPOS>MOLECULE
4nvq_ligand
   53    56     1     0     0
SMALL
GAST_HUCK


@<TRIPOS>ATOM
      1 N1         -7.4980    7.0850   12.4230 N.4       1 2OD         0.2353
      2 N3         -6.8760   16.8430   10.3700 N.pl3     1 2OD        -0.3623
      3 C4         -9.0400   14.4110   11.9520 C.ar      1 2OD         0.0383
      4 C5         -7.7030   13.8650   11.9600 C.ar      1 2OD         0.1426
      5 C6         -7.4000   12.6060   12.4960 C.ar      1 2OD         0.0871
      6 C7         -8.5060   11.8430   13.0090 C.ar      1 2OD         0.2412
      7 C8         -6.8790   10.0730   13.4050 C.3       1 2OD         0.0907
      8 C10        -7.7130    7.6260   13.8050 C.3       1 2OD        -0.0292
      9 C13        -6.4540    5.6920   10.8050 C.3       1 2OD        -0.0077
     10 C15        -7.4690   15.8060   10.9930 C.cat     1 2OD         0.0485
     11 C17        -9.5070   16.9780   12.2580 C.3       1 2OD        -0.0771
     12 C16        -8.9770   15.8010   11.3570 C.3       1 2OD         0.0036
     13 C19        -9.9780   16.2470   10.2350 C.3       1 2OD        -0.0771
     14 C18       -10.6400   17.2470   11.2330 C.3       1 2OD        -0.0706
     15 C3        -10.1150   13.6950   12.4590 C.ar      1 2OD         0.0792
     16 N2         -6.7780   14.7230   11.3460 N.pl3     1 2OD        -0.2607
     17 C2         -9.8650   12.3930   13.0010 C.ar      1 2OD         0.2702
     18 O1        -10.8360   11.5820   13.5470 O.3       1 2OD        -0.2355
     19 C1        -12.1900   12.0150   13.6560 C.3       1 2OD         0.0916
     20 O2         -8.2690   10.5500   13.4690 O.3       1 2OD        -0.2672
     21 C9         -6.7510    8.7760   14.2400 C.3       1 2OD         0.0180
     22 C14        -6.2590    6.2380   12.2230 C.3       1 2OD        -0.0317
     23 C12        -7.9650    5.3670   10.7580 C.3       1 2OD        -0.0077
     24 C11        -8.6220    6.2600   11.8600 C.3       1 2OD        -0.0317
     25 H          -7.4008    7.8982   11.8354 H         1 2OD         0.2033
     26 H          -5.8711   16.8036   10.1472 H         1 2OD         0.1741
     27 H          -7.4275   17.6752   10.1165 H         1 2OD         0.1741
     28 H          -6.3848   12.2270   12.5226 H         1 2OD         0.0781
     29 H          -6.2063   10.8418   13.8129 H         1 2OD         0.0649
     30 H          -6.6081    9.8662   12.3591 H         1 2OD         0.0649
     31 H          -7.5898    6.7956   14.5158 H         1 2OD         0.0815
     32 H          -8.7431    8.0077   13.8619 H         1 2OD         0.0815
     33 H          -5.8504    4.7866   10.6442 H         1 2OD         0.0319
     34 H          -6.1893    6.4480   10.0511 H         1 2OD         0.0319
     35 H          -8.7977   17.8108   12.3730 H         1 2OD         0.0151
     36 H          -9.8633   16.6603   13.2490 H         1 2OD         0.0151
     37 H         -10.6491   15.4480    9.8869 H         1 2OD         0.0151
     38 H          -9.4987   16.7266    9.3688 H         1 2OD         0.0151
     39 H         -10.6790   18.2843   10.8691 H         1 2OD         0.0247
     40 H         -11.6389   16.9416   11.5778 H         1 2OD         0.0247
     41 H         -11.1165   14.1096   12.4453 H         1 2OD         0.1217
     42 H          -5.7732   14.5512   11.1987 H         1 2OD         0.2392
     43 H         -12.7934   11.2192   14.1170 H         1 2OD         0.0655
     44 H         -12.5846   12.2407   12.6543 H         1 2OD         0.0655
     45 H         -12.2367   12.9191   14.2808 H         1 2OD         0.0655
     46 H          -6.9634    9.0220   15.2909 H         1 2OD         0.0345
     47 H          -5.7172    8.4109   14.1506 H         1 2OD         0.0345
     48 H          -6.2121    5.4225   12.9597 H         1 2OD         0.0814
     49 H          -5.3458    6.8474   12.2919 H         1 2OD         0.0814
     50 H          -8.1356    4.3021   10.9747 H         1 2OD         0.0319
     51 H          -8.3796    5.6109    9.7687 H         1 2OD         0.0319
     52 H          -9.3939    6.9089   11.4207 H         1 2OD         0.0814
     53 H          -9.0720    5.6347   12.6451 H         1 2OD         0.0814
@<TRIPOS>BOND
     1    8    1 1  
     2    1   22 1  
     3    1   24 1  
     4   10    2 ar 
     5    3    4 ar 
     6   12    3 1  
     7    3   15 ar 
     8    4    5 ar 
     9    4   16 1  
    10    5    6 ar 
    11    6   17 ar 
    12    6   20 1  
    13   20    7 1  
    14    7   21 1  
    15   21    8 1  
    16   22    9 1  
    17    9   23 1  
    18   10   12 1  
    19   10   16 ar 
    20   12   11 1  
    21   11   14 1  
    22   12   13 1  
    23   13   14 1  
    24   15   17 ar 
    25   17   18 1  
    26   18   19 1  
    27   23   24 1  
    28    1   25 1  
    29    2   26 1  
    30    2   27 1  
    31    5   28 1  
    32    7   29 1  
    33    7   30 1  
    34    8   31 1  
    35    8   32 1  
    36    9   33 1  
    37    9   34 1  
    38   11   35 1  
    39   11   36 1  
    40   13   37 1  
    41   13   38 1  
    42   14   39 1  
    43   14   40 1  
    44   15   41 1  
    45   16   42 1  
    46   19   43 1  
    47   19   44 1  
    48   19   45 1  
    49   21   46 1  
    50   21   47 1  
    51   22   48 1  
    52   22   49 1  
    53   23   50 1  
    54   23   51 1  
    55   24   52 1  
    56   24   53 1  
@<TRIPOS>SUBSTRUCTURE
     1 2OD         1

