### 
### Created by X-TOOL on Mon Sep 10 21:13:17 2018
### 

@<TRIPOS>MOLECULE
4nw5_ligand
   52    55     1     0     0
SMALL
GAST_HUCK


@<TRIPOS>ATOM
      1 F         -16.3070    2.1520  -24.8180 F         1 2NR        -0.1856
      2 C8        -15.6170    2.7510  -23.8240 C.ar      1 2NR         0.1318
      3 C9        -15.6800    4.1200  -23.7350 C.ar      1 2NR        -0.0391
      4 C10       -15.0320    4.7470  -22.6830 C.ar      1 2NR        -0.0728
      5 C11       -14.3490    3.9990  -21.7370 C.ar      1 2NR        -0.0364
      6 C12       -14.3120    2.6100  -21.8420 C.ar      1 2NR         0.0979
      7 O2        -13.7690    1.8020  -20.8850 O.3       1 2NR        -0.3203
      8 C13       -13.2940    2.4110  -19.6860 C.3       1 2NR         0.0599
      9 C7        -14.9290    1.9450  -22.9260 C.ar      1 2NR         0.0433
     10 C6        -14.8370    0.4540  -23.1060 C.ar      1 2NR         0.0092
     11 C5        -13.6040   -0.2050  -23.1450 C.ar      1 2NR        -0.0713
     12 C4        -13.5380   -1.5790  -23.3650 C.ar      1 2NR        -0.0805
     13 C3        -14.6890   -2.3400  -23.5210 C.ar      1 2NR        -0.0676
     14 C2        -15.9280   -1.6950  -23.4860 C.ar      1 2NR         0.0273
     15 C1        -15.9800   -0.3230  -23.2900 C.ar      1 2NR         0.1448
     16 N1        -17.2160   -2.2070  -23.6410 N.2       1 2NR        -0.2932
     17 C14       -17.9720   -1.0980  -23.5330 C.2       1 2NR         0.2939
     18 O1        -17.3110    0.0530  -23.3370 O.3       1 2NR        -0.1953
     19 N2        -19.3330   -1.0410  -23.5500 N.pl3     1 2NR        -0.2269
     20 C15       -20.1990    0.0740  -23.5140 C.ar      1 2NR         0.0425
     21 C20       -19.7530    1.3570  -23.2030 C.ar      1 2NR        -0.0283
     22 C19       -20.6520    2.4100  -23.1780 C.ar      1 2NR         0.1027
     23 O3        -20.3390    3.6910  -22.8090 O.3       1 2NR        -0.3306
     24 C21       -19.0000    3.9690  -22.3840 C.3       1 2NR         0.0562
     25 C18       -22.0010    2.1880  -23.4940 C.ar      1 2NR         0.1351
     26 O4        -22.8990    3.2400  -23.5040 O.3       1 2NR        -0.3367
     27 C22       -22.9380    4.0210  -24.7040 C.3       1 2NR         0.0518
     28 C17       -22.4380    0.8960  -23.7960 C.ar      1 2NR         0.1027
     29 C16       -21.5400   -0.1550  -23.8060 C.ar      1 2NR        -0.0283
     30 O5        -23.7850    0.7650  -24.0140 O.3       1 2NR        -0.3306
     31 C23       -24.2930   -0.5330  -24.3060 C.3       1 2NR         0.0562
     32 H         -16.2253    4.6979  -24.4724 H         1 2NR         0.0511
     33 H         -15.0593    5.8274  -22.5995 H         1 2NR         0.0574
     34 H         -13.8438    4.4943  -20.9157 H         1 2NR         0.0506
     35 H         -12.8883    1.6373  -19.0176 H         1 2NR         0.0579
     36 H         -14.1241    2.9300  -19.1846 H         1 2NR         0.0579
     37 H         -12.5032    3.1353  -19.9310 H         1 2NR         0.0579
     38 H         -12.6897    0.3596  -23.0025 H         1 2NR         0.0505
     39 H         -12.5696   -2.0634  -23.4154 H         1 2NR         0.0518
     40 H         -14.6276   -3.4124  -23.6669 H         1 2NR         0.0509
     41 H         -19.8049   -1.9554  -23.5964 H         1 2NR         0.2204
     42 H         -18.7061    1.5302  -22.9814 H         1 2NR         0.0346
     43 H         -18.9116    5.0341  -22.1238 H         1 2NR         0.0572
     44 H         -18.2999    3.7312  -23.1985 H         1 2NR         0.0572
     45 H         -18.7600    3.3553  -21.5032 H         1 2NR         0.0572
     46 H         -23.6834    4.8227  -24.5956 H         1 2NR         0.0564
     47 H         -23.2132    3.3767  -25.5520 H         1 2NR         0.0564
     48 H         -21.9475    4.4635  -24.8859 H         1 2NR         0.0564
     49 H         -21.8804   -1.1569  -24.0412 H         1 2NR         0.0346
     50 H         -25.3814   -0.4758  -24.4548 H         1 2NR         0.0572
     51 H         -24.0726   -1.2102  -23.4676 H         1 2NR         0.0572
     52 H         -23.8175   -0.9156  -25.2212 H         1 2NR         0.0572
@<TRIPOS>BOND
     1    1    2 1  
     2    2    3 ar 
     3    2    9 ar 
     4    3    4 ar 
     5    4    5 ar 
     6    5    6 ar 
     7    6    7 1  
     8    6    9 ar 
     9    7    8 1  
    10    9   10 1  
    11   10   11 ar 
    12   10   15 ar 
    13   11   12 ar 
    14   12   13 ar 
    15   13   14 ar 
    16   14   15 ar 
    17   14   16 1  
    18   15   18 1  
    19   16   17 2  
    20   17   18 1  
    21   17   19 1  
    22   19   20 1  
    23   20   21 ar 
    24   20   29 ar 
    25   21   22 ar 
    26   22   23 1  
    27   22   25 ar 
    28   23   24 1  
    29   25   26 1  
    30   25   28 ar 
    31   26   27 1  
    32   28   29 ar 
    33   28   30 1  
    34   30   31 1  
    35    3   32 1  
    36    4   33 1  
    37    5   34 1  
    38    8   35 1  
    39    8   36 1  
    40    8   37 1  
    41   11   38 1  
    42   12   39 1  
    43   13   40 1  
    44   19   41 1  
    45   21   42 1  
    46   24   43 1  
    47   24   44 1  
    48   24   45 1  
    49   27   46 1  
    50   27   47 1  
    51   27   48 1  
    52   29   49 1  
    53   31   50 1  
    54   31   51 1  
    55   31   52 1  
@<TRIPOS>SUBSTRUCTURE
     1 2NR         1

