### 
### Created by X-TOOL on Mon Sep 10 21:13:17 2018
### 

@<TRIPOS>MOLECULE
4nw6_ligand
   51    55     1     0     0
SMALL
GAST_HUCK


@<TRIPOS>ATOM
      1 C23       -24.3960   -0.6270  -24.5350 C.3       1 2NS         0.0562
      2 O4        -23.8940    0.6630  -24.1800 O.3       1 2NS        -0.3306
      3 C17       -22.5590    0.7780  -23.8880 C.ar      1 2NS         0.1027
      4 C16       -21.6540   -0.2620  -23.9590 C.ar      1 2NS        -0.0283
      5 C18       -22.1370    2.0520  -23.4920 C.ar      1 2NS         0.1351
      6 O3        -23.0450    3.0980  -23.4630 O.3       1 2NS        -0.3367
      7 C22       -23.0340    3.9560  -24.6090 C.3       1 2NS         0.0518
      8 C19       -20.7990    2.2600  -23.1390 C.ar      1 2NS         0.1027
      9 O2        -20.4850    3.5280  -22.7320 O.3       1 2NS        -0.3306
     10 C21       -19.1580    3.7720  -22.2450 C.3       1 2NS         0.0562
     11 C20       -19.8910    1.2150  -23.2150 C.ar      1 2NS        -0.0283
     12 C15       -20.3180   -0.0450  -23.6320 C.ar      1 2NS         0.0425
     13 N4        -19.4710   -1.1740  -23.7200 N.pl3     1 2NS        -0.2269
     14 C14       -18.1180   -1.2690  -23.6630 C.2       1 2NS         0.2942
     15 O1        -17.4180   -0.1100  -23.5160 O.3       1 2NS        -0.1945
     16 N3        -17.4010   -2.4240  -23.6770 N.2       1 2NS        -0.2929
     17 C2        -16.1010   -1.9350  -23.5090 C.ar      1 2NS         0.0285
     18 C3        -14.8820   -2.6140  -23.4270 C.ar      1 2NS        -0.0664
     19 C4        -13.7120   -1.8750  -23.2440 C.ar      1 2NS        -0.0792
     20 C5        -13.7470   -0.4890  -23.1350 C.ar      1 2NS        -0.0695
     21 C6        -14.9580    0.2040  -23.2100 C.ar      1 2NS         0.0092
     22 C1        -16.1160   -0.5440  -23.4070 C.ar      1 2NS         0.1465
     23 C7        -15.0280    1.6910  -23.0200 C.ar      1 2NS         0.0028
     24 C12       -14.3270    2.3480  -21.9220 C.ar      1 2NS         0.0910
     25 N1        -13.5690    1.8820  -20.8590 N.pl3     1 2NS        -0.2499
     26 C13       -13.2650    2.9770  -20.1890 C.2       1 2NS         0.1035
     27 N2        -13.7630    4.1140  -20.7330 N.2       1 2NS        -0.3066
     28 C11       -14.4610    3.7400  -21.8570 C.ar      1 2NS         0.0335
     29 C10       -15.2100    4.4950  -22.7620 C.ar      1 2NS        -0.0617
     30 C9        -15.8800    3.8340  -23.7820 C.ar      1 2NS        -0.0761
     31 C8        -15.7960    2.4510  -23.9100 C.ar      1 2NS        -0.0676
     32 H         -25.4747   -0.5573  -24.7389 H         1 2NS         0.0572
     33 H         -24.2244   -1.3284  -23.7052 H         1 2NS         0.0572
     34 H         -23.8755   -0.9883  -25.4342 H         1 2NS         0.0572
     35 H         -21.9833   -1.2471  -24.2692 H         1 2NS         0.0346
     36 H         -23.7881    4.7467  -24.4823 H         1 2NS         0.0564
     37 H         -23.2667    3.3684  -25.5093 H         1 2NS         0.0564
     38 H         -22.0388    4.4122  -24.7160 H         1 2NS         0.0564
     39 H         -19.0612    4.8297  -21.9588 H         1 2NS         0.0572
     40 H         -18.4288    3.5376  -23.0345 H         1 2NS         0.0572
     41 H         -18.9664    3.1359  -21.3683 H         1 2NS         0.0572
     42 H         -18.8522    1.3771  -22.9510 H         1 2NS         0.0346
     43 H         -19.9608   -2.0710  -23.8483 H         1 2NS         0.2204
     44 H         -14.8459   -3.6947  -23.5041 H         1 2NS         0.0518
     45 H         -12.7600   -2.3902  -23.1859 H         1 2NS         0.0521
     46 H         -12.8238    0.0603  -22.9901 H         1 2NS         0.0517
     47 H         -13.3053    0.9100  -20.6432 H         1 2NS         0.2351
     48 H         -12.6667    2.9681  -19.2791 H         1 2NS         0.1348
     49 H         -15.2669    5.5736  -22.6699 H         1 2NS         0.0550
     50 H         -16.4758    4.4019  -24.4874 H         1 2NS         0.0525
     51 H         -16.3330    1.9550  -24.7104 H         1 2NS         0.0541
@<TRIPOS>BOND
     1    1    2 1  
     2    2    3 1  
     3    3    4 ar 
     4    3    5 ar 
     5    4   12 ar 
     6    5    6 1  
     7    5    8 ar 
     8    6    7 1  
     9    8    9 1  
    10    8   11 ar 
    11    9   10 1  
    12   11   12 ar 
    13   12   13 1  
    14   13   14 1  
    15   14   15 1  
    16   14   16 2  
    17   15   22 1  
    18   16   17 1  
    19   17   18 ar 
    20   17   22 ar 
    21   18   19 ar 
    22   19   20 ar 
    23   20   21 ar 
    24   21   22 ar 
    25   21   23 1  
    26   23   24 ar 
    27   23   31 ar 
    28   24   25 1  
    29   24   28 ar 
    30   25   26 1  
    31   26   27 2  
    32   27   28 1  
    33   28   29 ar 
    34   29   30 ar 
    35   30   31 ar 
    36    1   32 1  
    37    1   33 1  
    38    1   34 1  
    39    4   35 1  
    40    7   36 1  
    41    7   37 1  
    42    7   38 1  
    43   10   39 1  
    44   10   40 1  
    45   10   41 1  
    46   11   42 1  
    47   13   43 1  
    48   18   44 1  
    49   19   45 1  
    50   20   46 1  
    51   25   47 1  
    52   26   48 1  
    53   29   49 1  
    54   30   50 1  
    55   31   51 1  
@<TRIPOS>SUBSTRUCTURE
     1 2NS         1

