### 
### Created by X-TOOL on Mon Sep 10 21:13:16 2018
### 

@<TRIPOS>MOLECULE
4nw7_ligand
   43    46     1     0     0
SMALL
GAST_HUCK


@<TRIPOS>ATOM
      1 O          -9.3810   34.4590    3.9080 O.co2     1 2O5        -0.5667
      2 C16       -10.5850   34.6590    3.8460 C.2       1 2O5         0.0447
      3 O1        -11.3230   33.9600    2.9620 O.co2     1 2O5        -0.5667
      4 C15       -11.1720   35.7220    4.7460 C.3       1 2O5         0.0286
      5 C12       -12.6640   35.4800    4.9350 C.ar      1 2O5        -0.0407
      6 C11       -13.1260   34.6530    5.9670 C.ar      1 2O5        -0.0672
      7 C10       -14.5090   34.5080    6.1870 C.ar      1 2O5        -0.0433
      8 C13       -13.5860   36.1870    4.1490 C.ar      1 2O5        -0.0672
      9 C14       -14.9580   36.0410    4.3600 C.ar      1 2O5        -0.0433
     10 C9        -15.4300   35.2100    5.3760 C.ar      1 2O5         0.0617
     11 N3        -16.7810   34.9950    5.5140 N.pl3     1 2O5        -0.2410
     12 C8        -17.2400   33.8120    5.9680 C.ar      1 2O5         0.2116
     13 N1        -18.5700   33.5840    5.9820 N.ar      1 2O5        -0.2273
     14 C7        -19.0660   32.3980    6.4560 C.ar      1 2O5         0.1016
     15 C17       -20.5250   32.2060    6.5120 C.3       1 2O5         0.0288
     16 C19       -21.2090   33.4720    6.9910 C.3       1 2O5        -0.0308
     17 C18       -21.4150   32.9960    5.5540 C.3       1 2O5        -0.0308
     18 N         -18.2220   31.4210    6.8680 N.ar      1 2O5        -0.2528
     19 N2        -16.3860   32.8350    6.3740 N.ar      1 2O5        -0.2298
     20 C6        -16.8700   31.6420    6.8260 C.ar      1 2O5         0.1156
     21 C2        -16.0060   30.6780    7.2620 C.ar      1 2O5         0.0232
     22 C1        -16.4990   29.4730    7.7430 C.ar      1 2O5        -0.0438
     23 C3        -14.6430   30.9080    7.2270 C.ar      1 2O5        -0.0299
     24 C4        -13.7590   29.9290    7.6530 C.ar      1 2O5         0.0467
     25 CL        -11.9790   30.2200    7.5490 Cl        1 2O5        -0.0693
     26 C5        -14.2470   28.7190    8.1390 C.ar      1 2O5        -0.0427
     27 C         -15.6150   28.4930    8.1870 C.ar      1 2O5        -0.0549
     28 H         -11.0185   36.7110    4.2896 H         1 2O5         0.0568
     29 H         -10.6708   35.6880    5.7246 H         1 2O5         0.0568
     30 H         -12.4187   34.1248    6.5961 H         1 2O5         0.0533
     31 H         -14.8674   33.8586    6.9776 H         1 2O5         0.0524
     32 H         -13.2299   36.8525    3.3710 H         1 2O5         0.0533
     33 H         -15.6603   36.5761    3.7311 H         1 2O5         0.0524
     34 H         -17.4461   35.7424    5.2690 H         1 2O5         0.2196
     35 H         -20.8046   31.1951    6.8435 H         1 2O5         0.0555
     36 H         -20.6146   34.3758    7.1904 H         1 2O5         0.0301
     37 H         -22.0356   33.4099    7.7140 H         1 2O5         0.0301
     38 H         -22.3880   32.5883    5.2424 H         1 2O5         0.0301
     39 H         -20.9669   33.5542    4.7188 H         1 2O5         0.0301
     40 H         -17.5680   29.2955    7.7729 H         1 2O5         0.0675
     41 H         -14.2645   31.8571    6.8652 H         1 2O5         0.0680
     42 H         -13.5586   27.9541    8.4796 H         1 2O5         0.0665
     43 H         -15.9958   27.5532    8.5703 H         1 2O5         0.0632
@<TRIPOS>BOND
     1    1    2 ar 
     2    2    3 ar 
     3    2    4 1  
     4    4    5 1  
     5    5    6 ar 
     6    5    8 ar 
     7    6    7 ar 
     8    7   10 ar 
     9    8    9 ar 
    10    9   10 ar 
    11   10   11 1  
    12   11   12 1  
    13   12   13 ar 
    14   12   19 ar 
    15   13   14 ar 
    16   14   15 1  
    17   14   18 ar 
    18   15   16 1  
    19   15   17 1  
    20   16   17 1  
    21   18   20 ar 
    22   19   20 ar 
    23   20   21 1  
    24   21   22 ar 
    25   21   23 ar 
    26   22   27 ar 
    27   23   24 ar 
    28   24   25 1  
    29   24   26 ar 
    30   26   27 ar 
    31    4   28 1  
    32    4   29 1  
    33    6   30 1  
    34    7   31 1  
    35    8   32 1  
    36    9   33 1  
    37   11   34 1  
    38   15   35 1  
    39   16   36 1  
    40   16   37 1  
    41   17   38 1  
    42   17   39 1  
    43   22   40 1  
    44   23   41 1  
    45   26   42 1  
    46   27   43 1  
@<TRIPOS>SUBSTRUCTURE
     1 2O5         1

