### 
### Created by X-TOOL on Mon Sep 10 21:13:17 2018
### 

@<TRIPOS>MOLECULE
4nwc_ligand
   30    29     1     0     0
SMALL
GAST_HUCK


@<TRIPOS>ATOM
      1 O           2.7780   31.4260   12.7840 O.co2     1 2QE        -0.5643
      2 C           2.4440   30.3670   13.3500 C.2       1 2QE         0.0845
      3 OXT         1.2890   30.0580   13.7150 O.co2     1 2QE        -0.5643
      4 CA          3.5460   29.3370   13.5820 C.3       1 2QE         0.0301
      5 N           4.8450   29.9350   13.2040 N.4       1 2QE         0.2328
      6 CB          3.5420   28.8160   15.0230 C.3       1 2QE         0.0169
      7 CG          4.3430   27.5110   15.2150 C.3       1 2QE         0.0206
      8 CD2         3.5920   26.3490   14.5510 C.2       1 2QE         0.0383
      9 OAG         2.3900   26.5100   14.2570 O.co2     1 2QE        -0.5687
     10 OAD         4.2540   25.3020   14.3330 O.co2     1 2QE        -0.5687
     11 CD1         4.5980   27.2410   16.7080 C.3       1 2QE        -0.0200
     12 CAH         5.6510   28.1730   17.3430 C.3       1 2QE         0.0505
     13 CAN         7.0140   28.0070   16.6440 C.2       1 2QE         0.2336
     14 OAE         7.5450   26.8870   16.5860 O.2       1 2QE        -0.3704
     15 OAK         7.5390   29.1580   16.1450 O.3       1 2QE        -0.2802
     16 CAA         8.6430   28.9910   15.2590 C.3       1 2QE         0.0658
     17 H           3.3594   28.4790   12.9195 H         1 2QE         0.1025
     18 H           5.5807   29.2624   13.3535 H         1 2QE         0.2010
     19 H           5.0163   30.7516   13.7696 H         1 2QE         0.2010
     20 H           4.8233   30.1985   12.2313 H         1 2QE         0.2010
     21 H           2.4998   28.6305   15.3220 H         1 2QE         0.0359
     22 H           3.9778   29.5893   15.6727 H         1 2QE         0.0359
     23 H           5.3175   27.6230   14.7172 H         1 2QE         0.0470
     24 H           4.9441   26.2026   16.8176 H         1 2QE         0.0311
     25 H           3.6496   27.3706   17.2500 H         1 2QE         0.0311
     26 H           5.7587   27.9236   18.4089 H         1 2QE         0.0519
     27 H           5.3179   29.2165   17.2423 H         1 2QE         0.0519
     28 H           8.9896   29.9768   14.9153 H         1 2QE         0.0577
     29 H           8.3302   28.3898   14.3926 H         1 2QE         0.0577
     30 H           9.4612   28.4777   15.7853 H         1 2QE         0.0577
@<TRIPOS>BOND
     1    1    2 ar 
     2    2    3 ar 
     3    2    4 1  
     4    4    5 1  
     5    4    6 1  
     6    6    7 1  
     7    7    8 1  
     8    7   11 1  
     9    8    9 ar 
    10    8   10 ar 
    11   11   12 1  
    12   12   13 1  
    13   13   14 2  
    14   13   15 1  
    15   15   16 1  
    16    4   17 1  
    17    5   18 1  
    18    5   19 1  
    19    5   20 1  
    20    6   21 1  
    21    6   22 1  
    22    7   23 1  
    23   11   24 1  
    24   11   25 1  
    25   12   26 1  
    26   12   27 1  
    27   16   28 1  
    28   16   29 1  
    29   16   30 1  
@<TRIPOS>SUBSTRUCTURE
     1 2QE         1

