### 
### Created by X-TOOL on Mon Sep 10 21:13:19 2018
### 

@<TRIPOS>MOLECULE
4nwd_ligand
   31    30     1     0     0
SMALL
GAST_HUCK


@<TRIPOS>ATOM
      1 O          -1.0890   30.8760  -13.9390 O.co2     1 2QD        -0.5643
      2 C          -2.2190   31.1580  -13.4500 C.2       1 2QD         0.0845
      3 OXT        -2.4940   32.1900  -12.7830 O.co2     1 2QD        -0.5643
      4 CA         -3.3550   30.1580  -13.6710 C.3       1 2QD         0.0301
      5 N          -4.5560   30.6520  -12.9950 N.4       1 2QD         0.2328
      6 CB         -3.5980   29.8990  -15.1760 C.3       1 2QD         0.0169
      7 CG         -4.3130   28.5590  -15.4780 C.3       1 2QD         0.0205
      8 CD2        -3.6190   27.3810  -14.7910 C.2       1 2QD         0.0383
      9 OAG        -2.3580   27.3680  -14.8570 O.co2     1 2QD        -0.5687
     10 OAD        -4.3700   26.5340  -14.2470 O.co2     1 2QD        -0.5687
     11 CD1        -4.3790   28.2400  -16.9910 C.3       1 2QD        -0.0213
     12 CAH        -5.6670   28.7240  -17.6560 C.3       1 2QD         0.0390
     13 CAN        -6.8840   28.6660  -16.7360 C.2       1 2QD         0.1758
     14 OAE        -7.3070   27.5800  -16.2940 O.2       1 2QD        -0.3971
     15 NAK        -7.4100   29.8880  -16.4750 N.am      1 2QD        -0.2900
     16 CAA        -8.6010   29.9590  -15.5970 C.3       1 2QD         0.0195
     17 H          -3.0691   29.2014  -13.2092 H         1 2QD         0.1025
     18 H          -5.3120   30.0000  -13.1341 H         1 2QD         0.2010
     19 H          -4.8115   31.5492  -13.3768 H         1 2QD         0.2010
     20 H          -4.3714   30.7468  -12.0086 H         1 2QD         0.2010
     21 H          -2.6243   29.8942  -15.6876 H         1 2QD         0.0359
     22 H          -4.2165   30.7178  -15.5723 H         1 2QD         0.0359
     23 H          -5.3407   28.6358  -15.0934 H         1 2QD         0.0470
     24 H          -4.3072   27.1501  -17.1214 H         1 2QD         0.0310
     25 H          -3.5261   28.7257  -17.4876 H         1 2QD         0.0310
     26 H          -5.8641   28.0926  -18.5349 H         1 2QD         0.0503
     27 H          -5.5228   29.7659  -17.9779 H         1 2QD         0.0503
     28 H          -7.0062   30.7163  -16.8634 H         1 2QD         0.1847
     29 H          -8.9084   31.0087  -15.4802 H         1 2QD         0.0484
     30 H          -8.3556   29.5370  -14.6113 H         1 2QD         0.0484
     31 H          -9.4235   29.3841  -16.0475 H         1 2QD         0.0484
@<TRIPOS>BOND
     1    1    2 ar 
     2    2    3 ar 
     3    2    4 1  
     4    4    5 1  
     5    4    6 1  
     6    6    7 1  
     7    7    8 1  
     8    7   11 1  
     9    8    9 ar 
    10    8   10 ar 
    11   11   12 1  
    12   12   13 1  
    13   13   14 2  
    14   13   15 am 
    15   15   16 1  
    16    4   17 1  
    17    5   18 1  
    18    5   19 1  
    19    5   20 1  
    20    6   21 1  
    21    6   22 1  
    22    7   23 1  
    23   11   24 1  
    24   11   25 1  
    25   12   26 1  
    26   12   27 1  
    27   15   28 1  
    28   16   29 1  
    29   16   30 1  
    30   16   31 1  
@<TRIPOS>SUBSTRUCTURE
     1 2QD         1

