### 
### Created by X-TOOL on Mon Sep 10 21:13:18 2018
### 

@<TRIPOS>MOLECULE
4nwk_ligand
   97   101     1     0     0
SMALL
GAST_HUCK


@<TRIPOS>ATOM
      1 C1         50.3910   76.0990    0.4210 C.3       1 2R8         0.1364
      2 C2         51.5070   76.0620    1.4510 C.3       1 2R8         0.0215
      3 C3         52.7870   76.3790    0.6760 C.3       1 2R8         0.1124
      4 C7         49.0200   76.3770    1.0350 C.2       1 2R8         0.2014
      5 C10        53.8200   74.3620    0.0000 C.ar      1 2R8         0.1732
      6 C12        55.4130   73.3800    1.6190 C.ar      1 2R8        -0.0139
      7 C13        55.7630   72.3620    0.6540 C.ar      1 2R8        -0.0524
      8 C14        55.1230   72.3300   -0.6460 C.ar      1 2R8        -0.0216
      9 C15        54.0870   73.3780   -1.0220 C.ar      1 2R8         0.0370
     10 C16        46.8020   75.5390    1.4270 C.3       1 2R8         0.1495
     11 C19        46.4070   75.7900    2.8460 C.2       1 2R8         0.2469
     12 C20        45.1590   77.2220    0.2590 C.2       1 2R8        -0.0848
     13 C21        44.6990   78.3850   -0.2230 C.2       1 2R8        -0.1173
     14 N23        47.3560   75.8390    3.7730 N.am      1 2R8        -0.1550
     15 C27        48.1500   76.0450    6.3160 C.3       1 2R8         0.1004
     16 C30        55.4320   71.3390   -1.6450 C.ar      1 2R8        -0.0261
     17 C31        54.7620   71.3780   -2.9420 C.ar      1 2R8         0.0948
     18 C32        53.7640   72.3870   -3.2880 C.ar      1 2R8        -0.0243
     19 C33        53.4220   73.3920   -2.3180 C.ar      1 2R8        -0.0474
     20 C34        50.1350   77.4350   -1.5690 C.2       1 2R8         0.2070
     21 C4         52.2570   77.6040   -0.0840 C.3       1 2R8         0.0686
     22 N5         50.9070   77.1240   -0.5030 N.am      1 2R8        -0.2468
     23 O6         52.9710   75.3970   -0.3180 O.3       1 2R8        -0.2869
     24 O8         48.7620   77.4900    1.4950 O.2       1 2R8        -0.3947
     25 N9         48.1440   75.3150    1.0230 N.am      1 2R8        -0.2717
     26 N11        54.4560   74.3160    1.2340 N.ar      1 2R8        -0.2837
     27 C17        46.2500   76.1850    0.1980 C.3       1 2R8         0.0219
     28 C18        45.9820   74.7500    0.4850 C.3       1 2R8        -0.0026
     29 O22        45.2170   75.9350    3.0980 O.2       1 2R8        -0.3401
     30 S24        46.7980   76.0880    5.2620 S.o2      1 2R8         0.0645
     31 O25        45.9770   75.0350    5.7300 O.2       1 2R8        -0.1503
     32 O26        46.3550   77.4460    5.3570 O.2       1 2R8        -0.1503
     33 C28        48.5690   74.7390    6.8850 C.3       1 2R8        -0.0268
     34 C29        48.1930   75.8850    7.7670 C.3       1 2R8        -0.0268
     35 O35        49.0290   76.9350   -1.7570 O.2       1 2R8        -0.3942
     36 C36        50.7090   78.4400   -2.5590 C.3       1 2R8         0.1378
     37 C37        49.9870   79.8040   -2.4850 C.3       1 2R8         0.0025
     38 C38        48.5360   79.6940   -2.9930 C.3       1 2R8        -0.0558
     39 C39        50.0400   80.3040   -1.0130 C.3       1 2R8        -0.0558
     40 C40        50.7260   80.7810   -3.4200 C.3       1 2R8        -0.0558
     41 N41        50.5840   77.9200   -3.9060 N.am      1 2R8        -0.2407
     42 C42        51.6220   77.2740   -4.4810 C.2       1 2R8         0.3223
     43 O43        52.6950   77.1640   -3.9700 O.2       1 2R8        -0.3774
     44 O44        51.2950   76.7660   -5.6650 O.3       1 2R8        -0.2580
     45 C45        52.1640   75.9580   -6.4600 C.3       1 2R8         0.0905
     46 C46        52.5030   74.6520   -5.7400 C.3       1 2R8        -0.0320
     47 C47        51.3620   75.5890   -7.7270 C.3       1 2R8        -0.0320
     48 C48        53.4370   76.7630   -6.8300 C.3       1 2R8        -0.0320
     49 O49        55.0240   70.4730   -3.9530 O.3       1 2R8        -0.3181
     50 C50        55.9090   69.3910   -3.6590 C.3       1 2R8         0.0607
     51 H          50.3237   75.1332   -0.1011 H         1 2R8         0.0803
     52 H          51.5729   75.0651    1.9112 H         1 2R8         0.0343
     53 H          51.3340   76.8161    2.2329 H         1 2R8         0.0343
     54 H          53.6782   76.5471    1.2984 H         1 2R8         0.0686
     55 H          55.8750   73.4134    2.5991 H         1 2R8         0.0718
     56 H          56.5096   71.6171    0.9046 H         1 2R8         0.0553
     57 H          44.4447   76.8858    1.0091 H         1 2R8         0.0674
     58 H          43.7674   78.8016    0.1571 H         1 2R8         0.0290
     59 H          45.2569   78.9133   -0.9947 H         1 2R8         0.0290
     60 H          48.3282   75.7311    3.5652 H         1 2R8         0.2148
     61 H          48.9101   76.7114    5.8823 H         1 2R8         0.0559
     62 H          56.1612   70.5651   -1.4341 H         1 2R8         0.0498
     63 H          53.2881   72.3783   -4.2619 H         1 2R8         0.0586
     64 H          52.6805   74.1486   -2.5477 H         1 2R8         0.0655
     65 H          52.8874   77.8429   -0.9532 H         1 2R8         0.0555
     66 H          52.1861   78.4850    0.5708 H         1 2R8         0.0555
     67 H          48.4465   74.4061    0.7360 H         1 2R8         0.1841
     68 H          46.9349   76.4505   -0.6208 H         1 2R8         0.0489
     69 H          44.9708   74.4281    0.7746 H         1 2R8         0.0307
     70 H          46.4526   73.9701   -0.1317 H         1 2R8         0.0307
     71 H          49.6180   74.4156    6.8148 H         1 2R8         0.0285
     72 H          47.9089   73.8628    6.8044 H         1 2R8         0.0285
     73 H          47.2569   75.8500    8.3435 H         1 2R8         0.0285
     74 H          48.9660   76.4028    8.3538 H         1 2R8         0.0285
     75 H          51.7735   78.5911   -2.3267 H         1 2R8         0.0805
     76 H          48.0492   80.6783   -2.9282 H         1 2R8         0.0237
     77 H          47.9846   78.9709   -2.3741 H         1 2R8         0.0237
     78 H          48.5385   79.3544   -4.0393 H         1 2R8         0.0237
     79 H          51.0881   80.3699   -0.6857 H         1 2R8         0.0237
     80 H          49.4977   79.5985   -0.3663 H         1 2R8         0.0237
     81 H          49.5718   81.2971   -0.9460 H         1 2R8         0.0237
     82 H          50.6758   80.4081   -4.4536 H         1 2R8         0.0237
     83 H          51.7783   80.8605   -3.1096 H         1 2R8         0.0237
     84 H          50.2514   81.7718   -3.3642 H         1 2R8         0.0237
     85 H          49.7287   78.0394   -4.4103 H         1 2R8         0.1899
     86 H          53.1719   74.0484   -6.3710 H         1 2R8         0.0260
     87 H          51.5777   74.0902   -5.5444 H         1 2R8         0.0260
     88 H          53.0033   74.8780   -4.7868 H         1 2R8         0.0260
     89 H          51.9826   74.9621   -8.3842 H         1 2R8         0.0260
     90 H          51.0755   76.5075   -8.2601 H         1 2R8         0.0260
     91 H          50.4566   75.0344   -7.4393 H         1 2R8         0.0260
     92 H          54.1022   76.1361   -7.4419 H         1 2R8         0.0260
     93 H          53.9604   77.0643   -5.9107 H         1 2R8         0.0260
     94 H          53.1513   77.6594   -7.3999 H         1 2R8         0.0260
     95 H          56.0224   68.7574   -4.5510 H         1 2R8         0.0580
     96 H          55.4950   68.7924   -2.8343 H         1 2R8         0.0580
     97 H          56.8911   69.7900   -3.3655 H         1 2R8         0.0580
@<TRIPOS>BOND
     1    1    2 1  
     2    4    1 1  
     3    1   22 1  
     4    2    3 1  
     5    3   21 1  
     6    3   23 1  
     7    4   24 2  
     8   25    4 am 
     9    5    9 ar 
    10   23    5 1  
    11    5   26 ar 
    12    6    7 ar 
    13   26    6 ar 
    14    8    7 ar 
    15    9    8 ar 
    16    8   16 ar 
    17    9   19 ar 
    18   10   11 1  
    19   10   25 1  
    20   27   10 1  
    21   10   28 1  
    22   11   14 am 
    23   11   29 2  
    24   12   13 2  
    25   12   27 1  
    26   14   30 am 
    27   30   15 1  
    28   15   33 1  
    29   15   34 1  
    30   16   17 ar 
    31   17   18 ar 
    32   17   49 1  
    33   18   19 ar 
    34   22   20 am 
    35   20   35 2  
    36   20   36 1  
    37   21   22 1  
    38   27   28 1  
    39   30   31 2  
    40   30   32 2  
    41   33   34 1  
    42   36   37 1  
    43   36   41 1  
    44   37   38 1  
    45   37   39 1  
    46   37   40 1  
    47   41   42 am 
    48   42   43 2  
    49   42   44 1  
    50   44   45 1  
    51   45   46 1  
    52   45   47 1  
    53   45   48 1  
    54   49   50 1  
    55    1   51 1  
    56    2   52 1  
    57    2   53 1  
    58    3   54 1  
    59    6   55 1  
    60    7   56 1  
    61   12   57 1  
    62   13   58 1  
    63   13   59 1  
    64   14   60 1  
    65   15   61 1  
    66   16   62 1  
    67   18   63 1  
    68   19   64 1  
    69   21   65 1  
    70   21   66 1  
    71   25   67 1  
    72   27   68 1  
    73   28   69 1  
    74   28   70 1  
    75   33   71 1  
    76   33   72 1  
    77   34   73 1  
    78   34   74 1  
    79   36   75 1  
    80   38   76 1  
    81   38   77 1  
    82   38   78 1  
    83   39   79 1  
    84   39   80 1  
    85   39   81 1  
    86   40   82 1  
    87   40   83 1  
    88   40   84 1  
    89   41   85 1  
    90   46   86 1  
    91   46   87 1  
    92   46   88 1  
    93   47   89 1  
    94   47   90 1  
    95   47   91 1  
    96   48   92 1  
    97   48   93 1  
    98   48   94 1  
    99   50   95 1  
   100   50   96 1  
   101   50   97 1  
@<TRIPOS>SUBSTRUCTURE
     1 2R8         1

