### 
### Created by X-TOOL on Mon Sep 10 21:13:18 2018
### 

@<TRIPOS>MOLECULE
4nwm_ligand
   79    84     1     0     0
SMALL
GAST_HUCK


@<TRIPOS>ATOM
      1 C16        11.6740   20.8870   22.6770 C.ar      1 2P5        -0.0786
      2 C17        10.8710   20.8770   21.5410 C.ar      1 2P5        -0.0701
      3 C20        18.0840   22.9770   20.4610 C.ar      1 2P5        -0.0139
      4 C24        17.7300   20.6410   19.9620 C.ar      1 2P5        -0.0139
      5 C8          4.8500   17.3020   19.9970 C.ar      1 2P5        -0.0514
      6 C10         6.7800   17.6030   21.4420 C.ar      1 2P5        -0.0514
      7 C21        19.4160   22.8720   20.0640 C.ar      1 2P5        -0.0356
      8 C23        19.0670   20.5520   19.5500 C.ar      1 2P5        -0.0356
      9 C15        13.0940   20.8630   22.5480 C.ar      1 2P5        -0.0444
     10 C7          5.4700   18.0730   18.9920 C.ar      1 2P5        -0.0322
     11 C11         7.4280   18.3530   20.4400 C.ar      1 2P5        -0.0322
     12 C5          8.9210   21.7860   15.0500 C.2       1 2P5         0.1113
     13 C12        11.4610   20.8250   20.2440 C.ar      1 2P5        -0.0011
     14 C9          5.5050   17.0650   21.2010 C.ar      1 2P5         0.0380
     15 C19        17.2320   21.8630   20.4030 C.ar      1 2P5         0.0828
     16 C22        19.9440   21.6560   19.5880 C.ar      1 2P5        -0.0451
     17 C13        12.8790   20.7860   20.0910 C.ar      1 2P5        -0.0092
     18 C3          8.8200   20.8060   16.9830 C.ar      1 2P5         0.1578
     19 C6          6.7520   18.5900   19.1990 C.ar      1 2P5         0.0690
     20 C14        13.6720   20.8330   21.2670 C.ar      1 2P5         0.0731
     21 C2         10.0070   21.5750   16.9940 C.ar      1 2P5         0.1005
     22 C4          8.5380   20.0390   18.1470 C.ar      1 2P5         0.1737
     23 C1         10.5380   20.8430   19.0800 C.ar      1 2P5         0.0823
     24 C25         4.8590   16.1870   22.2450 C.2       1 2P5         0.1989
     25 C18        15.7700   22.0440   20.7180 C.2       1 2P5         0.2497
     26 C27         4.0140   13.9440   23.0780 C.3       1 2P5         0.0566
     27 C30         5.1760   14.0230   20.8870 C.3       1 2P5         0.0566
     28 C28         3.0060   13.0220   22.4330 C.3       1 2P5         0.0680
     29 C29         4.1060   13.0900   20.3670 C.3       1 2P5         0.0680
     30 C26        13.5460   20.6280   18.7340 C.3       1 2P5        -0.0321
     31 C32        22.3070   21.2200   20.3430 C.3       1 2P5        -0.0831
     32 C33        21.9450   22.8710   18.5290 C.3       1 2P5        -0.0831
     33 C34        21.6700   20.5150   18.0640 C.3       1 2P5        -0.0831
     34 C31        21.4270   21.5690   19.1400 C.3       1 2P5        -0.0435
     35 N4          8.1530   20.9570   15.7790 N.pl3     1 2P5        -0.2404
     36 N2         10.8940   21.6390   18.0370 N.ar      1 2P5        -0.2926
     37 N1          9.4030   20.0360   19.1990 N.ar      1 2P5        -0.2639
     38 N3         10.0770   22.1920   15.7630 N.2       1 2P5        -0.2860
     39 N7          4.6620   14.7790   22.0480 N.am      1 2P5        -0.2697
     40 N5          7.3470   19.3900   18.1720 N.pl3     1 2P5        -0.2511
     41 N6         15.0860   20.8940   21.0510 N.am      1 2P5        -0.2319
     42 O2          4.5350   16.7170   23.3040 O.2       1 2P5        -0.3900
     43 O1         15.2150   23.1370   20.6950 O.2       1 2P5        -0.3622
     44 O3          3.6000   12.2410   21.3980 O.3       1 2P5        -0.3758
     45 H          11.2199   20.9131   23.6610 H         1 2P5         0.0530
     46 H           9.7922   20.9089   21.6423 H         1 2P5         0.0501
     47 H          17.7028   23.9271   20.8176 H         1 2P5         0.0741
     48 H          17.0903   19.7662   19.9372 H         1 2P5         0.0741
     49 H           3.8600   16.8929   19.8307 H         1 2P5         0.0640
     50 H           7.2651   17.4415   22.3978 H         1 2P5         0.0640
     51 H          20.0582   23.7433   20.1227 H         1 2P5         0.0854
     52 H          19.4403   19.6004   19.1892 H         1 2P5         0.0854
     53 H          13.7228   20.8679   23.4310 H         1 2P5         0.0503
     54 H           4.9524   18.2647   18.0591 H         1 2P5         0.0550
     55 H           8.4248   18.7454   20.6060 H         1 2P5         0.0550
     56 H           8.6840   22.1061   14.0364 H         1 2P5         0.1402
     57 H           4.7778   13.3448   23.5953 H         1 2P5         0.0544
     58 H           3.5026   14.5925   23.8045 H         1 2P5         0.0544
     59 H           5.4644   14.7266   20.0922 H         1 2P5         0.0544
     60 H           6.0543   13.4361   21.1937 H         1 2P5         0.0544
     61 H           2.1929   13.6256   22.0035 H         1 2P5         0.0580
     62 H           2.5965   12.3476   23.1995 H         1 2P5         0.0580
     63 H           4.5343   12.4656   19.5691 H         1 2P5         0.0580
     64 H           3.2780   13.6887   19.9596 H         1 2P5         0.0580
     65 H          12.7774   20.6122   17.9473 H         1 2P5         0.0374
     66 H          14.1130   19.6857   18.7116 H         1 2P5         0.0374
     67 H          14.2302   21.4718   18.5612 H         1 2P5         0.0374
     68 H          23.3577   21.1588   20.0232 H         1 2P5         0.0139
     69 H          21.9931   20.2509   20.7581 H         1 2P5         0.0139
     70 H          22.2026   21.9995   21.1121 H         1 2P5         0.0139
     71 H          21.3254   23.1407   17.6610 H         1 2P5         0.0139
     72 H          22.9880   22.7354   18.2070 H         1 2P5         0.0139
     73 H          21.8943   23.6738   19.2793 H         1 2P5         0.0139
     74 H          21.3221   19.5358   18.4247 H         1 2P5         0.0139
     75 H          22.7454   20.4619   17.8390 H         1 2P5         0.0139
     76 H          21.1177   20.7873   17.1526 H         1 2P5         0.0139
     77 H           7.2595   20.5264   15.5011 H         1 2P5         0.2379
     78 H           6.7815   19.4885   17.3168 H         1 2P5         0.2176
     79 H          15.6112   20.0485   21.1478 H         1 2P5         0.2238
@<TRIPOS>BOND
     1    2    1 ar 
     2    1    9 ar 
     3   13    2 ar 
     4    3    7 ar 
     5   15    3 ar 
     6    4    8 ar 
     7   15    4 ar 
     8    5   10 ar 
     9   14    5 ar 
    10    6   11 ar 
    11   14    6 ar 
    12    7   16 ar 
    13    8   16 ar 
    14   20    9 ar 
    15   10   19 ar 
    16   11   19 ar 
    17   35   12 1  
    18   12   38 2  
    19   13   17 ar 
    20   23   13 1  
    21   24   14 1  
    22   25   15 1  
    23   16   34 1  
    24   17   20 ar 
    25   17   30 1  
    26   18   21 ar 
    27   22   18 ar 
    28   18   35 1  
    29   19   40 1  
    30   20   41 1  
    31   21   36 ar 
    32   21   38 1  
    33   22   37 ar 
    34   40   22 1  
    35   23   36 ar 
    36   37   23 ar 
    37   39   24 am 
    38   24   42 2  
    39   41   25 am 
    40   25   43 2  
    41   26   28 1  
    42   39   26 1  
    43   27   29 1  
    44   27   39 1  
    45   28   44 1  
    46   29   44 1  
    47   34   31 1  
    48   34   32 1  
    49   34   33 1  
    50    1   45 1  
    51    2   46 1  
    52    3   47 1  
    53    4   48 1  
    54    5   49 1  
    55    6   50 1  
    56    7   51 1  
    57    8   52 1  
    58    9   53 1  
    59   10   54 1  
    60   11   55 1  
    61   12   56 1  
    62   26   57 1  
    63   26   58 1  
    64   27   59 1  
    65   27   60 1  
    66   28   61 1  
    67   28   62 1  
    68   29   63 1  
    69   29   64 1  
    70   30   65 1  
    71   30   66 1  
    72   30   67 1  
    73   31   68 1  
    74   31   69 1  
    75   31   70 1  
    76   32   71 1  
    77   32   72 1  
    78   32   73 1  
    79   33   74 1  
    80   33   75 1  
    81   33   76 1  
    82   35   77 1  
    83   40   78 1  
    84   41   79 1  
@<TRIPOS>SUBSTRUCTURE
     1 2P5         1

