### 
### Created by X-TOOL on Mon Sep 10 21:13:22 2018
### 

@<TRIPOS>MOLECULE
4nxo_ligand
   55    58     1     0     0
SMALL
GAST_HUCK


@<TRIPOS>ATOM
      1 C10       168.3790    2.8390  -61.3860 C.ar      1 2H7         0.0458
      2 C13       168.4730    4.7850  -62.8170 C.ar      1 2H7        -0.0223
      3 C15       170.1600    4.4540  -61.1320 C.ar      1 2H7        -0.0223
      4 C20       161.4850    4.8160  -62.9400 C.ar      1 2H7        -0.0548
      5 C21       162.3840    5.7700  -63.5790 C.ar      1 2H7        -0.0259
      6 C22       163.6780    5.4200  -63.8680 C.ar      1 2H7        -0.0222
      7 C24       163.2850    3.1880  -62.9200 C.ar      1 2H7        -0.0565
      8 C26       162.7920    8.0050  -64.5380 C.ar      1 2H7        -0.0637
      9 C28       164.5710    6.3580  -64.5010 C.ar      1 2H7        -0.0568
     10 C01       161.6140    1.1080  -62.1700 C.3       1 2H7         0.1120
     11 N02       162.5280    0.6580  -61.1450 N.pl3     1 2H7        -0.1739
     12 C03       163.8860    0.8260  -61.2470 C.2       1 2H7         0.0720
     13 C04       164.4370    0.2590  -60.0520 C.2       1 2H7         0.0589
     14 N05       163.3730   -0.2070  -59.3200 N.2       1 2H7        -0.2245
     15 N06       162.2510    0.0450  -60.0010 N.2       1 2H7        -0.1014
     16 C07       165.9380    0.2320  -59.7230 C.3       1 2H7         0.0648
     17 N08       166.5100    1.4960  -60.1110 N.am      1 2H7        -0.2788
     18 C09       167.7100    1.5110  -60.9430 C.2       1 2H7         0.2032
     19 O11       168.2150    0.4480  -61.2930 O.2       1 2H7        -0.3865
     20 C12       167.8430    3.5880  -62.4290 C.ar      1 2H7        -0.0437
     21 C14       169.6260    5.2080  -62.1720 C.ar      1 2H7         0.1375
     22 C16       169.5330    3.2660  -60.7450 C.ar      1 2H7        -0.0437
     23 C18       161.0410    2.4890  -61.9370 C.3       1 2H7         0.0166
     24 C19       161.9470    3.5380  -62.6160 C.ar      1 2H7        -0.0389
     25 C23       164.1560    4.1010  -63.5350 C.ar      1 2H7        -0.0567
     26 C25       161.9210    7.0880  -63.9160 C.ar      1 2H7        -0.0578
     27 C27       164.1170    7.6410  -64.8270 C.ar      1 2H7        -0.0634
     28 C29       160.6960    0.0570  -62.7600 C.3       1 2H7         0.0739
     29 C30       159.3990   -0.2080  -62.0220 C.2       1 2H7         0.2022
     30 N31       159.0720   -1.5450  -61.6540 N.am      1 2H7        -0.1641
     31 O32       157.9050   -1.8100  -60.9910 O.3       1 2H7        -0.2717
     32 O33       158.6350    0.6890  -61.7490 O.2       1 2H7        -0.3968
     33 F17       170.2330    6.3590  -62.5480 F         1 2H7        -0.1794
     34 H1        168.0559    5.3785  -63.6226 H         1 2H7         0.0616
     35 H2        171.0582    4.7862  -60.6240 H         1 2H7         0.0616
     36 H3        160.4621    5.0974  -62.7173 H         1 2H7         0.0531
     37 H4        163.6437    2.1954  -62.6729 H         1 2H7         0.0586
     38 H5        162.4371    8.9966  -64.7947 H         1 2H7         0.0611
     39 H6        165.5920    6.0702  -64.7240 H         1 2H7         0.0619
     40 H7        162.2958    1.2926  -63.0132 H         1 2H7         0.0733
     41 H8        164.4314    1.2930  -62.0657 H         1 2H7         0.0899
     42 H9        166.4257   -0.5828  -60.2782 H         1 2H7         0.0636
     43 H10       166.0792    0.0759  -58.6433 H         1 2H7         0.0636
     44 H11       166.0900    2.3535  -59.8139 H         1 2H7         0.1863
     45 H12       166.9472    3.2521  -62.9386 H         1 2H7         0.0659
     46 H13       169.9513    2.6744  -59.9387 H         1 2H7         0.0659
     47 H14       160.9927    2.6894  -60.8565 H         1 2H7         0.0462
     48 H15       160.0295    2.5444  -62.3658 H         1 2H7         0.0462
     49 H16       165.1783    3.8172  -63.7575 H         1 2H7         0.0620
     50 H17       160.9007    7.3773  -63.6916 H         1 2H7         0.0603
     51 H18       164.7855    8.3508  -65.3007 H         1 2H7         0.0598
     52 H19       161.2555   -0.8892  -62.8002 H         1 2H7         0.0536
     53 H20       160.4390    0.3747  -63.7813 H         1 2H7         0.0536
     54 H21       159.6972   -2.2917  -61.8809 H         1 2H7         0.2216
     55 H22       157.8958   -1.3373  -60.1671 H         1 2H7         0.2490
@<TRIPOS>BOND
     1   18    1 1  
     2    1   20 ar 
     3    1   22 ar 
     4   20    2 ar 
     5    2   21 ar 
     6    3   21 ar 
     7   22    3 ar 
     8    4    5 ar 
     9   24    4 ar 
    10    5    6 ar 
    11    5   26 ar 
    12    6    9 ar 
    13   25    6 ar 
    14   24    7 ar 
    15    7   25 ar 
    16   26    8 ar 
    17    8   27 ar 
    18    9   27 ar 
    19   10   11 1  
    20   23   10 1  
    21   10   28 1  
    22   11   12 1  
    23   11   15 1  
    24   12   13 2  
    25   14   13 1  
    26   13   16 1  
    27   15   14 2  
    28   16   17 1  
    29   17   18 am 
    30   18   19 2  
    31   21   33 1  
    32   23   24 1  
    33   28   29 1  
    34   29   30 am 
    35   29   32 2  
    36   30   31 1  
    37    2   34 1  
    38    3   35 1  
    39    4   36 1  
    40    7   37 1  
    41    8   38 1  
    42    9   39 1  
    43   10   40 1  
    44   12   41 1  
    45   16   42 1  
    46   16   43 1  
    47   17   44 1  
    48   20   45 1  
    49   22   46 1  
    50   23   47 1  
    51   23   48 1  
    52   25   49 1  
    53   26   50 1  
    54   27   51 1  
    55   28   52 1  
    56   28   53 1  
    57   30   54 1  
    58   31   55 1  
@<TRIPOS>SUBSTRUCTURE
     1 2H7         1

