### 
### Created by X-TOOL on Mon Sep 10 21:13:18 2018
### 

@<TRIPOS>MOLECULE
4nxs_ligand
   38    39     1     0     0
SMALL
GAST_HUCK


@<TRIPOS>ATOM
      1 CAA        27.3400  -20.5800    2.6970 C.ar      1 2OZ        -0.0404
      2 CAE        25.2980  -21.4330    1.6010 C.ar      1 2OZ         0.1167
      3 CAF        26.4580  -21.6030    2.5210 C.ar      1 2OZ        -0.0407
      4 FAG        24.4360  -22.4290    1.4270 F         1 2OZ        -0.1955
      5 CAD        25.1240  -20.2530    0.9370 C.ar      1 2OZ        -0.0407
      6 CAC        26.0920  -19.1360    1.1320 C.ar      1 2OZ        -0.0404
      7 CAB        27.1490  -19.2860    1.9780 C.ar      1 2OZ         0.0689
      8 NAH        28.1050  -18.2350    2.1770 N.am      1 2OZ        -0.2338
      9 CAI        27.9680  -17.1830    3.1420 C.2       1 2OZ         0.1646
     10 SAU        26.6400  -17.0930    4.1390 S.2       1 2OZ        -0.2972
     11 NAJ        29.0310  -16.2250    3.2130 N.am      1 2OZ        -0.2545
     12 CAO        30.1200  -16.4310    2.3140 C.3       1 2OZ         0.0688
     13 CAN        31.2990  -15.5110    2.4070 C.3       1 2OZ         0.1055
     14 OAS        32.4120  -16.2520    2.7320 O.3       1 2OZ        -0.3870
     15 CAM        31.1820  -14.3480    3.3460 C.3       1 2OZ         0.1113
     16 OAR        30.8030  -13.2180    2.6600 O.3       1 2OZ        -0.3865
     17 CAL        30.2970  -14.5420    4.5270 C.3       1 2OZ         0.1104
     18 OAQ        30.0690  -13.3140    5.1040 O.3       1 2OZ        -0.3866
     19 CAK        29.0040  -15.1530    4.1450 C.3       1 2OZ         0.1022
     20 CAP        28.0360  -14.0850    3.7860 C.3       1 2OZ         0.0716
     21 OAT        28.1000  -12.8700    4.4330 O.3       1 2OZ        -0.3925
     22 H          28.1857  -20.7064    3.3632 H         1 2OZ         0.0503
     23 H          26.5996  -22.5390    3.0491 H         1 2OZ         0.0568
     24 H          24.2810  -20.1280    0.2671 H         1 2OZ         0.0568
     25 H          25.9543  -18.2021    0.5992 H         1 2OZ         0.0503
     26 H          28.9238  -18.2360    1.6029 H         1 2OZ         0.2344
     27 H          29.7202  -16.3465    1.2927 H         1 2OZ         0.0571
     28 H          30.4904  -17.4535    2.4793 H         1 2OZ         0.0571
     29 H          31.4493  -15.0883    1.4027 H         1 2OZ         0.0642
     30 H          33.1663  -15.6779    2.7936 H         1 2OZ         0.2100
     31 H          32.1924  -14.1707    3.7430 H         1 2OZ         0.0647
     32 H          30.7327  -12.4897    3.2659 H         1 2OZ         0.2100
     33 H          30.8015  -15.1999    5.2500 H         1 2OZ         0.0646
     34 H          29.6490  -12.7418    4.4726 H         1 2OZ         0.2100
     35 H          28.6200  -15.6077    5.0701 H         1 2OZ         0.0630
     36 H          27.0295  -14.4910    3.9652 H         1 2OZ         0.0583
     37 H          28.1644  -13.8836    2.7123 H         1 2OZ         0.0583
     38 H          28.9516  -12.4768    4.2824 H         1 2OZ         0.2095
@<TRIPOS>BOND
     1    1    3 ar 
     2    1    7 ar 
     3    3    2 ar 
     4    2    4 1  
     5    2    5 ar 
     6    5    6 ar 
     7    6    7 ar 
     8    7    8 1  
     9    8    9 am 
    10    9   10 2  
    11    9   11 am 
    12   11   12 1  
    13   11   19 1  
    14   12   13 1  
    15   13   14 1  
    16   13   15 1  
    17   15   16 1  
    18   15   17 1  
    19   17   18 1  
    20   17   19 1  
    21   19   20 1  
    22   20   21 1  
    23    1   22 1  
    24    3   23 1  
    25    5   24 1  
    26    6   25 1  
    27    8   26 1  
    28   12   27 1  
    29   12   28 1  
    30   13   29 1  
    31   14   30 1  
    32   15   31 1  
    33   16   32 1  
    34   17   33 1  
    35   18   34 1  
    36   19   35 1  
    37   20   36 1  
    38   20   37 1  
    39   21   38 1  
@<TRIPOS>SUBSTRUCTURE
     1 2OZ         1

