### 
### Created by X-TOOL on Mon Sep 10 21:13:16 2018
### 

@<TRIPOS>MOLECULE
4ny3_ligand
   89    91     1     0     0
SMALL
GAST_HUCK


@<TRIPOS>ATOM
      1 N          18.9270    2.6990   11.9150 N.4       1 PRO         0.2461
      2 CA         19.0080    2.3870   13.3470 C.3       1 PRO         0.0670
      3 C          18.6720    3.5850   14.2320 C.2       1 PRO         0.2269
      4 O          18.5460    3.4210   15.4470 O.2       1 PRO        -0.3907
      5 CB         20.4780    1.9910   13.5350 C.3       1 PRO         0.0127
      6 CG         21.1980    2.6630   12.4150 C.3       1 PRO        -0.0053
      7 CD         20.2440    2.6280   11.2590 C.3       1 PRO        -0.0313
      8 N          18.5120    4.7640   13.6340 N.am      1 ASP        -0.2595
      9 CA         18.3060    5.9860   14.4110 C.3       1 ASP         0.1424
     10 C          17.0240    6.7650   14.0980 C.2       1 ASP         0.2057
     11 O          17.0100    7.9910   14.2030 O.2       1 ASP        -0.3943
     12 CB         19.5110    6.9210   14.2590 C.3       1 ASP         0.0406
     13 CG         20.7730    6.3530   14.8810 C.2       1 ASP         0.0393
     14 OD1        20.6620    5.4740   15.7620 O.co2     1 ASP        -0.5688
     15 OD2        21.8760    6.7910   14.4900 O.co2     1 ASP        -0.5688
     16 N          15.9480    6.0730   13.7330 N.am      1 TYR        -0.2620
     17 CA         14.7000    6.7630   13.4060 C.3       1 TYR         0.1390
     18 C          13.7520    6.9160   14.5920 C.2       1 TYR         0.2059
     19 O          12.7230    7.5820   14.4840 O.2       1 TYR        -0.3942
     20 CB         13.9730    6.0710   12.2490 C.3       1 TYR         0.0163
     21 CG         14.7170    6.1390   10.9400 C.ar      1 TYR        -0.0493
     22 CD1        14.8840    7.3480   10.2750 C.ar      1 TYR        -0.0685
     23 CD2        15.2490    4.9940   10.3630 C.ar      1 TYR        -0.0685
     24 CE1        15.5680    7.4120    9.0720 C.ar      1 TYR        -0.0398
     25 CE2        15.9320    5.0490    9.1630 C.ar      1 TYR        -0.0398
     26 CZ         16.0890    6.2600    8.5230 C.ar      1 TYR         0.0805
     27 OH         16.7680    6.3120    7.3270 O.3       1 TYR        -0.3376
     28 N          14.1000    6.3170   15.7240 N.am      1 PHE        -0.2618
     29 CA         13.1820    6.2850   16.8580 C.3       1 PHE         0.1404
     30 C          13.6930    7.0440   18.0770 C.2       1 PHE         0.2054
     31 O          13.4480    6.6450   19.2150 O.2       1 PHE        -0.3942
     32 CB         12.8520    4.8380   17.2200 C.3       1 PHE         0.0214
     33 CG         12.2190    4.0770   16.0990 C.ar      1 PHE        -0.0386
     34 CD1        10.8450    4.0740   15.9380 C.ar      1 PHE        -0.0601
     35 CD2        12.9980    3.3850   15.1890 C.ar      1 PHE        -0.0601
     36 CE1        10.2590    3.3900   14.8980 C.ar      1 PHE        -0.0686
     37 CE2        12.4160    2.6970   14.1540 C.ar      1 PHE        -0.0686
     38 CZ         11.0450    2.7050   14.0030 C.ar      1 PHE        -0.0687
     39 N          14.3900    8.1460   17.8280 N.am      1 LEU        -0.2693
     40 CA         14.9120    8.9850   18.8980 C.3       1 LEU         0.0946
     41 C          13.9220   10.0870   19.2620 C.2       1 LEU         0.0601
     42 O          13.0030   10.3930   18.5010 O.co2     1 LEU        -0.5666
     43 CB         16.2520    9.5940   18.4840 C.3       1 LEU        -0.0156
     44 CG         17.3350    8.5880   18.0890 C.3       1 LEU        -0.0431
     45 CD1        18.5800    9.3060   17.5940 C.3       1 LEU        -0.0625
     46 CD2        17.6670    7.6750   19.2590 C.3       1 LEU        -0.0625
     47 OXT        14.0180   10.6970   20.3290 O.co2     1 LEU        -0.5666
     48 H          18.5588    3.6309   11.8053 H         1 PRO         0.2035
     49 H          18.3072    2.0385   11.4726 H         1 PRO         0.2035
     50 H          18.3375    1.5520   13.5986 H         1 PRO         0.1099
     51 H          20.5966    0.8992   13.4725 H         1 PRO         0.0347
     52 H          20.8541    2.3457   14.5059 H         1 PRO         0.0347
     53 H          22.1223    2.1196   12.1692 H         1 PRO         0.0320
     54 H          21.4431    3.7016   12.6818 H         1 PRO         0.0320
     55 H          20.4001    3.4881   10.5913 H         1 PRO         0.0814
     56 H          20.3508    1.6950   10.6863 H         1 PRO         0.0814
     57 H          18.5331    4.8149   12.6355 H         1 ASP         0.1886
     58 H          18.2444    5.6815   15.4662 H         1 ASP         0.0819
     59 H          19.2777    7.8785   14.7476 H         1 ASP         0.0478
     60 H          19.6922    7.0907   13.1874 H         1 ASP         0.0478
     61 H          15.9925    5.0753   13.6818 H         1 TYR         0.1885
     62 H          14.9714    7.7758   13.0734 H         1 TYR         0.0821
     63 H          12.9928    6.5525   12.1169 H         1 TYR         0.0453
     64 H          13.8292    5.0127   12.5123 H         1 TYR         0.0453
     65 H          14.4728    8.2545   10.7042 H         1 TYR         0.0530
     66 H          15.1265    4.0398   10.8626 H         1 TYR         0.0530
     67 H          15.6927    8.3623    8.5655 H         1 TYR         0.0525
     68 H          16.3420    4.1451    8.7273 H         1 TYR         0.0525
     69 H          16.3252    5.7653    6.6887 H         1 TYR         0.2458
     70 H          14.9983    5.8842   15.8005 H         1 PHE         0.1885
     71 H          12.2499    6.7740   16.5386 H         1 PHE         0.0823
     72 H          12.1594    4.8412   18.0745 H         1 PHE         0.0474
     73 H          13.7841    4.3283   17.5053 H         1 PHE         0.0474
     74 H          10.2225    4.6172   16.6398 H         1 PHE         0.0557
     75 H          14.0769    3.3862   15.2943 H         1 PHE         0.0557
     76 H           9.1809    3.3915   14.7850 H         1 PHE         0.0599
     77 H          13.0345    2.1466   13.4543 H         1 PHE         0.0599
     78 H          10.5875    2.1708   13.1781 H         1 PHE         0.0559
     79 H          14.5616    8.4077   16.8782 H         1 LEU         0.1875
     80 H          15.0727    8.3557   19.7858 H         1 LEU         0.0726
     81 H          16.6313   10.1867   19.3295 H         1 LEU         0.0308
     82 H          16.0730   10.2555   17.6235 H         1 LEU         0.0308
     83 H          16.9465    7.9678   17.2678 H         1 LEU         0.0297
     84 H          19.3442    8.5653   17.3159 H         1 LEU         0.0232
     85 H          18.9710    9.9544   18.3919 H         1 LEU         0.0232
     86 H          18.3258    9.9178   16.7159 H         1 LEU         0.0232
     87 H          16.7522    7.1675   19.5991 H         1 LEU         0.0232
     88 H          18.0831    8.2723   20.0837 H         1 LEU         0.0232
     89 H          18.4057    6.9248   18.9406 H         1 LEU         0.0232
@<TRIPOS>BOND
     1    1    2 1  
     2    1    7 1  
     3    2    3 1  
     4    2    5 1  
     5    3    4 2  
     6    3    8 am 
     7    5    6 1  
     8    6    7 1  
     9    8    9 1  
    10    9   10 1  
    11    9   12 1  
    12   10   11 2  
    13   10   16 am 
    14   12   13 1  
    15   13   14 ar 
    16   13   15 ar 
    17   16   17 1  
    18   17   18 1  
    19   17   20 1  
    20   18   19 2  
    21   18   28 am 
    22   20   21 1  
    23   21   22 ar 
    24   21   23 ar 
    25   22   24 ar 
    26   23   25 ar 
    27   24   26 ar 
    28   25   26 ar 
    29   26   27 1  
    30   28   29 1  
    31   29   30 1  
    32   29   32 1  
    33   30   31 2  
    34   30   39 am 
    35   32   33 1  
    36   33   34 ar 
    37   33   35 ar 
    38   34   36 ar 
    39   35   37 ar 
    40   36   38 ar 
    41   37   38 ar 
    42   39   40 1  
    43   40   41 1  
    44   40   43 1  
    45   41   42 ar 
    46   41   47 ar 
    47   43   44 1  
    48   44   45 1  
    49   44   46 1  
    50    1   48 1  
    51    1   49 1  
    52    2   50 1  
    53    5   51 1  
    54    5   52 1  
    55    6   53 1  
    56    6   54 1  
    57    7   55 1  
    58    7   56 1  
    59    8   57 1  
    60    9   58 1  
    61   12   59 1  
    62   12   60 1  
    63   16   61 1  
    64   17   62 1  
    65   20   63 1  
    66   20   64 1  
    67   22   65 1  
    68   23   66 1  
    69   24   67 1  
    70   25   68 1  
    71   27   69 1  
    72   28   70 1  
    73   29   71 1  
    74   32   72 1  
    75   32   73 1  
    76   34   74 1  
    77   35   75 1  
    78   36   76 1  
    79   37   77 1  
    80   38   78 1  
    81   39   79 1  
    82   40   80 1  
    83   43   81 1  
    84   43   82 1  
    85   44   83 1  
    86   45   84 1  
    87   45   85 1  
    88   45   86 1  
    89   46   87 1  
    90   46   88 1  
    91   46   89 1  
@<TRIPOS>SUBSTRUCTURE
     1 PRO         1

