### 
### Created by X-TOOL on Mon Sep 10 21:13:19 2018
### 

@<TRIPOS>MOLECULE
4nyf_ligand
   48    50     1     0     0
SMALL
GAST_HUCK


@<TRIPOS>ATOM
      1 N1         18.6600   64.4030    8.4330 N.ar      1 4BI        -0.3053
      2 C2         18.5920   64.5860    9.7720 C.ar      1 4BI         0.0311
      3 C3         19.6660   64.2170   10.6650 C.ar      1 4BI         0.0014
      4 C4         20.8640   63.6130   10.0530 C.ar      1 4BI         0.0098
      5 C5         20.9310   63.4190    8.5910 C.ar      1 4BI         0.0401
      6 C6         19.7730   63.8400    7.8400 C.ar      1 4BI         0.0321
      7 C7         19.4670   64.4690   12.0860 C.ar      1 4BI        -0.0523
      8 C8         18.2740   65.0580   12.5860 C.ar      1 4BI        -0.0609
      9 C9         17.2430   65.4120   11.6890 C.ar      1 4BI        -0.0610
     10 C10        17.4110   65.1730   10.2950 C.ar      1 4BI        -0.0467
     11 C11        22.2050   62.7810    7.9370 C.3       1 4BI         0.1505
     12 C12        21.9960   61.2840    7.5360 C.2       1 4BI         0.0766
     13 O13        21.1970   60.5950    8.2380 O.co2     1 4BI        -0.5639
     14 O14        22.6650   60.9010    6.5290 O.co2     1 4BI        -0.5639
     15 O15        22.7370   63.5380    6.7920 O.3       1 4BI        -0.3441
     16 C16        23.6810   64.6440    6.9560 C.3       1 4BI         0.0664
     17 C17        19.6230   63.7380    6.3410 C.3       1 4BI        -0.0148
     18 C18        22.0180   63.2070   10.9260 C.ar      1 4BI        -0.0130
     19 C19        23.0170   64.1670   11.3210 C.ar      1 4BI        -0.0524
     20 C20        24.1110   63.7790   12.1440 C.ar      1 4BI        -0.0465
     21 C21        24.2200   62.4320   12.5810 C.ar      1 4BI         0.0413
     22 C22        23.2490   61.4660   12.2080 C.ar      1 4BI        -0.0465
     23 C23        22.1530   61.8490   11.3850 C.ar      1 4BI        -0.0524
     24 CL         25.5390   61.9660   13.5720 Cl        1 4BI        -0.0696
     25 C25        22.9960   65.9400    7.3930 C.3       1 4BI        -0.0360
     26 C26        24.8280   64.3130    7.9400 C.3       1 4BI        -0.0360
     27 C27        24.2820   64.8560    5.5570 C.3       1 4BI        -0.0360
     28 H          20.2523   64.1992   12.7829 H         1 4BI         0.0628
     29 H          18.1566   65.2342   13.6491 H         1 4BI         0.0614
     30 H          16.3292   65.8629   12.0588 H         1 4BI         0.0625
     31 H          16.6135   65.4475    9.6140 H         1 4BI         0.0616
     32 H          22.9846   62.7969    8.7129 H         1 4BI         0.0935
     33 H          20.5292   63.2857    5.9118 H         1 4BI         0.0424
     34 H          19.4791   64.7430    5.9176 H         1 4BI         0.0424
     35 H          18.7515   63.1110    6.1015 H         1 4BI         0.0424
     36 H          22.9344   65.1952   10.9879 H         1 4BI         0.0630
     37 H          24.8579   64.5082   12.4362 H         1 4BI         0.0625
     38 H          23.3420   60.4411   12.5486 H         1 4BI         0.0625
     39 H          21.4120   61.1106   11.1007 H         1 4BI         0.0630
     40 H          23.7491   66.7345    7.5006 H         1 4BI         0.0257
     41 H          22.4908   65.7807    8.3571 H         1 4BI         0.0257
     42 H          22.2555   66.2368    6.6356 H         1 4BI         0.0257
     43 H          25.5021   65.1784    8.0217 H         1 4BI         0.0257
     44 H          25.3905   63.4438    7.5684 H         1 4BI         0.0257
     45 H          24.4069   64.0816    8.9295 H         1 4BI         0.0257
     46 H          25.0105   65.6795    5.5919 H         1 4BI         0.0257
     47 H          23.4797   65.1061    4.8473 H         1 4BI         0.0257
     48 H          24.7860   63.9342    5.2309 H         1 4BI         0.0257
@<TRIPOS>BOND
     1    1    2 ar 
     2    1    6 ar 
     3    2    3 ar 
     4    2   10 ar 
     5    3    4 ar 
     6    3    7 ar 
     7    4    5 ar 
     8    4   18 1  
     9    5    6 ar 
    10    5   11 1  
    11    6   17 1  
    12    7    8 ar 
    13    8    9 ar 
    14    9   10 ar 
    15   11   12 1  
    16   11   15 1  
    17   12   13 ar 
    18   12   14 ar 
    19   15   16 1  
    20   16   25 1  
    21   16   26 1  
    22   16   27 1  
    23   18   19 ar 
    24   18   23 ar 
    25   19   20 ar 
    26   20   21 ar 
    27   21   22 ar 
    28   21   24 1  
    29   22   23 ar 
    30    7   28 1  
    31    8   29 1  
    32    9   30 1  
    33   10   31 1  
    34   11   32 1  
    35   17   33 1  
    36   17   34 1  
    37   17   35 1  
    38   19   36 1  
    39   20   37 1  
    40   22   38 1  
    41   23   39 1  
    42   25   40 1  
    43   25   41 1  
    44   25   42 1  
    45   26   43 1  
    46   26   44 1  
    47   26   45 1  
    48   27   46 1  
    49   27   47 1  
    50   27   48 1  
@<TRIPOS>SUBSTRUCTURE
     1 4BI         1

