### 
### Created by X-TOOL on Mon Sep 10 21:13:17 2018
### 

@<TRIPOS>MOLECULE
4nyi_ligand
   65    69     1     0     0
SMALL
GAST_HUCK


@<TRIPOS>ATOM
      1 O01        40.8730   28.4720   19.1120 O.2       1 2PX        -0.3907
      2 C02        40.4840   28.7820   20.2400 C.2       1 2PX         0.2260
      3 C03        41.3670   29.5600   21.1780 C.3       1 2PX         0.0689
      4 C04        41.3610   30.9930   20.7700 C.3       1 2PX         0.0245
      5 C05        40.2240   31.6700   21.5020 C.2       1 2PX        -0.0386
      6 C06        40.0260   31.6760   22.8690 C.2       1 2PX         0.0168
      7 N07        38.9020   32.3780   23.1360 N.pl3     1 2PX        -0.2890
      8 C08        38.3490   32.8330   21.9690 C.ar      1 2PX         0.0603
      9 C09        39.1760   32.3920   20.9200 C.ar      1 2PX        -0.0213
     10 C10        38.8520   32.7170   19.6110 C.ar      1 2PX        -0.0747
     11 C11        37.6890   33.4700   19.4150 C.ar      1 2PX        -0.0792
     12 C12        36.8870   33.8940   20.4690 C.ar      1 2PX        -0.0768
     13 C13        37.1920   33.5880   21.7860 C.ar      1 2PX        -0.0443
     14 N14        42.6960   29.0250   21.1690 N.4       1 2PX         0.2388
     15 N15        39.1590   28.4230   20.7360 N.am      1 2PX        -0.2788
     16 C16        38.1850   27.6720   19.9400 C.3       1 2PX         0.0518
     17 C17        37.6700   28.5620   18.8930 C.3       1 2PX         0.0107
     18 C18        37.0570   29.7860   19.4710 C.3       1 2PX        -0.0290
     19 C19        37.1280   27.2600   20.8800 C.3       1 2PX         0.0107
     20 C20        36.3740   28.4100   21.4610 C.3       1 2PX        -0.0290
     21 N21        36.0630   29.4670   20.5040 N.4       1 2PX         0.2420
     22 C22        35.0820   30.5240   20.7440 C.3       1 2PX        -0.0150
     23 C23        34.0020   30.2090   21.7660 C.2       1 2PX        -0.0047
     24 C24        32.7210   29.7980   21.4970 C.2       1 2PX         0.0199
     25 N25        32.0610   29.6410   22.6810 N.pl3     1 2PX        -0.2917
     26 C26        32.8880   29.9600   23.7350 C.ar      1 2PX         0.0548
     27 C27        34.1140   30.3260   23.1630 C.ar      1 2PX        -0.0240
     28 C28        35.1610   30.7020   24.0150 C.ar      1 2PX        -0.0748
     29 C29        34.9590   30.7020   25.4040 C.ar      1 2PX        -0.0635
     30 C30        36.0830   31.1100   26.2590 C.3       1 2PX        -0.0377
     31 C31        33.7170   30.3240   25.9420 C.ar      1 2PX        -0.0739
     32 C32        32.6540   29.9480   25.1290 C.ar      1 2PX        -0.0488
     33 H          40.9643   29.4796   22.1985 H         1 2PX         0.1114
     34 H          41.2087   31.0734   19.6836 H         1 2PX         0.0430
     35 H          42.3166   31.4649   21.0423 H         1 2PX         0.0430
     36 H          40.6671   31.1962   23.6070 H         1 2PX         0.0795
     37 H          38.5187   32.5456   24.0772 H         1 2PX         0.2216
     38 H          39.4710   32.4023   18.7786 H         1 2PX         0.0540
     39 H          37.4023   33.7328   18.4032 H         1 2PX         0.0510
     40 H          36.0000   34.4792   20.2550 H         1 2PX         0.0530
     41 H          36.5741   33.9130   22.6152 H         1 2PX         0.0541
     42 H          42.6703   28.0568   21.4482 H         1 2PX         0.2016
     43 H          43.2719   29.5450   21.8124 H         1 2PX         0.2016
     44 H          43.0808   29.0967   20.2401 H         1 2PX         0.2016
     45 H          38.9044   28.7025   21.6618 H         1 2PX         0.1856
     46 H          38.6502   26.7874   19.4805 H         1 2PX         0.0560
     47 H          36.9096   28.0235   18.3084 H         1 2PX         0.0339
     48 H          38.4999   28.8554   18.2333 H         1 2PX         0.0339
     49 H          36.5641   30.3507   18.6660 H         1 2PX         0.0815
     50 H          37.8498   30.4028   19.9193 H         1 2PX         0.0815
     51 H          37.5923   26.6958   21.7022 H         1 2PX         0.0339
     52 H          36.4184   26.6116   20.3452 H         1 2PX         0.0339
     53 H          36.9784   28.8449   22.2707 H         1 2PX         0.0815
     54 H          35.4281   28.0291   21.8735 H         1 2PX         0.0815
     55 H          35.4637   28.8964   19.9284 H         1 2PX         0.2041
     56 H          34.5861   30.7468   19.7877 H         1 2PX         0.0897
     57 H          35.6252   31.4151   21.0918 H         1 2PX         0.0897
     58 H          32.3020   29.6262   20.5066 H         1 2PX         0.0794
     59 H          31.0839   29.3285   22.7732 H         1 2PX         0.2202
     60 H          36.1214   30.9912   23.6038 H         1 2PX         0.0462
     61 H          35.7776   31.0603   27.3146 H         1 2PX         0.0368
     62 H          36.3775   32.1403   26.0106 H         1 2PX         0.0368
     63 H          36.9350   30.4346   26.0917 H         1 2PX         0.0368
     64 H          33.5846   30.3257   27.0179 H         1 2PX         0.0486
     65 H          31.6944   29.6602   25.5430 H         1 2PX         0.0531
@<TRIPOS>BOND
     1    1    2 2  
     2    2    3 1  
     3    2   15 am 
     4    3    4 1  
     5    3   14 1  
     6    4    5 1  
     7    5    6 2  
     8    5    9 1  
     9    6    7 1  
    10    7    8 1  
    11    8    9 ar 
    12    8   13 ar 
    13    9   10 ar 
    14   10   11 ar 
    15   11   12 ar 
    16   12   13 ar 
    17   15   16 1  
    18   16   17 1  
    19   16   19 1  
    20   17   18 1  
    21   18   21 1  
    22   19   20 1  
    23   20   21 1  
    24   21   22 1  
    25   22   23 1  
    26   23   24 2  
    27   23   27 1  
    28   24   25 1  
    29   25   26 1  
    30   26   27 ar 
    31   26   32 ar 
    32   27   28 ar 
    33   28   29 ar 
    34   29   30 1  
    35   29   31 ar 
    36   31   32 ar 
    37    3   33 1  
    38    4   34 1  
    39    4   35 1  
    40    6   36 1  
    41    7   37 1  
    42   10   38 1  
    43   11   39 1  
    44   12   40 1  
    45   13   41 1  
    46   14   42 1  
    47   14   43 1  
    48   14   44 1  
    49   15   45 1  
    50   16   46 1  
    51   17   47 1  
    52   17   48 1  
    53   18   49 1  
    54   18   50 1  
    55   19   51 1  
    56   19   52 1  
    57   20   53 1  
    58   20   54 1  
    59   21   55 1  
    60   22   56 1  
    61   22   57 1  
    62   24   58 1  
    63   25   59 1  
    64   28   60 1  
    65   30   61 1  
    66   30   62 1  
    67   30   63 1  
    68   31   64 1  
    69   32   65 1  
@<TRIPOS>SUBSTRUCTURE
     1 2PX         1

