### 
### Created by X-TOOL on Mon Sep 10 21:13:16 2018
### 

@<TRIPOS>MOLECULE
4nyj_ligand
   45    47     1     0     0
SMALL
GAST_HUCK


@<TRIPOS>ATOM
      1 CAD       -29.7330   33.1380  -64.1800 C.ar      1 2PZ        -0.0443
      2 CAC       -30.0160   34.0350  -63.2100 C.ar      1 2PZ        -0.0768
      3 CAB       -30.2500   35.4150  -63.5360 C.ar      1 2PZ        -0.0792
      4 CAA       -30.1940   35.8180  -64.8360 C.ar      1 2PZ        -0.0745
      5 CAF       -29.9020   34.8920  -65.8610 C.ar      1 2PZ        -0.0166
      6 CAE       -29.6670   33.5640  -65.5530 C.ar      1 2PZ         0.0605
      7 NAG       -29.4110   32.8890  -66.7180 N.pl3     1 2PZ        -0.2889
      8 CAI       -29.4680   33.7260  -67.7600 C.2       1 2PZ         0.0214
      9 CAH       -29.7700   35.0190  -67.3100 C.2       1 2PZ        -0.0021
     10 CAJ       -29.9140   36.2930  -68.1610 C.3       1 2PZ        -0.0145
     11 NAK       -28.8690   36.4360  -68.7450 N.4       1 2PZ         0.2421
     12 CAP       -27.6610   36.5280  -67.9350 C.3       1 2PZ        -0.0290
     13 CAO       -26.6670   37.6120  -68.3670 C.3       1 2PZ         0.0107
     14 CAL       -28.9110   36.9970  -70.0670 C.3       1 2PZ        -0.0290
     15 CAM       -28.0230   38.2150  -70.2850 C.3       1 2PZ         0.0107
     16 CAN       -27.2730   38.6640  -69.0980 C.3       1 2PZ         0.0518
     17 NAQ       -26.2070   39.6800  -69.4930 N.am      1 2PZ        -0.2792
     18 C         -25.1260   39.4160  -70.3630 C.2       1 2PZ         0.2216
     19 O         -24.9690   38.3450  -70.8620 O.2       1 2PZ        -0.3912
     20 CA        -24.1050   40.5590  -70.6810 C.3       1 2PZ         0.0543
     21 N         -24.5600   41.8240  -70.1220 N.4       1 2PZ         0.2357
     22 H         -29.5560   32.0995  -63.9245 H         1 2PZ         0.0541
     23 H         -30.0670   33.7109  -62.1768 H         1 2PZ         0.0530
     24 H         -30.4697   36.1308  -62.7522 H         1 2PZ         0.0510
     25 H         -30.3750   36.8573  -65.0854 H         1 2PZ         0.0540
     26 H         -29.2044   31.8820  -66.7820 H         1 2PZ         0.2216
     27 H         -29.3047   33.4457  -68.7996 H         1 2PZ         0.0797
     28 H         -30.1097   37.1613  -67.5147 H         1 2PZ         0.0899
     29 H         -30.7383   36.1781  -68.8803 H         1 2PZ         0.0899
     30 H         -28.7483   35.4765  -69.0295 H         1 2PZ         0.2041
     31 H         -27.1463   35.5569  -67.9799 H         1 2PZ         0.0815
     32 H         -27.9618   36.7360  -66.8976 H         1 2PZ         0.0815
     33 H         -25.8948   37.1473  -68.9977 H         1 2PZ         0.0339
     34 H         -26.1987   38.0362  -67.4666 H         1 2PZ         0.0339
     35 H         -29.9496   37.2913  -70.2786 H         1 2PZ         0.0815
     36 H         -28.5988   36.2173  -70.7773 H         1 2PZ         0.0815
     37 H         -28.6612   39.0463  -70.6191 H         1 2PZ         0.0339
     38 H         -27.2968   37.9702  -71.0741 H         1 2PZ         0.0339
     39 H         -27.9900   39.1615  -68.4283 H         1 2PZ         0.0560
     40 H         -26.2783   40.6002  -69.1081 H         1 2PZ         0.1856
     41 H         -24.0050   40.6611  -71.7717 H         1 2PZ         0.1061
     42 H         -23.1280   40.3022  -70.2457 H         1 2PZ         0.1061
     43 H         -23.8906   42.5464  -70.3368 H         1 2PZ         0.2012
     44 H         -24.6503   41.7363  -69.1219 H         1 2PZ         0.2012
     45 H         -25.4540   42.0652  -70.5203 H         1 2PZ         0.2012
@<TRIPOS>BOND
     1    1    2 ar 
     2    1    6 ar 
     3    2    3 ar 
     4    3    4 ar 
     5    4    5 ar 
     6    5    6 ar 
     7    5    9 1  
     8    6    7 1  
     9    7    8 1  
    10    8    9 2  
    11    9   10 1  
    12   10   11 1  
    13   11   12 1  
    14   11   14 1  
    15   12   13 1  
    16   13   16 1  
    17   14   15 1  
    18   15   16 1  
    19   16   17 1  
    20   17   18 am 
    21   18   19 2  
    22   18   20 1  
    23   20   21 1  
    24    1   22 1  
    25    2   23 1  
    26    3   24 1  
    27    4   25 1  
    28    7   26 1  
    29    8   27 1  
    30   10   28 1  
    31   10   29 1  
    32   11   30 1  
    33   12   31 1  
    34   12   32 1  
    35   13   33 1  
    36   13   34 1  
    37   14   35 1  
    38   14   36 1  
    39   15   37 1  
    40   15   38 1  
    41   16   39 1  
    42   17   40 1  
    43   20   41 1  
    44   20   42 1  
    45   21   43 1  
    46   21   44 1  
    47   21   45 1  
@<TRIPOS>SUBSTRUCTURE
     1 2PZ         1

