### 
### Created by X-TOOL on Mon Sep 10 21:13:17 2018
### 

@<TRIPOS>MOLECULE
4nym_ligand
   62    66     1     0     0
SMALL
GAST_HUCK


@<TRIPOS>ATOM
      1 C01        35.7100   30.0140   24.7010 C.ar      1 RND        -0.0745
      2 C02        35.6410   30.0620   26.1410 C.ar      1 RND        -0.0792
      3 C03        34.4500   29.8290   26.8160 C.ar      1 RND        -0.0768
      4 C04        33.3160   29.5360   26.0780 C.ar      1 RND        -0.0443
      5 C05        33.3870   29.4820   24.6070 C.ar      1 RND         0.0605
      6 C06        34.5540   29.7170   23.9450 C.ar      1 RND        -0.0166
      7 N07        32.4050   29.2110   23.6470 N.pl3     1 RND        -0.2889
      8 C08        34.2800   29.5820   22.5160 C.2       1 RND        -0.0021
      9 C09        32.9210   29.2690   22.4250 C.2       1 RND         0.0214
     10 C10        35.2020   29.7390   21.3460 C.3       1 RND        -0.0145
     11 N11        36.2000   28.6360   21.2940 N.4       1 RND         0.2421
     12 C12        37.1700   27.9590   22.2010 C.3       1 RND        -0.0290
     13 C13        37.8370   26.7780   21.6040 C.3       1 RND         0.0107
     14 C14        38.4260   27.1400   20.3170 C.3       1 RND         0.0518
     15 C15        37.3740   27.6460   19.4270 C.3       1 RND         0.0107
     16 C16        36.7670   28.9010   19.9840 C.3       1 RND        -0.0290
     17 N17        39.4230   28.2330   20.4580 N.am      1 RND        -0.2788
     18 C18        40.8240   28.0320   20.8310 C.2       1 RND         0.2260
     19 C19        41.7690   29.1860   20.9310 C.3       1 RND         0.0689
     20 O20        41.2620   26.9280   21.0520 O.2       1 RND        -0.3907
     21 C21        41.6790   29.9550   22.2640 C.3       1 RND         0.0245
     22 N22        41.5990   30.0680   19.8450 N.4       1 RND         0.2388
     23 C23        40.4710   30.7250   22.7420 C.2       1 RND        -0.0386
     24 N24        38.9180   31.5360   24.1830 N.pl3     1 RND        -0.2890
     25 C25        40.0230   30.7350   24.0660 C.2       1 RND         0.0168
     26 C26        39.5520   31.6020   22.0200 C.ar      1 RND        -0.0213
     27 C27        38.6170   32.0660   22.9600 C.ar      1 RND         0.0603
     28 C28        37.5360   32.9690   22.5710 C.ar      1 RND        -0.0443
     29 C29        37.4470   33.3630   21.2610 C.ar      1 RND        -0.0768
     30 C30        38.3820   32.8990   20.3030 C.ar      1 RND        -0.0792
     31 C31        39.4460   32.0110   20.6890 C.ar      1 RND        -0.0747
     32 H          36.6507   30.2062   24.1979 H         1 RND         0.0540
     33 H          36.5376   30.2846   26.7081 H         1 RND         0.0510
     34 H          34.4091   29.8756   27.8982 H         1 RND         0.0530
     35 H          32.3754   29.3462   26.5823 H         1 RND         0.0541
     36 H          31.4201   28.9966   23.8589 H         1 RND         0.2216
     37 H          32.3727   29.0997   21.4995 H         1 RND         0.0797
     38 H          35.7324   30.6986   21.4337 H         1 RND         0.0899
     39 H          34.6098   29.7307   20.4191 H         1 RND         0.0899
     40 H          35.5792   27.8533   21.1599 H         1 RND         0.2041
     41 H          36.6297   27.6315   23.1015 H         1 RND         0.0815
     42 H          37.9449   28.6871   22.4828 H         1 RND         0.0815
     43 H          37.0974   25.9775   21.4548 H         1 RND         0.0339
     44 H          38.6285   26.4245   22.2812 H         1 RND         0.0339
     45 H          38.9051   26.2537   19.8754 H         1 RND         0.0560
     46 H          36.5903   26.8812   19.3227 H         1 RND         0.0339
     47 H          37.8089   27.8623   18.4401 H         1 RND         0.0339
     48 H          37.5445   29.6741   20.0726 H         1 RND         0.0815
     49 H          35.9743   29.2539   19.3080 H         1 RND         0.0815
     50 H          39.1159   29.1691   20.2864 H         1 RND         0.1856
     51 H          42.7862   28.7722   20.8671 H         1 RND         0.1114
     52 H          42.5002   30.6863   22.2362 H         1 RND         0.0430
     53 H          41.8790   29.2086   23.0468 H         1 RND         0.0430
     54 H          41.6601   29.5526   18.9809 H         1 RND         0.2016
     55 H          42.3199   30.7721   19.8679 H         1 RND         0.2016
     56 H          40.6954   30.5101   19.9094 H         1 RND         0.2016
     57 H          38.3970   31.7109   25.0541 H         1 RND         0.2216
     58 H          40.4851   30.1860   24.8851 H         1 RND         0.0795
     59 H          36.8187   33.3204   23.3038 H         1 RND         0.0541
     60 H          36.6539   34.0358   20.9553 H         1 RND         0.0530
     61 H          38.2949   33.2159   19.2700 H         1 RND         0.0510
     62 H          40.1602   31.6619   19.9520 H         1 RND         0.0540
@<TRIPOS>BOND
     1    1    2 ar 
     2    1    6 ar 
     3    2    3 ar 
     4    3    4 ar 
     5    4    5 ar 
     6    5    6 ar 
     7    5    7 1  
     8    6    8 1  
     9    7    9 1  
    10    8    9 2  
    11    8   10 1  
    12   10   11 1  
    13   11   12 1  
    14   11   16 1  
    15   12   13 1  
    16   13   14 1  
    17   14   15 1  
    18   14   17 1  
    19   15   16 1  
    20   17   18 am 
    21   18   19 1  
    22   18   20 2  
    23   19   21 1  
    24   19   22 1  
    25   21   23 1  
    26   23   25 2  
    27   23   26 1  
    28   25   24 1  
    29   24   27 1  
    30   26   27 ar 
    31   26   31 ar 
    32   27   28 ar 
    33   28   29 ar 
    34   29   30 ar 
    35   30   31 ar 
    36    1   32 1  
    37    2   33 1  
    38    3   34 1  
    39    4   35 1  
    40    7   36 1  
    41    9   37 1  
    42   10   38 1  
    43   10   39 1  
    44   11   40 1  
    45   12   41 1  
    46   12   42 1  
    47   13   43 1  
    48   13   44 1  
    49   14   45 1  
    50   15   46 1  
    51   15   47 1  
    52   16   48 1  
    53   16   49 1  
    54   17   50 1  
    55   19   51 1  
    56   21   52 1  
    57   21   53 1  
    58   22   54 1  
    59   22   55 1  
    60   22   56 1  
    61   24   57 1  
    62   25   58 1  
    63   28   59 1  
    64   29   60 1  
    65   30   61 1  
    66   31   62 1  
@<TRIPOS>SUBSTRUCTURE
     1 RND         1

