### 
### Created by X-TOOL on Mon Sep 10 21:13:19 2018
### 

@<TRIPOS>MOLECULE
4nzb_ligand
   27    29     1     0     0
SMALL
GAST_HUCK


@<TRIPOS>ATOM
      1 C4         12.9640   85.0870   19.2680 C.1       1 NSE         0.1017
      2 C14         9.6510   86.8310   28.0660 C.ar      1 NSE         0.0105
      3 C5         12.6680   84.2250   21.5540 C.ar      1 NSE        -0.0080
      4 C6         12.6850   81.7990   21.9350 C.ar      1 NSE        -0.0349
      5 C11        11.7420   84.1770   25.6500 C.2       1 NSE         0.1313
      6 C7         12.3730   83.3950   23.8310 C.2       1 NSE         0.2427
      7 C8         12.5930   83.1200   22.4170 C.ar      1 NSE         0.0614
      8 C9         11.0480   85.0750   26.5540 C.ar      1 NSE         0.0318
      9 C10        10.1440   85.9840   25.9930 C.ar      1 NSE         0.0202
     10 C12        11.2480   85.0580   27.9420 C.ar      1 NSE        -0.0336
     11 C13        10.5350   85.9610   28.7210 C.ar      1 NSE        -0.0341
     12 N1         13.0440   85.9580   18.4980 N.1       1 NSE        -0.3282
     13 N2         11.6360   84.3620   24.2920 N.2       1 NSE        -0.2594
     14 C3         12.8620   83.9910   20.1890 C.ar      1 NSE         0.1006
     15 N3         12.4970   83.1560   26.0270 N.2       1 NSE        -0.1059
     16 N4          9.4550   86.8550   26.7360 N.ar      1 NSE        -0.2966
     17 O1         12.9230   82.6160   24.7980 O.3       1 NSE        -0.1287
     18 C2         12.8720   81.5820   20.5700 C.ar      1 NSE        -0.0461
     19 C1         12.9540   82.6710   19.7030 C.ar      1 NSE        -0.0236
     20 H           9.0881   87.5310   28.6728 H         1 NSE         0.0817
     21 H          12.5777   85.2352   21.9366 H         1 NSE         0.0768
     22 H          12.6112   80.9604   22.6179 H         1 NSE         0.0730
     23 H           9.9977   85.9815   24.9189 H         1 NSE         0.0830
     24 H          11.9409   84.3585   28.3954 H         1 NSE         0.0739
     25 H          10.6577   85.9920   29.7976 H         1 NSE         0.0708
     26 H          12.9532   80.5719   20.1851 H         1 NSE         0.0650
     27 H          13.0903   82.5003   18.6412 H         1 NSE         0.0746
@<TRIPOS>BOND
     1    1   12 3  
     2   14    1 1  
     3    2   11 ar 
     4   16    2 ar 
     5    7    3 ar 
     6    3   14 ar 
     7    7    4 ar 
     8    4   18 ar 
     9    8    5 1  
    10    5   13 1  
    11    5   15 2  
    12    6    7 1  
    13   13    6 2  
    14    6   17 1  
    15    9    8 ar 
    16    8   10 ar 
    17    9   16 ar 
    18   10   11 ar 
    19   14   19 ar 
    20   15   17 1  
    21   18   19 ar 
    22    2   20 1  
    23    3   21 1  
    24    4   22 1  
    25    9   23 1  
    26   10   24 1  
    27   11   25 1  
    28   18   26 1  
    29   19   27 1  
@<TRIPOS>SUBSTRUCTURE
     1 NSE         1

