### 
### Created by X-TOOL on Sat Nov 28 16:01:12 2015
### 

@<TRIPOS>MOLECULE
4nze_ligand
  110   114     1     0     0
SMALL
GAST_HUCK


@<TRIPOS>ATOM
      1 CL1        15.2930   -6.5810   10.6120 Cl        1 2OJ        -0.0551
      2 C2         15.5190   -8.1310   11.5830 C.2       1 2OJ         0.0959
      3 S3         14.4950   -8.4540   12.9310 S.3       1 2OJ        -0.0237
      4 C4         16.4340   -9.0880   11.3360 C.2       1 2OJ        -0.0591
      5 C5         16.3460  -10.1190   12.2340 C.2       1 2OJ        -0.0635
      6 C6         15.3640   -9.9230   13.1390 C.2       1 2OJ         0.0719
      7 C7         14.9620  -10.8280   14.2480 C.2       1 2OJ         0.1597
      8 O8         14.3420  -10.4190   15.2700 O.3       1 2OJ        -0.1786
      9 N9         14.0780  -11.5190   16.0830 N.2       1 2OJ        -0.1567
     10 C10        15.1130  -12.1460   14.2330 C.2       1 2OJ        -0.0207
     11 C11        14.5880  -12.5850   15.3930 C.2       1 2OJ         0.0557
     12 C12        14.5550  -14.0340   15.8260 C.3       1 2OJ         0.1055
     13 O13        13.4630  -14.6640   15.1570 O.3       1 2OJ        -0.3161
     14 C14        13.6200  -15.8250   14.4390 C.ar      1 2OJ         0.1070
     15 C15        14.6120  -16.7460   14.7550 C.ar      1 2OJ        -0.0565
     16 C16        14.7250  -17.9040   13.9930 C.ar      1 2OJ        -0.0940
     17 C17        13.8490  -18.1340   12.9310 C.ar      1 2OJ        -0.0567
     18 C19        12.7530  -16.0510   13.3830 C.ar      1 2OJ         0.1258
     19 N20        11.8330  -15.1070   13.1890 N.am      1 2OJ        -0.2405
     20 C21        10.5400  -15.3850   13.0290 C.2       1 2OJ         0.2012
     21 C22         9.7620  -14.5170   12.0750 C.3       1 2OJ         0.0629
     22 C23         8.3660  -14.2680   12.6460 C.3       1 2OJ         0.0078
     23 C24         7.2250  -14.5980   11.6860 C.3       1 2OJ        -0.0293
     24 N25         7.4100  -13.9910   10.3450 N.4       1 2OJ         0.2372
     25 C26         6.9340  -12.5920   10.2800 C.3       1 2OJ        -0.0266
     26 C27         5.5260  -12.4790   10.8450 C.3       1 2OJ        -0.0218
     27 C28         6.9160  -12.1450    8.8260 C.3       1 2OJ        -0.0218
     28 C29         8.8010  -14.1140    9.8420 C.3       1 2OJ        -0.0293
     29 C30         9.6390  -15.0870   10.6720 C.3       1 2OJ         0.0078
     30 O31         9.9630  -16.1840   13.7470 O.2       1 2OJ        -0.3875
     31 C18        12.8560  -17.2040   12.6200 C.ar      1 2OJ         0.1045
     32 O32        11.9810  -17.4130   11.5820 O.3       1 2OJ        -0.3275
     33 C33        12.0210  -18.5630   10.7400 C.3       1 2OJ         0.0688
     34 C34        10.5830  -19.0530   10.5920 C.3       1 2OJ        -0.0020
     35 C35        10.2870  -19.7710    9.2800 C.3       1 2OJ         0.0532
     36 O36         9.4940  -20.9250    9.5740 O.3       1 2OJ        -0.3483
     37 C37         8.3190  -21.0470    8.7560 C.3       1 2OJ         0.1931
     38 O38         7.5170  -19.8520    8.8860 O.3       1 2OJ        -0.3394
     39 C46         7.5260  -22.3370    9.0550 C.3       1 2OJ         0.1712
     40 O47         7.0860  -22.9720    7.8500 O.3       1 2OJ        -0.2655
     41 C85         8.1210  -23.3560    6.8940 C.2       1 2OJ         0.2311
     42 O86         8.5400  -22.5210    6.1030 O.2       1 2OJ        -0.3707
     43 C87         8.6070  -24.7760    6.8690 C.3       1 2OJ         0.0372
     44 C44         6.2800  -21.9490    9.8520 C.3       1 2OJ         0.1556
     45 O45         5.4710  -23.0180   10.3480 O.3       1 2OJ        -0.2675
     46 C88         4.0850  -22.8010    9.9290 C.2       1 2OJ         0.2310
     47 C89         3.3610  -21.5220   10.2510 C.3       1 2OJ         0.0372
     48 O90         3.5310  -23.6910    9.3050 O.2       1 2OJ        -0.3707
     49 C42         6.7610  -20.9630   10.8990 C.3       1 2OJ         0.1495
     50 O42         6.0140  -20.9300   12.1140 O.3       1 2OJ        -0.2679
     51 C91         6.9100  -21.0890   13.2570 C.2       1 2OJ         0.2310
     52 C92         8.1550  -21.9190   13.1140 C.3       1 2OJ         0.0372
     53 O93         6.6180  -20.5490   14.3110 O.2       1 2OJ        -0.3707
     54 C39         6.6450  -19.7220   10.0310 C.3       1 2OJ         0.1227
     55 C40         6.9010  -18.4060   10.7490 C.3       1 2OJ         0.1059
     56 O41         7.8230  -17.6620    9.9590 O.3       1 2OJ        -0.2743
     57 C94         7.3460  -16.8750    8.8360 C.2       1 2OJ         0.2307
     58 O96         8.1250  -16.6450    7.9230 O.2       1 2OJ        -0.3707
     59 C95         5.9310  -16.3760    8.8610 C.3       1 2OJ         0.0372
     60 H          17.1559   -9.0472   10.5217 H         1 2OJ         0.0439
     61 H          16.9931  -10.9948   12.2193 H         1 2OJ         0.0451
     62 H          15.5668  -12.7475   13.4467 H         1 2OJ         0.0373
     63 H          14.4128  -14.0961   16.9150 H         1 2OJ         0.0757
     64 H          15.4982  -14.5285   15.5506 H         1 2OJ         0.0757
     65 H          15.2875  -16.5644   15.5831 H         1 2OJ         0.0412
     66 H          15.4958  -18.6302   14.2246 H         1 2OJ         0.0436
     67 H          13.9405  -19.0407   12.3440 H         1 2OJ         0.0412
     68 H          12.1249  -14.1509   13.1624 H         1 2OJ         0.2183
     69 H          10.2866  -13.5533   11.9977 H         1 2OJ         0.0545
     70 H           8.2900  -13.2050   12.9185 H         1 2OJ         0.0344
     71 H           8.2473  -14.8870   13.5475 H         1 2OJ         0.0344
     72 H           6.2844  -14.2225   12.1153 H         1 2OJ         0.0816
     73 H           7.1658  -15.6905   11.5724 H         1 2OJ         0.0816
     74 H           6.8297  -14.5208    9.7136 H         1 2OJ         0.2036
     75 H           7.6127  -11.9480   10.8584 H         1 2OJ         0.0846
     76 H           5.1908  -11.4329   10.7877 H         1 2OJ         0.0284
     77 H           5.5247  -12.8075   11.8948 H         1 2OJ         0.0284
     78 H           4.8444  -13.1148   10.2610 H         1 2OJ         0.0284
     79 H           6.5631  -11.1048    8.7665 H         1 2OJ         0.0284
     80 H           6.2401  -12.7949    8.2509 H         1 2OJ         0.0284
     81 H           7.9318  -12.2119    8.4092 H         1 2OJ         0.0284
     82 H           9.2767  -13.1227    9.8737 H         1 2OJ         0.0816
     83 H           8.7700  -14.4728    8.8026 H         1 2OJ         0.0816
     84 H           9.1442  -16.0687   10.7093 H         1 2OJ         0.0344
     85 H          10.6377  -15.1965   10.2240 H         1 2OJ         0.0344
     86 H          12.6424  -19.3463   11.1985 H         1 2OJ         0.0608
     87 H          12.4334  -18.2971    9.7555 H         1 2OJ         0.0608
     88 H           9.9150  -18.1821   10.6643 H         1 2OJ         0.0313
     89 H          10.3708  -19.7475   11.4182 H         1 2OJ         0.0313
     90 H          11.2290  -20.0779    8.8021 H         1 2OJ         0.0562
     91 H           9.7345  -19.1011    8.6048 H         1 2OJ         0.0562
     92 H           8.6490  -21.1106    7.7086 H         1 2OJ         0.0941
     93 H           8.1525  -23.0314    9.6341 H         1 2OJ         0.0732
     94 H           9.3801  -24.8853    6.0942 H         1 2OJ         0.0483
     95 H           7.7654  -25.4477    6.6445 H         1 2OJ         0.0483
     96 H           9.0317  -25.0355    7.8499 H         1 2OJ         0.0483
     97 H           5.6244  -21.3949    9.1642 H         1 2OJ         0.0712
     98 H           2.3390  -21.5674    9.8467 H         1 2OJ         0.0483
     99 H           3.8965  -20.6738    9.7995 H         1 2OJ         0.0483
    100 H           3.3181  -21.3896   11.3422 H         1 2OJ         0.0483
    101 H           7.8098  -21.1584   11.1670 H         1 2OJ         0.0708
    102 H           8.7024  -21.9262   14.0681 H         1 2OJ         0.0483
    103 H           8.7937  -21.4896   12.3281 H         1 2OJ         0.0483
    104 H           7.8800  -22.9486   12.8413 H         1 2OJ         0.0483
    105 H           5.6091  -19.6849    9.6628 H         1 2OJ         0.0654
    106 H           7.3280  -18.5977   11.7444 H         1 2OJ         0.0640
    107 H           5.9600  -17.8464   10.8552 H         1 2OJ         0.0640
    108 H           5.7285  -15.8017    7.9450 H         1 2OJ         0.0483
    109 H           5.7857  -15.7293    9.7388 H         1 2OJ         0.0483
    110 H           5.2415  -17.2312    8.9174 H         1 2OJ         0.0483
@<TRIPOS>BOND
     1    1    2 1  
     2    2    3 1  
     3    2    4 2  
     4    3    6 1  
     5    4    5 1  
     6    5    6 2  
     7    6    7 1  
     8    7    8 1  
     9    7   10 2  
    10    8    9 1  
    11    9   11 2  
    12   10   11 1  
    13   11   12 1  
    14   12   13 1  
    15   13   14 1  
    16   14   15 ar 
    17   14   18 ar 
    18   15   16 ar 
    19   16   17 ar 
    20   17   31 ar 
    21   18   19 1  
    22   18   31 ar 
    23   19   20 am 
    24   20   21 1  
    25   20   30 2  
    26   21   22 1  
    27   21   29 1  
    28   22   23 1  
    29   23   24 1  
    30   24   25 1  
    31   24   28 1  
    32   25   26 1  
    33   25   27 1  
    34   28   29 1  
    35   31   32 1  
    36   32   33 1  
    37   33   34 1  
    38   34   35 1  
    39   35   36 1  
    40   36   37 1  
    41   37   38 1  
    42   37   39 1  
    43   38   54 1  
    44   39   40 1  
    45   39   44 1  
    46   40   41 1  
    47   41   42 2  
    48   41   43 1  
    49   44   45 1  
    50   44   49 1  
    51   45   46 1  
    52   46   47 1  
    53   46   48 2  
    54   49   50 1  
    55   49   54 1  
    56   50   51 1  
    57   51   52 1  
    58   51   53 2  
    59   54   55 1  
    60   55   56 1  
    61   56   57 1  
    62   57   58 2  
    63   57   59 1  
    64    4   60 1  
    65    5   61 1  
    66   10   62 1  
    67   12   63 1  
    68   12   64 1  
    69   15   65 1  
    70   16   66 1  
    71   17   67 1  
    72   19   68 1  
    73   21   69 1  
    74   22   70 1  
    75   22   71 1  
    76   23   72 1  
    77   23   73 1  
    78   24   74 1  
    79   25   75 1  
    80   26   76 1  
    81   26   77 1  
    82   26   78 1  
    83   27   79 1  
    84   27   80 1  
    85   27   81 1  
    86   28   82 1  
    87   28   83 1  
    88   29   84 1  
    89   29   85 1  
    90   33   86 1  
    91   33   87 1  
    92   34   88 1  
    93   34   89 1  
    94   35   90 1  
    95   35   91 1  
    96   37   92 1  
    97   39   93 1  
    98   43   94 1  
    99   43   95 1  
   100   43   96 1  
   101   44   97 1  
   102   47   98 1  
   103   47   99 1  
   104   47  100 1  
   105   49  101 1  
   106   52  102 1  
   107   52  103 1  
   108   52  104 1  
   109   54  105 1  
   110   55  106 1  
   111   55  107 1  
   112   59  108 1  
   113   59  109 1  
   114   59  110 1  
@<TRIPOS>SUBSTRUCTURE
     1 2OJ         1

