### 
### Created by X-TOOL on Mon Sep 10 21:13:18 2018
### 

@<TRIPOS>MOLECULE
4o04_ligand
   52    55     1     0     0
SMALL
GAST_HUCK


@<TRIPOS>ATOM
      1 O1          8.6760  -12.3620  -24.2100 O.2       1 2Q8        -0.4028
      2 C18         7.5050  -12.7110  -24.3040 C.2       1 2Q8         0.0957
      3 C19         7.1670  -14.1380  -24.6770 C.3       1 2Q8         0.0212
      4 C1          5.9010  -14.3150  -25.5320 C.3       1 2Q8        -0.0089
      5 C20         5.5490  -15.7970  -25.6400 C.3       1 2Q8        -0.0559
      6 C           6.1380  -13.7620  -26.9420 C.3       1 2Q8        -0.0559
      7 C4          6.3900  -11.7620  -24.1050 C.2       1 2Q8         0.0080
      8 C5          6.2960  -10.3690  -23.7390 C.2       1 2Q8        -0.0481
      9 C16         7.4310   -9.4330  -23.3990 C.3       1 2Q8        -0.0027
     10 C15         6.9130   -7.9950  -23.4390 C.3       1 2Q8        -0.0282
     11 N2          5.6110   -7.8110  -22.7990 N.4       1 2Q8         0.2439
     12 C17         5.2380   -6.3890  -22.7710 C.3       1 2Q8        -0.0419
     13 C14         4.5800   -8.5980  -23.4710 C.3       1 2Q8         0.0139
     14 C6          4.9700  -10.0080  -23.7880 C.2       1 2Q8         0.0887
     15 N           4.2390  -11.1180  -24.1760 N.pl3     1 2Q8        -0.2230
     16 C3          5.1020  -12.1920  -24.3740 C.2       1 2Q8         0.0673
     17 C2          4.7450  -13.5670  -24.8550 C.3       1 2Q8         0.0114
     18 C7          2.8100  -11.1250  -24.3940 C.ar      1 2Q8         0.0966
     19 C12         2.2280  -10.1740  -25.2380 C.ar      1 2Q8        -0.0224
     20 C11         0.8590  -10.1830  -25.4520 C.ar      1 2Q8        -0.0466
     21 C10         0.0460  -11.1460  -24.8490 C.ar      1 2Q8         0.0418
     22 C13        -1.4300  -11.1550  -25.1550 C.2       1 2Q8         0.1967
     23 N1         -2.2480  -11.7240  -24.2760 N.am      1 2Q8        -0.3012
     24 O          -1.8320  -10.6500  -26.2050 O.2       1 2Q8        -0.3885
     25 C9          0.6330  -12.0950  -24.0080 C.ar      1 2Q8        -0.0466
     26 C8          2.0020  -12.0860  -23.7720 C.ar      1 2Q8        -0.0224
     27 H           7.0304  -14.7086  -23.7465 H         1 2Q8         0.0483
     28 H           8.0168  -14.5519  -25.2396 H         1 2Q8         0.0483
     29 H           4.6430  -15.9150  -26.2526 H         1 2Q8         0.0238
     30 H           5.3675  -16.2050  -24.6347 H         1 2Q8         0.0238
     31 H           6.3828  -16.3386  -26.1105 H         1 2Q8         0.0238
     32 H           6.3928  -12.6938  -26.8788 H         1 2Q8         0.0238
     33 H           5.2250  -13.8862  -27.5429 H         1 2Q8         0.0238
     34 H           6.9663  -14.3091  -27.4160 H         1 2Q8         0.0238
     35 H           8.2422   -9.5541  -24.1319 H         1 2Q8         0.0385
     36 H           7.8096   -9.6616  -22.3918 H         1 2Q8         0.0385
     37 H           6.8267   -7.6881  -24.4918 H         1 2Q8         0.0828
     38 H           7.6432   -7.3505  -22.9278 H         1 2Q8         0.0828
     39 H           5.6822   -8.1356  -21.8474 H         1 2Q8         0.2042
     40 H           4.2572   -6.2767  -22.2859 H         1 2Q8         0.0778
     41 H           5.1844   -6.0036  -23.7999 H         1 2Q8         0.0778
     42 H           5.9933   -5.8228  -22.2062 H         1 2Q8         0.0778
     43 H           4.3258   -8.0934  -24.4148 H         1 2Q8         0.0946
     44 H           3.6936   -8.6268  -22.8203 H         1 2Q8         0.0946
     45 H           4.4101  -14.1589  -23.9905 H         1 2Q8         0.0457
     46 H           3.9215  -13.4765  -25.5787 H         1 2Q8         0.0457
     47 H           2.8478   -9.4298  -25.7248 H         1 2Q8         0.0592
     48 H           0.4131   -9.4333  -26.0955 H         1 2Q8         0.0650
     49 H          -3.2324  -11.7459  -24.4505 H         1 2Q8         0.1806
     50 H          -1.8792  -12.1303  -23.4400 H         1 2Q8         0.1806
     51 H           0.0128  -12.8472  -23.5341 H         1 2Q8         0.0650
     52 H           2.4439  -12.8205  -23.1084 H         1 2Q8         0.0592
@<TRIPOS>BOND
     1    1    2 2  
     2    2    3 1  
     3    2    7 1  
     4    3    4 1  
     5    4    5 1  
     6    4    6 1  
     7    4   17 1  
     8    7    8 1  
     9    7   16 2  
    10    8    9 1  
    11    8   14 2  
    12    9   10 1  
    13   10   11 1  
    14   11   12 1  
    15   11   13 1  
    16   13   14 1  
    17   14   15 1  
    18   15   16 1  
    19   15   18 1  
    20   16   17 1  
    21   18   19 ar 
    22   18   26 ar 
    23   19   20 ar 
    24   20   21 ar 
    25   21   22 1  
    26   21   25 ar 
    27   22   23 am 
    28   22   24 2  
    29   25   26 ar 
    30    3   27 1  
    31    3   28 1  
    32    5   29 1  
    33    5   30 1  
    34    5   31 1  
    35    6   32 1  
    36    6   33 1  
    37    6   34 1  
    38    9   35 1  
    39    9   36 1  
    40   10   37 1  
    41   10   38 1  
    42   11   39 1  
    43   12   40 1  
    44   12   41 1  
    45   12   42 1  
    46   13   43 1  
    47   13   44 1  
    48   17   45 1  
    49   17   46 1  
    50   19   47 1  
    51   20   48 1  
    52   23   49 1  
    53   23   50 1  
    54   25   51 1  
    55   26   52 1  
@<TRIPOS>SUBSTRUCTURE
     1 2Q8         1

