### 
### Created by X-TOOL on Mon Sep 10 21:13:18 2018
### 

@<TRIPOS>MOLECULE
4o05_ligand
   67    71     1     0     0
SMALL
GAST_HUCK


@<TRIPOS>ATOM
      1 N           0.7140   -9.1120  -26.3690 N.pl3     1 2Q9        -0.3187
      2 C           0.8080   -7.9940  -28.5230 C.3       1 2Q9        -0.0427
      3 O1          9.0410  -11.7730  -23.8750 O.2       1 2Q9        -0.4028
      4 C20         7.9020  -12.1850  -24.0010 C.2       1 2Q9         0.0957
      5 C21         7.6580  -13.6180  -24.4150 C.3       1 2Q9         0.0212
      6 C22         6.4210  -13.8490  -25.2970 C.3       1 2Q9        -0.0089
      7 C25         6.1630  -15.3470  -25.4440 C.3       1 2Q9        -0.0559
      8 C24         6.6450  -13.2460  -26.6890 C.3       1 2Q9        -0.0559
      9 C23         5.2100  -13.1900  -24.6230 C.3       1 2Q9         0.0114
     10 C12         5.4820  -11.8010  -24.1240 C.2       1 2Q9         0.0669
     11 C13         6.7380  -11.2980  -23.8380 C.2       1 2Q9         0.0080
     12 C14         6.5580   -9.9210  -23.4420 C.2       1 2Q9        -0.0481
     13 C18         7.6270   -8.9270  -23.0450 C.3       1 2Q9        -0.0027
     14 C17         7.0220   -7.5190  -23.0450 C.3       1 2Q9        -0.0282
     15 N3          5.6900   -7.4320  -22.4490 N.4       1 2Q9         0.2439
     16 C19         5.2230   -6.0350  -22.4000 C.3       1 2Q9        -0.0419
     17 C16         4.7300   -8.2680  -23.1640 C.3       1 2Q9         0.0139
     18 C15         5.2150   -9.6450  -23.4980 C.2       1 2Q9         0.0884
     19 N2          4.5580  -10.7870  -23.9190 N.pl3     1 2Q9        -0.2272
     20 C5          3.1490  -10.8610  -24.2010 C.ar      1 2Q9         0.0782
     21 C4          2.5970   -9.9590  -25.1110 C.ar      1 2Q9        -0.0126
     22 C6          2.3610  -11.8420  -23.5930 C.ar      1 2Q9        -0.0341
     23 C7          1.0120  -11.9520  -23.9210 C.ar      1 2Q9        -0.0361
     24 C11         0.1890  -13.0570  -23.3040 C.3       1 2Q9         0.0002
     25 C10        -1.2720  -12.6780  -23.2240 C.3       1 2Q9         0.0398
     26 N1         -1.7260  -12.0360  -24.4710 N.am      1 2Q9        -0.2885
     27 C9         -0.9740  -11.2530  -25.2680 C.2       1 2Q9         0.1868
     28 O          -1.4470  -10.7670  -26.2900 O.2       1 2Q9        -0.3992
     29 C8          0.4430  -11.0440  -24.8580 C.ar      1 2Q9         0.0605
     30 C3          1.2430  -10.0150  -25.4450 C.ar      1 2Q9         0.0480
     31 C1          1.4550   -8.1200  -27.1700 C.3       1 2Q9         0.0307
     32 C2          1.5420   -6.7910  -26.4630 C.3       1 2Q9        -0.0427
     33 H          -0.3064   -9.1419  -26.5064 H         1 2Q9         0.1781
     34 H           1.3573   -7.2549  -29.1247 H         1 2Q9         0.0251
     35 H          -0.2349   -7.6659  -28.4016 H         1 2Q9         0.0251
     36 H           0.8288   -8.9691  -29.0316 H         1 2Q9         0.0251
     37 H           7.5403  -14.2196  -23.5016 H         1 2Q9         0.0483
     38 H           8.5409  -13.9653  -24.9716 H         1 2Q9         0.0483
     39 H           5.2769  -15.5061  -26.0760 H         1 2Q9         0.0238
     40 H           5.9895  -15.7883  -24.4515 H         1 2Q9         0.0238
     41 H           7.0367  -15.8255  -25.9105 H         1 2Q9         0.0238
     42 H           6.8320  -12.1661  -26.5950 H         1 2Q9         0.0238
     43 H           5.7509  -13.4107  -27.3082 H         1 2Q9         0.0238
     44 H           7.5128  -13.7285  -27.1623 H         1 2Q9         0.0238
     45 H           4.9057  -13.8129  -23.7689 H         1 2Q9         0.0457
     46 H           4.3888  -13.1425  -25.3533 H         1 2Q9         0.0457
     47 H           8.4579   -8.9716  -23.7645 H         1 2Q9         0.0385
     48 H           7.9999   -9.1683  -22.0387 H         1 2Q9         0.0385
     49 H           6.9553   -7.1736  -24.0872 H         1 2Q9         0.0828
     50 H           7.6947   -6.8559  -22.4812 H         1 2Q9         0.0828
     51 H           5.7529   -7.7726  -21.5024 H         1 2Q9         0.2042
     52 H           4.2208   -5.9991  -21.9481 H         1 2Q9         0.0778
     53 H           5.1799   -5.6268  -23.4205 H         1 2Q9         0.0778
     54 H           5.9197   -5.4365  -21.7948 H         1 2Q9         0.0778
     55 H           4.4697   -7.7605  -24.1046 H         1 2Q9         0.0946
     56 H           3.8303   -8.3655  -22.5387 H         1 2Q9         0.0946
     57 H           3.2286   -9.2040  -25.5650 H         1 2Q9         0.0430
     58 H           2.7994  -12.5168  -22.8667 H         1 2Q9         0.0425
     59 H           0.5627  -13.2575  -22.2891 H         1 2Q9         0.0456
     60 H           0.2902  -13.9641  -23.9179 H         1 2Q9         0.0456
     61 H          -1.4158  -11.9783  -22.3875 H         1 2Q9         0.0542
     62 H          -1.8689  -13.5854  -23.0499 H         1 2Q9         0.0542
     63 H          -2.6733  -12.1955  -24.7488 H         1 2Q9         0.1836
     64 H           2.4808   -8.4903  -27.3135 H         1 2Q9         0.0545
     65 H           2.0998   -6.0787  -27.0887 H         1 2Q9         0.0251
     66 H           2.0617   -6.9201  -25.5022 H         1 2Q9         0.0251
     67 H           0.5281   -6.4046  -26.2825 H         1 2Q9         0.0251
@<TRIPOS>BOND
     1   30    1 1  
     2    1   31 1  
     3   31    2 1  
     4    4    3 2  
     5    4    5 1  
     6   11    4 1  
     7    6    5 1  
     8    6    7 1  
     9    6    8 1  
    10    9    6 1  
    11   10    9 1  
    12   10   11 2  
    13   19   10 1  
    14   12   11 1  
    15   12   13 1  
    16   18   12 2  
    17   13   14 1  
    18   15   14 1  
    19   15   16 1  
    20   17   15 1  
    21   18   17 1  
    22   19   18 1  
    23   20   19 1  
    24   21   20 ar 
    25   20   22 ar 
    26   21   30 ar 
    27   22   23 ar 
    28   23   24 1  
    29   23   29 ar 
    30   24   25 1  
    31   25   26 1  
    32   26   27 am 
    33   27   28 2  
    34   27   29 1  
    35   29   30 ar 
    36   31   32 1  
    37    1   33 1  
    38    2   34 1  
    39    2   35 1  
    40    2   36 1  
    41    5   37 1  
    42    5   38 1  
    43    7   39 1  
    44    7   40 1  
    45    7   41 1  
    46    8   42 1  
    47    8   43 1  
    48    8   44 1  
    49    9   45 1  
    50    9   46 1  
    51   13   47 1  
    52   13   48 1  
    53   14   49 1  
    54   14   50 1  
    55   15   51 1  
    56   16   52 1  
    57   16   53 1  
    58   16   54 1  
    59   17   55 1  
    60   17   56 1  
    61   21   57 1  
    62   22   58 1  
    63   24   59 1  
    64   24   60 1  
    65   25   61 1  
    66   25   62 1  
    67   26   63 1  
    68   31   64 1  
    69   32   65 1  
    70   32   66 1  
    71   32   67 1  
@<TRIPOS>SUBSTRUCTURE
     1 2Q9         1

