### 
### Created by X-TOOL on Mon Sep 10 21:13:18 2018
### 

@<TRIPOS>MOLECULE
4o07_ligand
   68    72     1     0     0
SMALL
GAST_HUCK


@<TRIPOS>ATOM
      1 O1          8.8500  -12.0960  -24.0000 O.2       1 FGH        -0.4028
      2 C21         7.7030  -12.4800  -24.1240 C.2       1 FGH         0.0957
      3 C22         7.4330  -13.9080  -24.5440 C.3       1 FGH         0.0212
      4 C23         6.1880  -14.1220  -25.4200 C.3       1 FGH        -0.0089
      5 C26         5.8910  -15.6160  -25.5390 C.3       1 FGH        -0.0559
      6 C25         6.4230  -13.5510  -26.8230 C.3       1 FGH        -0.0559
      7 C24         4.9960  -13.4190  -24.7570 C.3       1 FGH         0.0114
      8 C13         5.2970  -12.0420  -24.2430 C.2       1 FGH         0.0671
      9 C14         6.5600  -11.5660  -23.9460 C.2       1 FGH         0.0080
     10 C15         6.4050  -10.1870  -23.5290 C.2       1 FGH        -0.0481
     11 C19         7.4890   -9.2140  -23.1180 C.3       1 FGH        -0.0027
     12 C18         6.8950   -7.8010  -23.0460 C.3       1 FGH        -0.0282
     13 N2          5.5590   -7.7160  -22.4560 N.4       1 FGH         0.2439
     14 C20         5.1060   -6.3150  -22.3700 C.3       1 FGH        -0.0419
     15 C17         4.5990   -8.5180  -23.2080 C.3       1 FGH         0.0139
     16 C16         5.0680   -9.8890  -23.5860 C.2       1 FGH         0.0885
     17 N1          4.3910  -11.0130  -24.0320 N.pl3     1 FGH        -0.2259
     18 C6          2.9890  -11.0330  -24.3670 C.ar      1 FGH         0.0831
     19 C5          2.5000  -10.0960  -25.2790 C.ar      1 FGH        -0.0280
     20 C7          2.1360  -11.9870  -23.7970 C.ar      1 FGH        -0.0280
     21 C8          0.7920  -12.0310  -24.1660 C.ar      1 FGH        -0.0316
     22 C12        -0.1200  -13.0590  -23.5370 C.3       1 FGH         0.0015
     23 C11        -1.5420  -12.5470  -23.4420 C.3       1 FGH         0.0401
     24 N          -1.9340  -11.9560  -24.7330 N.am      1 FGH        -0.2875
     25 C10        -1.1150  -11.2750  -25.5610 C.2       1 FGH         0.1900
     26 O          -1.5110  -10.8790  -26.6510 O.2       1 FGH        -0.3958
     27 C9          0.2930  -11.0910  -25.1150 C.ar      1 FGH         0.0450
     28 C4          1.1580  -10.0900  -25.6420 C.ar      1 FGH        -0.0332
     29 C3          0.7750   -8.9210  -26.5240 C.3       1 FGH        -0.0163
     30 C1          0.1220   -7.6870  -25.8690 C.3       1 FGH        -0.0363
     31 C2         -0.1690   -6.6260  -26.9230 C.3       1 FGH        -0.0607
     32 C           0.9170   -7.0510  -24.7200 C.3       1 FGH        -0.0607
     33 H           7.3121  -14.5112  -23.6321 H         1 FGH         0.0483
     34 H           8.3077  -14.2657  -25.1070 H         1 FGH         0.0483
     35 H           4.9997  -15.7638  -26.1665 H         1 FGH         0.0238
     36 H           5.7083  -16.0344  -24.5382 H         1 FGH         0.0238
     37 H           6.7511  -16.1254  -25.9980 H         1 FGH         0.0238
     38 H           6.6380  -12.4747  -26.7495 H         1 FGH         0.0238
     39 H           5.5230  -13.7040  -27.4367 H         1 FGH         0.0238
     40 H           7.2767  -14.0644  -27.2896 H         1 FGH         0.0238
     41 H           4.6595  -14.0362  -23.9109 H         1 FGH         0.0457
     42 H           4.1870  -13.3404  -25.4982 H         1 FGH         0.0457
     43 H           8.3022   -9.2343  -23.8585 H         1 FGH         0.0385
     44 H           7.8841   -9.4980  -22.1315 H         1 FGH         0.0385
     45 H           6.8408   -7.4021  -24.0697 H         1 FGH         0.0828
     46 H           7.5727   -7.1772  -22.4447 H         1 FGH         0.0828
     47 H           5.6092   -8.0861  -21.5198 H         1 FGH         0.2042
     48 H           4.1012   -6.2813  -21.9237 H         1 FGH         0.0778
     49 H           5.0740   -5.8774  -23.3787 H         1 FGH         0.0778
     50 H           5.8049   -5.7415  -21.7434 H         1 FGH         0.0778
     51 H           4.3537   -7.9757  -24.1330 H         1 FGH         0.0946
     52 H           3.6922   -8.6261  -22.5948 H         1 FGH         0.0946
     53 H           3.1746   -9.3646  -25.7092 H         1 FGH         0.0474
     54 H           2.5210  -12.6915  -23.0686 H         1 FGH         0.0474
     55 H           0.2455  -13.2917  -22.5259 H         1 FGH         0.0457
     56 H          -0.1080  -13.9720  -24.1504 H         1 FGH         0.0457
     57 H          -1.6054  -11.7825  -22.6536 H         1 FGH         0.0543
     58 H          -2.2173  -13.3807  -23.1995 H         1 FGH         0.0543
     59 H          -2.8855  -12.0688  -25.0193 H         1 FGH         0.1839
     60 H           0.0689   -9.3004  -27.2773 H         1 FGH         0.0440
     61 H           1.6929   -8.5762  -27.0226 H         1 FGH         0.0440
     62 H          -0.8378   -8.0214  -25.4484 H         1 FGH         0.0319
     63 H          -0.6341   -5.7516  -26.4444 H         1 FGH         0.0234
     64 H          -0.8540   -7.0380  -27.6787 H         1 FGH         0.0234
     65 H           0.7710   -6.3223  -27.4069 H         1 FGH         0.0234
     66 H           1.1300   -7.8129  -23.9557 H         1 FGH         0.0234
     67 H           0.3273   -6.2375  -24.2723 H         1 FGH         0.0234
     68 H           1.8634   -6.6469  -25.1086 H         1 FGH         0.0234
@<TRIPOS>BOND
     1    1    2 2  
     2    2    3 1  
     3    2    9 1  
     4    3    4 1  
     5    4    5 1  
     6    4    6 1  
     7    4    7 1  
     8    7    8 1  
     9    8    9 2  
    10    8   17 1  
    11    9   10 1  
    12   10   11 1  
    13   10   16 2  
    14   11   12 1  
    15   12   13 1  
    16   13   14 1  
    17   13   15 1  
    18   15   16 1  
    19   16   17 1  
    20   17   18 1  
    21   18   19 ar 
    22   18   20 ar 
    23   19   28 ar 
    24   20   21 ar 
    25   21   22 1  
    26   21   27 ar 
    27   22   23 1  
    28   23   24 1  
    29   24   25 am 
    30   25   26 2  
    31   25   27 1  
    32   27   28 ar 
    33   28   29 1  
    34   29   30 1  
    35   30   31 1  
    36   30   32 1  
    37    3   33 1  
    38    3   34 1  
    39    5   35 1  
    40    5   36 1  
    41    5   37 1  
    42    6   38 1  
    43    6   39 1  
    44    6   40 1  
    45    7   41 1  
    46    7   42 1  
    47   11   43 1  
    48   11   44 1  
    49   12   45 1  
    50   12   46 1  
    51   13   47 1  
    52   14   48 1  
    53   14   49 1  
    54   14   50 1  
    55   15   51 1  
    56   15   52 1  
    57   19   53 1  
    58   20   54 1  
    59   22   55 1  
    60   22   56 1  
    61   23   57 1  
    62   23   58 1  
    63   24   59 1  
    64   29   60 1  
    65   29   61 1  
    66   30   62 1  
    67   31   63 1  
    68   31   64 1  
    69   31   65 1  
    70   32   66 1  
    71   32   67 1  
    72   32   68 1  
@<TRIPOS>SUBSTRUCTURE
     1 FGH         1

