### 
### Created by X-TOOL on Mon Sep 10 21:13:19 2018
### 

@<TRIPOS>MOLECULE
4o09_ligand
   58    61     1     0     0
SMALL
GAST_HUCK


@<TRIPOS>ATOM
      1 O1         -1.1740  -10.6650  -26.4400 O.2       1 2R6        -0.3957
      2 C21        -0.7710  -11.1080  -25.3650 C.2       1 2R6         0.1901
      3 N1         -1.5910  -11.8460  -24.5890 N.am      1 2R6        -0.2875
      4 C22        -1.2210  -12.5500  -23.3480 C.3       1 2R6         0.0401
      5 C23         0.2020  -13.0500  -23.4740 C.3       1 2R6         0.0015
      6 C13         1.1160  -11.9670  -23.9990 C.ar      1 2R6        -0.0314
      7 C12         2.4490  -11.9470  -23.5870 C.ar      1 2R6        -0.0276
      8 C14         0.6390  -10.9560  -24.8890 C.ar      1 2R6         0.0452
      9 C15         1.5210   -9.9130  -25.3100 C.ar      1 2R6        -0.0330
     10 C17         1.1630   -8.7060  -26.1480 C.3       1 2R6        -0.0163
     11 C18         0.4060   -7.5520  -25.4770 C.3       1 2R6        -0.0363
     12 C20         0.1500   -6.4470  -26.4950 C.3       1 2R6        -0.0607
     13 C19         1.0980   -6.9660  -24.2420 C.3       1 2R6        -0.0607
     14 C16         2.8520   -9.9380  -24.8940 C.ar      1 2R6        -0.0276
     15 C11         3.3110  -10.9500  -24.0510 C.ar      1 2R6         0.0833
     16 N           4.7100  -10.9970  -23.7010 N.pl3     1 2R6        -0.2358
     17 C2          5.4490   -9.9140  -23.2690 C.2       1 2R6         0.0226
     18 C3          5.6110  -11.9980  -24.0540 C.2       1 2R6         0.0743
     19 C8          5.2730  -13.3350  -24.6470 C.3       1 2R6         0.0158
     20 C7          6.4270  -14.0140  -25.3970 C.3       1 2R6        -0.0077
     21 C10         6.6140  -13.3680  -26.7740 C.3       1 2R6        -0.0557
     22 C9          6.1040  -15.4940  -25.5890 C.3       1 2R6        -0.0557
     23 C6          7.7090  -13.8620  -24.5640 C.3       1 2R6         0.0216
     24 C5          8.0220  -12.4580  -24.0960 C.2       1 2R6         0.0985
     25 O           9.1880  -12.0990  -23.9940 O.2       1 2R6        -0.4025
     26 C4          6.8940  -11.5410  -23.8220 C.2       1 2R6         0.0182
     27 C1          6.7770  -10.1940  -23.3270 C.2       1 2R6        -0.0600
     28 C           7.8760   -9.2340  -22.9550 C.3       1 2R6        -0.0504
     29 H          -2.5432  -11.9231  -24.8845 H         1 2R6         0.1839
     30 H          -1.8990  -13.4017  -23.1903 H         1 2R6         0.0543
     31 H          -1.2955  -11.8592  -22.4952 H         1 2R6         0.0543
     32 H           0.2225  -13.9041  -24.1669 H         1 2R6         0.0457
     33 H           0.5584  -13.3720  -22.4844 H         1 2R6         0.0457
     34 H           2.8164  -12.7061  -22.9059 H         1 2R6         0.0476
     35 H           0.5407   -9.0619  -26.9823 H         1 2R6         0.0440
     36 H           2.1032   -8.2929  -26.5421 H         1 2R6         0.0440
     37 H          -0.5660   -7.9481  -25.1479 H         1 2R6         0.0319
     38 H          -0.3926   -5.6214  -26.0113 H         1 2R6         0.0234
     39 H          -0.4524   -6.8452  -27.3248 H         1 2R6         0.0234
     40 H           1.1102   -6.0768  -26.8836 H         1 2R6         0.0234
     41 H           1.2810   -7.7664  -23.5099 H         1 2R6         0.0234
     42 H           0.4537   -6.1969  -23.7910 H         1 2R6         0.0234
     43 H           2.0561   -6.5141  -24.5383 H         1 2R6         0.0234
     44 H           3.5348   -9.1653  -25.2283 H         1 2R6         0.0476
     45 H           5.0271   -8.9691  -22.9298 H         1 2R6         0.0628
     46 H           4.4405  -13.1964  -25.3524 H         1 2R6         0.0473
     47 H           4.9555  -14.0012  -23.8314 H         1 2R6         0.0473
     48 H           7.4430  -13.8626  -27.3015 H         1 2R6         0.0238
     49 H           6.8441  -12.2996  -26.6496 H         1 2R6         0.0238
     50 H           5.6893  -13.4782  -27.3594 H         1 2R6         0.0238
     51 H           5.9673  -15.9699  -24.6067 H         1 2R6         0.0238
     52 H           6.9323  -15.9840  -26.1216 H         1 2R6         0.0238
     53 H           5.1797  -15.5943  -26.1768 H         1 2R6         0.0238
     54 H           8.5537  -14.2108  -25.1762 H         1 2R6         0.0483
     55 H           7.6123  -14.5015  -23.6743 H         1 2R6         0.0483
     56 H           7.4347   -8.2864  -22.6126 H         1 2R6         0.0324
     57 H           8.5117   -9.0463  -23.8329 H         1 2R6         0.0324
     58 H           8.4843   -9.6680  -22.1478 H         1 2R6         0.0324
@<TRIPOS>BOND
     1    1    2 2  
     2    2    3 am 
     3    2    8 1  
     4    3    4 1  
     5    4    5 1  
     6    5    6 1  
     7    6    7 ar 
     8    6    8 ar 
     9    7   15 ar 
    10    8    9 ar 
    11    9   10 1  
    12    9   14 ar 
    13   10   11 1  
    14   11   12 1  
    15   11   13 1  
    16   14   15 ar 
    17   15   16 1  
    18   16   17 1  
    19   16   18 1  
    20   17   27 2  
    21   18   19 1  
    22   18   26 2  
    23   19   20 1  
    24   20   21 1  
    25   20   22 1  
    26   20   23 1  
    27   23   24 1  
    28   24   25 2  
    29   24   26 1  
    30   26   27 1  
    31   27   28 1  
    32    3   29 1  
    33    4   30 1  
    34    4   31 1  
    35    5   32 1  
    36    5   33 1  
    37    7   34 1  
    38   10   35 1  
    39   10   36 1  
    40   11   37 1  
    41   12   38 1  
    42   12   39 1  
    43   12   40 1  
    44   13   41 1  
    45   13   42 1  
    46   13   43 1  
    47   14   44 1  
    48   17   45 1  
    49   19   46 1  
    50   19   47 1  
    51   21   48 1  
    52   21   49 1  
    53   21   50 1  
    54   22   51 1  
    55   22   52 1  
    56   22   53 1  
    57   23   54 1  
    58   23   55 1  
    59   28   56 1  
    60   28   57 1  
    61   28   58 1  
@<TRIPOS>SUBSTRUCTURE
     1 2R6         1

