### 
### Created by X-TOOL on Mon Sep 10 21:13:17 2018
### 

@<TRIPOS>MOLECULE
4o0a_ligand
   60    64     1     0     0
SMALL
GAST_HUCK


@<TRIPOS>ATOM
      1 O01        -7.2470   10.0720   -3.1180 O.co2     1 2P9        -0.5608
      2 C02        -6.1360   10.6360   -3.2570 C.2       1 2P9         0.0683
      3 C03        -5.2320   10.7230   -2.0640 C.2       1 2P9         0.0697
      4 N04        -5.5910   10.3190   -0.8630 N.2       1 2P9        -0.1868
      5 N05A       -4.6200   10.5120   -0.0250 N.pl3     1 2P9        -0.1543
      6 C06        -4.7230   10.1450    1.3390 C.ar      1 2P9         0.1132
      7 C07        -4.2340    8.9080    1.7170 C.ar      1 2P9        -0.0106
      8 C08        -4.3090    8.5000    3.0350 C.ar      1 2P9         0.0508
      9 CL2        -3.6680    6.9200    3.3900 Cl        1 2P9        -0.0717
     10 C10        -4.8880    9.3220    4.0040 C.ar      1 2P9         0.0473
     11 CL         -4.9840    8.8360    5.6760 Cl        1 2P9        -0.0761
     12 C12        -5.3840   10.5580    3.6100 C.ar      1 2P9        -0.0511
     13 C13        -5.3050   10.9700    2.2820 C.ar      1 2P9        -0.0243
     14 C14        -3.5470   11.0180   -0.6350 C.2       1 2P9         0.1055
     15 C15        -2.2200   11.4010   -0.0140 C.ar      1 2P9         0.0062
     16 C16        -2.1940   11.9400    1.2580 C.ar      1 2P9        -0.0572
     17 C17        -1.0000   12.3230    1.8390 C.ar      1 2P9        -0.0539
     18 C18         0.1850   12.1850    1.1480 C.ar      1 2P9         0.0024
     19 C19         1.4620   12.6170    1.8300 C.3       1 2P9         0.0031
     20 N20         2.5110   11.7420    1.4460 N.4       1 2P9         0.2608
     21 C21         2.9180   10.8910    2.5090 C.3       1 2P9         0.0574
     22 C22         3.9450    9.8470    2.0800 C.ar      1 2P9         0.0282
     23 C23         5.0970    9.8830    2.8480 C.ar      1 2P9        -0.0539
     24 C24         6.1590    9.0310    2.6010 C.ar      1 2P9        -0.0591
     25 C25         6.0560    8.1400    1.5530 C.ar      1 2P9         0.0062
     26 C26         7.1430    7.1750    1.2320 C.2       1 2P9         0.1205
     27 C27         8.3290    6.9060    1.9120 C.2       1 2P9        -0.0514
     28 C28         8.9750    5.8790    1.1510 C.2       1 2P9        -0.0473
     29 C29         8.0990    5.6390    0.0970 C.2       1 2P9         0.1473
     30 C30         8.2400    4.6660   -1.0220 C.2       1 2P9         0.0915
     31 O31         9.2410    3.9130   -1.0560 O.co2     1 2P9        -0.5613
     32 O32         7.3040    4.6440   -1.8520 O.co2     1 2P9        -0.5613
     33 O33         7.0520    6.4080    0.1740 O.3       1 2P9        -0.2508
     34 C34         4.9180    8.0890    0.7770 C.ar      1 2P9        -0.0453
     35 C35         3.8520    8.9390    1.0160 C.ar      1 2P9         0.0470
     36 CL3         2.4470    8.8020   -0.0150 Cl        1 2P9        -0.0771
     37 S37         1.5810   10.3430    3.5450 S.3       1 2P9        -0.1116
     38 C38         0.1800   11.6520   -0.1410 C.ar      1 2P9        -0.0539
     39 C39        -1.0310   11.2700   -0.7200 C.ar      1 2P9        -0.0572
     40 C40        -3.9000   11.2000   -2.0030 C.2       1 2P9        -0.0255
     41 O41        -5.7540   11.0990   -4.3570 O.co2     1 2P9        -0.5608
     42 H          -3.7893    8.2547    0.9751 H         1 2P9         0.0595
     43 H          -5.8388   11.2109    4.3462 H         1 2P9         0.0607
     44 H          -5.6994   11.9362    1.9888 H         1 2P9         0.0591
     45 H          -3.1208   12.0639    1.8065 H         1 2P9         0.0608
     46 H          -0.9952   12.7336    2.8422 H         1 2P9         0.0563
     47 H           1.3291   12.5764    2.9212 H         1 2P9         0.0984
     48 H           1.7110   13.6453    1.5289 H         1 2P9         0.0984
     49 H           3.3016   12.2932    1.1509 H         1 2P9         0.2055
     50 H           2.1932   11.1721    0.6777 H         1 2P9         0.2055
     51 H           3.4931   11.5530    3.1731 H         1 2P9         0.1141
     52 H           5.1684   10.5955    3.6618 H         1 2P9         0.0558
     53 H           7.0508    9.0630    3.2165 H         1 2P9         0.0595
     54 H           8.6879    7.3761    2.8264 H         1 2P9         0.0378
     55 H           9.9309    5.3973    1.3511 H         1 2P9         0.0413
     56 H           4.8569    7.3717   -0.0335 H         1 2P9         0.0599
     57 H           1.9437    9.7470    4.2725 H         1 2P9         0.1096
     58 H           1.1085   11.5355   -0.6882 H         1 2P9         0.0563
     59 H          -1.0438   10.8686   -1.7269 H         1 2P9         0.0608
     60 H          -3.2915   11.6081   -2.8087 H         1 2P9         0.0384
@<TRIPOS>BOND
     1    1    2 ar 
     2    2    3 1  
     3    2   41 ar 
     4    3    4 2  
     5    3   40 1  
     6    4    5 1  
     7    5    6 1  
     8    5   14 1  
     9    6    7 ar 
    10    6   13 ar 
    11    7    8 ar 
    12    8    9 1  
    13    8   10 ar 
    14   10   11 1  
    15   10   12 ar 
    16   12   13 ar 
    17   14   15 1  
    18   14   40 2  
    19   15   16 ar 
    20   15   39 ar 
    21   16   17 ar 
    22   17   18 ar 
    23   18   19 1  
    24   18   38 ar 
    25   19   20 1  
    26   20   21 1  
    27   21   22 1  
    28   21   37 1  
    29   22   23 ar 
    30   22   35 ar 
    31   23   24 ar 
    32   24   25 ar 
    33   25   26 1  
    34   25   34 ar 
    35   26   27 2  
    36   26   33 1  
    37   27   28 1  
    38   28   29 2  
    39   29   30 1  
    40   29   33 1  
    41   30   31 ar 
    42   30   32 ar 
    43   34   35 ar 
    44   35   36 1  
    45   38   39 ar 
    46    7   42 1  
    47   12   43 1  
    48   13   44 1  
    49   16   45 1  
    50   17   46 1  
    51   19   47 1  
    52   19   48 1  
    53   20   49 1  
    54   20   50 1  
    55   21   51 1  
    56   23   52 1  
    57   24   53 1  
    58   27   54 1  
    59   28   55 1  
    60   34   56 1  
    61   37   57 1  
    62   38   58 1  
    63   39   59 1  
    64   40   60 1  
@<TRIPOS>SUBSTRUCTURE
     1 2P9         1

