### 
### Created by X-TOOL on Mon Sep 10 21:13:19 2018
### 

@<TRIPOS>MOLECULE
4o0b_ligand
   59    63     1     0     0
SMALL
GAST_HUCK


@<TRIPOS>ATOM
      1 C1          6.6790   -9.8740  -23.3700 C.2       1 2QA        -0.0600
      2 O1         -1.2750  -10.9170  -26.3500 O.2       1 2QA        -0.3957
      3 C2          5.3350   -9.6570  -23.3290 C.2       1 2QA         0.0226
      4 C3          5.6090  -11.7560  -24.0460 C.2       1 2QA         0.0743
      5 C4          6.8660  -11.2280  -23.8170 C.2       1 2QA         0.0182
      6 C5          8.0490  -12.0920  -24.0490 C.2       1 2QA         0.0985
      7 C6          7.8190  -13.5160  -24.5000 C.3       1 2QA         0.0216
      8 C22        -0.8330  -11.3240  -25.2810 C.2       1 2QA         0.1902
      9 N1         -1.5720  -12.1630  -24.5250 N.am      1 2QA        -0.2875
     10 C23        -1.1120  -12.8330  -23.2940 C.3       1 2QA         0.0401
     11 C24         0.3370  -13.2160  -23.5090 C.3       1 2QA         0.0015
     12 C13         1.1460  -12.0390  -24.0020 C.ar      1 2QA        -0.0313
     13 C12         2.4830  -11.9360  -23.6290 C.ar      1 2QA        -0.0276
     14 C14         0.5520  -11.0140  -24.7990 C.ar      1 2QA         0.0454
     15 C15         1.3100   -9.8570  -25.1430 C.ar      1 2QA        -0.0302
     16 C17         0.6770   -8.6590  -25.8390 C.3       1 2QA        -0.0069
     17 C21         1.1070   -8.3970  -27.2980 C.3       1 2QA        -0.0398
     18 C20         0.6430   -6.9670  -27.5890 C.3       1 2QA        -0.0507
     19 C19         0.4050   -6.2930  -26.2500 C.3       1 2QA        -0.0507
     20 C18         0.8900   -7.2630  -25.1960 C.3       1 2QA        -0.0398
     21 C16         2.6580   -9.7960  -24.7640 C.ar      1 2QA        -0.0274
     22 C11         3.2390  -10.8340  -24.0320 C.ar      1 2QA         0.0833
     23 N           4.6520  -10.7890  -23.7330 N.pl3     1 2QA        -0.2358
     24 C8          5.3550  -13.1290  -24.5950 C.3       1 2QA         0.0158
     25 C7          6.5480  -13.7570  -25.3290 C.3       1 2QA        -0.0077
     26 C10         6.3110  -15.2570  -25.4870 C.3       1 2QA        -0.0557
     27 C9          6.7000  -13.1340  -26.7210 C.3       1 2QA        -0.0557
     28 O           9.1940  -11.6800  -23.9090 O.2       1 2QA        -0.4025
     29 C           7.7270   -8.8460  -23.0310 C.3       1 2QA        -0.0504
     30 H           4.8650   -8.7240  -23.0215 H         1 2QA         0.0628
     31 H           7.7618  -14.1494  -23.6025 H         1 2QA         0.0483
     32 H           8.6825  -13.8208  -25.1095 H         1 2QA         0.0483
     33 H          -2.5086  -12.3455  -24.8241 H         1 2QA         0.1839
     34 H          -1.7160  -13.7329  -23.1062 H         1 2QA         0.0543
     35 H          -1.1979  -12.1483  -22.4374 H         1 2QA         0.0543
     36 H           0.3879  -14.0236  -24.2541 H         1 2QA         0.0457
     37 H           0.7601  -13.5684  -22.5567 H         1 2QA         0.0457
     38 H           2.9378  -12.7126  -23.0247 H         1 2QA         0.0476
     39 H          -0.4029   -8.8684  -25.8367 H         1 2QA         0.0472
     40 H           0.6196   -9.1093  -27.9800 H         1 2QA         0.0291
     41 H           2.1991   -8.4790  -27.4013 H         1 2QA         0.0291
     42 H          -0.2888   -6.9843  -28.1734 H         1 2QA         0.0267
     43 H           1.4184   -6.4259  -28.1511 H         1 2QA         0.0267
     44 H          -0.6665   -6.0856  -26.1128 H         1 2QA         0.0267
     45 H           0.9712   -5.3518  -26.1911 H         1 2QA         0.0267
     46 H           1.9535   -7.0951  -24.9707 H         1 2QA         0.0291
     47 H           0.2996   -7.1640  -24.2732 H         1 2QA         0.0291
     48 H           3.2553   -8.9351  -25.0416 H         1 2QA         0.0476
     49 H           4.5134  -13.0657  -25.3005 H         1 2QA         0.0473
     50 H           5.0826  -13.7880  -23.7574 H         1 2QA         0.0473
     51 H           7.1646  -15.7097  -26.0128 H         1 2QA         0.0238
     52 H           5.3921  -15.4238  -26.0681 H         1 2QA         0.0238
     53 H           6.2057  -15.7182  -24.4939 H         1 2QA         0.0238
     54 H           6.8715  -12.0520  -26.6217 H         1 2QA         0.0238
     55 H           5.7828  -13.3079  -27.3027 H         1 2QA         0.0238
     56 H           7.5548  -13.5948  -27.2376 H         1 2QA         0.0238
     57 H           7.2369   -7.9109  -22.7222 H         1 2QA         0.0324
     58 H           8.3543   -8.6567  -23.9145 H         1 2QA         0.0324
     59 H           8.3548   -9.2198  -22.2088 H         1 2QA         0.0324
@<TRIPOS>BOND
     1    3    1 2  
     2    5    1 1  
     3    1   29 1  
     4    8    2 2  
     5   23    3 1  
     6    4    5 2  
     7   23    4 1  
     8    4   24 1  
     9    5    6 1  
    10    6    7 1  
    11    6   28 2  
    12    7   25 1  
    13    8    9 am 
    14   14    8 1  
    15   10    9 1  
    16   11   10 1  
    17   12   11 1  
    18   13   12 ar 
    19   12   14 ar 
    20   22   13 ar 
    21   15   14 ar 
    22   15   16 1  
    23   21   15 ar 
    24   16   17 1  
    25   16   20 1  
    26   17   18 1  
    27   19   18 1  
    28   20   19 1  
    29   22   21 ar 
    30   22   23 1  
    31   24   25 1  
    32   25   26 1  
    33   25   27 1  
    34    3   30 1  
    35    7   31 1  
    36    7   32 1  
    37    9   33 1  
    38   10   34 1  
    39   10   35 1  
    40   11   36 1  
    41   11   37 1  
    42   13   38 1  
    43   16   39 1  
    44   17   40 1  
    45   17   41 1  
    46   18   42 1  
    47   18   43 1  
    48   19   44 1  
    49   19   45 1  
    50   20   46 1  
    51   20   47 1  
    52   21   48 1  
    53   24   49 1  
    54   24   50 1  
    55   26   51 1  
    56   26   52 1  
    57   26   53 1  
    58   27   54 1  
    59   27   55 1  
    60   27   56 1  
    61   29   57 1  
    62   29   58 1  
    63   29   59 1  
@<TRIPOS>SUBSTRUCTURE
     1 2QA         1

