### 
### Created by X-TOOL on Mon Sep 10 21:13:18 2018
### 

@<TRIPOS>MOLECULE
4o0j_ligand
   61    63     1     0     0
SMALL
GAST_HUCK


@<TRIPOS>ATOM
      1 N1         48.2310  -15.4000   28.0770 N.ar      1 LF8        -0.3107
      2 C2         47.3890  -16.4580   28.1640 C.ar      1 LF8         0.0335
      3 C3         46.0040  -16.2920   28.4130 C.ar      1 LF8        -0.0161
      4 C4         45.5480  -14.9720   28.5380 C.ar      1 LF8         0.0037
      5 C5         46.4480  -13.8870   28.4120 C.ar      1 LF8         0.0293
      6 C6         47.8240  -14.1320   28.1660 C.ar      1 LF8         0.0222
      7 C7         44.1230  -14.7390   28.7480 C.ar      1 LF8        -0.0180
      8 C8         43.7010  -14.4000   30.0360 C.ar      1 LF8        -0.0545
      9 C9         42.3620  -14.1600   30.2710 C.ar      1 LF8        -0.0479
     10 C10        41.4860  -14.2760   29.1910 C.ar      1 LF8         0.0400
     11 C11        41.8820  -14.5640   27.8960 C.ar      1 LF8        -0.0479
     12 C12        43.2420  -14.8440   27.6680 C.ar      1 LF8        -0.0545
     13 CL         39.7920  -13.9330   29.5820 Cl        1 LF8        -0.0708
     14 C14        45.0380  -17.4760   28.5180 C.3       1 LF8        -0.0275
     15 C15        48.9770  -13.1310   28.0780 C.3       1 LF8        -0.0213
     16 C16        48.0620  -17.7990   28.0120 C.ar      1 LF8        -0.0240
     17 C17        48.1770  -18.4730   26.8020 C.ar      1 LF8        -0.0672
     18 C18        48.8370  -19.7290   26.7750 C.ar      1 LF8        -0.0659
     19 C19        49.3990  -20.2720   27.9450 C.ar      1 LF8        -0.0435
     20 C20        49.3080  -19.5650   29.1500 C.ar      1 LF8        -0.0435
     21 C21        48.6400  -18.3330   29.1490 C.ar      1 LF8        -0.0594
     22 C22        50.1060  -21.6160   27.9080 C.3       1 LF8        -0.0332
     23 C23        49.8930  -20.0890   30.4570 C.3       1 LF8        -0.0335
     24 C24        45.9110  -12.5080   28.6170 C.3       1 LF8         0.1479
     25 C25        46.4080  -12.0920   29.9890 C.2       1 LF8         0.0763
     26 O26        46.4160  -11.5840   27.6770 O.3       1 LF8        -0.3444
     27 C27        45.8060  -11.4180   26.3880 C.3       1 LF8         0.0663
     28 C28        46.0160  -12.6140   25.5070 C.3       1 LF8        -0.0360
     29 C29        46.5280  -10.2230   25.7180 C.3       1 LF8        -0.0360
     30 C30        44.3240  -11.1740   26.6170 C.3       1 LF8        -0.0360
     31 O33        46.6550  -10.8980   30.1860 O.co2     1 LF8        -0.5639
     32 O34        46.5860  -12.9290   30.9030 O.co2     1 LF8        -0.5639
     33 H          44.4193  -14.3260   30.8444 H         1 LF8         0.0618
     34 H          42.0042  -13.8913   31.2583 H         1 LF8         0.0622
     35 H          41.1659  -14.5735   27.0822 H         1 LF8         0.0622
     36 H          43.5957  -15.1324   26.6847 H         1 LF8         0.0618
     37 H          45.5952  -18.4161   28.3923 H         1 LF8         0.0402
     38 H          44.2726  -17.3956   27.7321 H         1 LF8         0.0402
     39 H          44.5525  -17.4668   29.5050 H         1 LF8         0.0402
     40 H          48.5810  -12.1078   28.1571 H         1 LF8         0.0393
     41 H          49.4938  -13.2507   27.1144 H         1 LF8         0.0393
     42 H          49.6854  -13.3145   28.8993 H         1 LF8         0.0393
     43 H          47.7689  -18.0459   25.8931 H         1 LF8         0.0549
     44 H          48.9090  -20.2764   25.8421 H         1 LF8         0.0541
     45 H          48.5738  -17.7763   30.0768 H         1 LF8         0.0539
     46 H          50.0772  -22.0174   26.8842 H         1 LF8         0.0379
     47 H          49.6004  -22.3152   28.5903 H         1 LF8         0.0379
     48 H          51.1523  -21.4887   28.2226 H         1 LF8         0.0379
     49 H          50.3781  -21.0599   30.2783 H         1 LF8         0.0376
     50 H          49.0876  -20.2121   31.1960 H         1 LF8         0.0376
     51 H          50.6354  -19.3731   30.8395 H         1 LF8         0.0376
     52 H          44.8118  -12.5167   28.5761 H         1 LF8         0.0932
     53 H          45.5330  -12.4418   24.5338 H         1 LF8         0.0257
     54 H          45.5750  -13.5021   25.9831 H         1 LF8         0.0257
     55 H          47.0939  -12.7749   25.3580 H         1 LF8         0.0257
     56 H          46.0992  -10.0482   24.7202 H         1 LF8         0.0257
     57 H          47.6001  -10.4495   25.6218 H         1 LF8         0.0257
     58 H          46.3975   -9.3224   26.3360 H         1 LF8         0.0257
     59 H          43.8203  -11.0414   25.6482 H         1 LF8         0.0257
     60 H          44.1914  -10.2677   27.2262 H         1 LF8         0.0257
     61 H          43.8873  -12.0361   27.1424 H         1 LF8         0.0257
@<TRIPOS>BOND
     1    1    2 ar 
     2    1    6 ar 
     3    2    3 ar 
     4    2   16 1  
     5    3    4 ar 
     6    3   14 1  
     7    4    5 ar 
     8    4    7 1  
     9    5    6 ar 
    10    5   24 1  
    11    6   15 1  
    12    7    8 ar 
    13    7   12 ar 
    14    8    9 ar 
    15    9   10 ar 
    16   10   11 ar 
    17   10   13 1  
    18   11   12 ar 
    19   16   17 ar 
    20   16   21 ar 
    21   17   18 ar 
    22   18   19 ar 
    23   19   20 ar 
    24   19   22 1  
    25   20   21 ar 
    26   20   23 1  
    27   24   25 1  
    28   24   26 1  
    29   25   31 ar 
    30   25   32 ar 
    31   26   27 1  
    32   27   28 1  
    33   27   29 1  
    34   27   30 1  
    35    8   33 1  
    36    9   34 1  
    37   11   35 1  
    38   12   36 1  
    39   14   37 1  
    40   14   38 1  
    41   14   39 1  
    42   15   40 1  
    43   15   41 1  
    44   15   42 1  
    45   17   43 1  
    46   18   44 1  
    47   21   45 1  
    48   22   46 1  
    49   22   47 1  
    50   22   48 1  
    51   23   49 1  
    52   23   50 1  
    53   23   51 1  
    54   24   52 1  
    55   28   53 1  
    56   28   54 1  
    57   28   55 1  
    58   29   56 1  
    59   29   57 1  
    60   29   58 1  
    61   30   59 1  
    62   30   60 1  
    63   30   61 1  
@<TRIPOS>SUBSTRUCTURE
     1 LF8         1

