### 
### Created by X-TOOL on Mon Sep 10 21:13:19 2018
### 

@<TRIPOS>MOLECULE
4o0r_ligand
   66    70     1     0     0
SMALL
GAST_HUCK


@<TRIPOS>ATOM
      1 C1         16.0590  -16.9600   15.0720 C.2       1 X4Z         0.0302
      2 C2         17.1970  -17.7030   14.7500 C.2       1 X4Z         0.0329
      3 C3         15.4500  -17.5680   16.1430 C.2       1 X4Z         0.2017
      4 C4         15.9890  -15.7950   14.1150 C.3       1 X4Z         0.0483
      5 C5         17.8950  -17.0720   13.5690 C.3       1 X4Z         0.0487
      6 N6         17.2760  -18.7130   15.5800 N.2       1 X4Z        -0.1830
      7 N7         14.2870  -17.2140   16.8380 N.pl3     1 X4Z        -0.2303
      8 N8         16.1970  -18.6510   16.4570 N.pl3     1 X4Z        -0.1713
      9 N9         17.1250  -15.8780   13.1920 N.am      1 X4Z        -0.2768
     10 C10        17.9290  -18.0940   12.4210 C.3       1 X4Z        -0.0620
     11 C11        19.3180  -16.6870   13.9810 C.3       1 X4Z        -0.0620
     12 C12        13.1380  -16.6880   16.2570 C.ar      1 X4Z         0.1549
     13 C13        17.3710  -15.0010   12.1930 C.2       1 X4Z         0.2562
     14 C14        11.9980  -16.4510   17.0500 C.ar      1 X4Z         0.1026
     15 N15        13.0760  -16.4000   14.9630 N.ar      1 X4Z        -0.2643
     16 N16        16.5330  -13.9620   12.0180 N.am      1 X4Z        -0.2540
     17 O17        18.3260  -15.1250   11.4520 O.2       1 X4Z        -0.4010
     18 C18        10.8510  -15.9180   16.4520 C.ar      1 X4Z         0.0331
     19 S19        11.7000  -16.7080   18.7650 S.3       1 X4Z        -0.0250
     20 C20        11.9840  -15.8930   14.4250 C.ar      1 X4Z         0.0651
     21 C21        16.7520  -13.0030   10.9380 C.3       1 X4Z         0.1155
     22 N22        10.8980  -15.6550   15.1240 N.ar      1 X4Z        -0.3047
     23 C23         9.7960  -15.7330   17.3680 C.2       1 X4Z        -0.0425
     24 C24        10.0590  -16.0860   18.6170 C.2       1 X4Z         0.0070
     25 C25        11.9990  -15.5870   12.9470 C.3       1 X4Z        -0.0048
     26 C26        15.6880  -13.2890    9.9160 C.ar      1 X4Z        -0.0132
     27 C27        16.5430  -11.5580   11.4010 C.3       1 X4Z         0.0007
     28 C28        14.3680  -13.3550   10.3300 C.ar      1 X4Z        -0.0580
     29 C29        16.0120  -13.4780    8.5880 C.ar      1 X4Z        -0.0580
     30 N30        17.5070  -11.1050   12.4140 N.4       1 X4Z         0.2340
     31 C31        13.3650  -13.6120    9.4150 C.ar      1 X4Z        -0.0685
     32 C32        15.0090  -13.7340    7.6720 C.ar      1 X4Z        -0.0685
     33 C33        13.6890  -13.8020    8.0850 C.ar      1 X4Z        -0.0687
     34 C34        18.8490  -11.6440   12.1730 C.3       1 X4Z        -0.0431
     35 C35        17.5870   -9.6410   12.3570 C.3       1 X4Z        -0.0431
     36 H          16.0366  -14.8506   14.6769 H         1 X4Z         0.0600
     37 H          15.0473  -15.8373   13.5481 H         1 X4Z         0.0600
     38 H          14.2821  -17.3540   17.8584 H         1 X4Z         0.2191
     39 H          16.0004  -19.3176   17.2172 H         1 X4Z         0.2730
     40 H          18.5106  -18.9746   12.7312 H         1 X4Z         0.0162
     41 H          18.3985  -17.6373   11.5373 H         1 X4Z         0.0162
     42 H          16.9023  -18.4014   12.1732 H         1 X4Z         0.0162
     43 H          19.8769  -17.5927   14.2589 H         1 X4Z         0.0162
     44 H          19.2782  -16.0024   14.8410 H         1 X4Z         0.0162
     45 H          19.8215  -16.1893   13.1391 H         1 X4Z         0.0162
     46 H          15.7532  -13.8456   12.6331 H         1 X4Z         0.1877
     47 H          17.7602  -13.1247   10.5153 H         1 X4Z         0.0771
     48 H           8.8305  -15.3275   17.0691 H         1 X4Z         0.0451
     49 H           9.3541  -16.0027   19.4429 H         1 X4Z         0.0894
     50 H          12.9823  -15.8477   12.5286 H         1 X4Z         0.0449
     51 H          11.8074  -14.5149   12.7925 H         1 X4Z         0.0449
     52 H          11.2183  -16.1754   12.4428 H         1 X4Z         0.0449
     53 H          15.5316  -11.4745   11.8255 H         1 X4Z         0.0861
     54 H          16.6284  -10.8990   10.5244 H         1 X4Z         0.0861
     55 H          14.1210  -13.2046   11.3747 H         1 X4Z         0.0557
     56 H          17.0456  -13.4261    8.2655 H         1 X4Z         0.0557
     57 H          17.1908  -11.3967   13.3256 H         1 X4Z         0.2030
     58 H          12.3316  -13.6642    9.7380 H         1 X4Z         0.0599
     59 H          15.2565  -13.8820    6.6271 H         1 X4Z         0.0599
     60 H          12.9069  -14.0050    7.3624 H         1 X4Z         0.0559
     61 H          19.5354  -11.2806   12.9520 H         1 X4Z         0.0777
     62 H          19.2055  -11.3127   11.1865 H         1 X4Z         0.0777
     63 H          18.8130  -12.7431   12.1998 H         1 X4Z         0.0777
     64 H          16.5899   -9.2121   12.5353 H         1 X4Z         0.0777
     65 H          17.9470   -9.3318   11.3647 H         1 X4Z         0.0777
     66 H          18.2840   -9.2815   13.1284 H         1 X4Z         0.0777
@<TRIPOS>BOND
     1    1    2 1  
     2    1    3 2  
     3    1    4 1  
     4    2    5 1  
     5    2    6 2  
     6    3    7 1  
     7    3    8 1  
     8    4    9 1  
     9    5    9 1  
    10    5   10 1  
    11    5   11 1  
    12    6    8 1  
    13    7   12 1  
    14    9   13 am 
    15   12   14 ar 
    16   12   15 ar 
    17   13   16 am 
    18   13   17 2  
    19   14   18 ar 
    20   14   19 1  
    21   15   20 ar 
    22   16   21 1  
    23   18   22 ar 
    24   18   23 1  
    25   19   24 1  
    26   20   22 ar 
    27   20   25 1  
    28   21   26 1  
    29   21   27 1  
    30   23   24 2  
    31   26   28 ar 
    32   26   29 ar 
    33   27   30 1  
    34   28   31 ar 
    35   29   32 ar 
    36   30   34 1  
    37   30   35 1  
    38   31   33 ar 
    39   32   33 ar 
    40    4   36 1  
    41    4   37 1  
    42    7   38 1  
    43    8   39 1  
    44   10   40 1  
    45   10   41 1  
    46   10   42 1  
    47   11   43 1  
    48   11   44 1  
    49   11   45 1  
    50   16   46 1  
    51   21   47 1  
    52   23   48 1  
    53   24   49 1  
    54   25   50 1  
    55   25   51 1  
    56   25   52 1  
    57   27   53 1  
    58   27   54 1  
    59   28   55 1  
    60   29   56 1  
    61   30   57 1  
    62   31   58 1  
    63   32   59 1  
    64   33   60 1  
    65   34   61 1  
    66   34   62 1  
    67   34   63 1  
    68   35   64 1  
    69   35   65 1  
    70   35   66 1  
@<TRIPOS>SUBSTRUCTURE
     1 X4Z         1

