### 
### Created by X-TOOL on Mon Sep 10 21:13:19 2018
### 

@<TRIPOS>MOLECULE
4o0t_ligand
   56    59     1     0     0
SMALL
GAST_HUCK


@<TRIPOS>ATOM
      1 C1         13.3550  -11.8340   15.5130 C.3       1 2OL         0.0365
      2 O2         13.0080  -12.5910   14.3520 O.3       1 2OL        -0.3809
      3 C3         12.4070  -13.8600   14.6260 C.3       1 2OL         0.0680
      4 C4         12.6240  -14.7750   13.4160 C.3       1 2OL         0.0575
      5 N5         13.8130  -15.6120   13.6150 N.pl3     1 2OL        -0.2687
      6 C6         15.0160  -15.3510   12.9920 C.2       1 2OL         0.2390
      7 N7         15.2040  -14.5450   11.9740 N.2       1 2OL        -0.3057
      8 C8         16.5200  -14.5330   11.6240 C.ar      1 2OL         0.0186
      9 C9         17.2460  -13.8590   10.6260 C.ar      1 2OL        -0.0657
     10 C10        18.5950  -14.0400   10.5080 C.ar      1 2OL        -0.0637
     11 C11        19.2580  -14.9140   11.3730 C.ar      1 2OL         0.0099
     12 C12        18.5530  -15.5840   12.3690 C.ar      1 2OL        -0.0242
     13 C13        17.1850  -15.4090   12.5080 C.ar      1 2OL         0.1018
     14 N14        16.2070  -15.9210   13.3680 N.pl3     1 2OL        -0.1502
     15 C15        16.3470  -16.8260   14.4330 C.ar      1 2OL         0.1702
     16 C16        17.4150  -17.7200   14.5620 C.ar      1 2OL         0.0073
     17 C17        17.4620  -18.5740   15.6530 C.ar      1 2OL         0.0050
     18 N18        16.4910  -18.5310   16.5520 N.ar      1 2OL        -0.2678
     19 C19        15.4890  -17.6760   16.4110 C.ar      1 2OL         0.1774
     20 N20        15.4190  -16.8450   15.3790 N.ar      1 2OL        -0.2279
     21 N21        14.4870  -17.6480   17.3640 N.pl3     1 2OL        -0.3052
     22 C22        20.6730  -15.1140   11.2830 C.1       1 2OL        -0.0735
     23 C23        21.8170  -15.3510   11.2550 C.1       1 2OL        -0.0676
     24 C24        23.2640  -15.6240   11.2190 C.3       1 2OL         0.1250
     25 C25        23.7650  -15.8060   12.6490 C.3       1 2OL        -0.0130
     26 C26        25.2260  -16.2550   12.6600 C.3       1 2OL        -0.0496
     27 C27        25.3740  -17.5670   11.8950 C.3       1 2OL        -0.0528
     28 C28        24.9250  -17.3600   10.4500 C.3       1 2OL        -0.0496
     29 C29        23.4640  -16.9170   10.4210 C.3       1 2OL        -0.0130
     30 O30        23.9660  -14.5540   10.5890 O.3       1 2OL        -0.3769
     31 H          13.8079  -10.8796   15.2065 H         1 2OL         0.0523
     32 H          14.0744  -12.4029   16.1202 H         1 2OL         0.0523
     33 H          12.4499  -11.6366   16.1061 H         1 2OL         0.0523
     34 H          11.3293  -13.7292   14.8031 H         1 2OL         0.0580
     35 H          12.8734  -14.3064   15.5166 H         1 2OL         0.0580
     36 H          12.7612  -14.1586   12.5153 H         1 2OL         0.0550
     37 H          11.7432  -15.4212   13.2875 H         1 2OL         0.0550
     38 H          13.7468  -16.4252   14.2437 H         1 2OL         0.1907
     39 H          16.7314  -13.1907    9.9451 H         1 2OL         0.0525
     40 H          19.1498  -13.5065    9.7447 H         1 2OL         0.0532
     41 H          19.0796  -16.2498   13.0432 H         1 2OL         0.0561
     42 H          18.1998  -17.7449   13.8147 H         1 2OL         0.0613
     43 H          18.2852  -19.2697   15.7688 H         1 2OL         0.0860
     44 H          14.5261  -18.2864   18.1713 H         1 2OL         0.1825
     45 H          13.7017  -16.9887   17.2664 H         1 2OL         0.1825
     46 H          23.1503  -16.5668   13.1523 H         1 2OL         0.0302
     47 H          23.6777  -14.8500   13.1860 H         1 2OL         0.0302
     48 H          25.5547  -16.4004   13.6996 H         1 2OL         0.0266
     49 H          25.8480  -15.4831   12.1833 H         1 2OL         0.0266
     50 H          24.7499  -18.3403   12.3668 H         1 2OL         0.0265
     51 H          26.4268  -17.8853   11.9109 H         1 2OL         0.0265
     52 H          25.0314  -18.3041    9.8957 H         1 2OL         0.0266
     53 H          25.5505  -16.5866    9.9804 H         1 2OL         0.0266
     54 H          23.1611  -16.7457    9.3775 H         1 2OL         0.0302
     55 H          22.8395  -17.7097   10.8587 H         1 2OL         0.0302
     56 H          23.6479  -14.4480    9.7002 H         1 2OL         0.2113
@<TRIPOS>BOND
     1    1    2 1  
     2    2    3 1  
     3    3    4 1  
     4    4    5 1  
     5    5    6 1  
     6    6    7 2  
     7    6   14 1  
     8    7    8 1  
     9    8    9 ar 
    10    8   13 ar 
    11    9   10 ar 
    12   10   11 ar 
    13   11   12 ar 
    14   11   22 1  
    15   12   13 ar 
    16   13   14 1  
    17   14   15 1  
    18   15   16 ar 
    19   15   20 ar 
    20   16   17 ar 
    21   17   18 ar 
    22   18   19 ar 
    23   19   20 ar 
    24   19   21 1  
    25   22   23 3  
    26   23   24 1  
    27   24   25 1  
    28   24   29 1  
    29   24   30 1  
    30   25   26 1  
    31   26   27 1  
    32   27   28 1  
    33   28   29 1  
    34    1   31 1  
    35    1   32 1  
    36    1   33 1  
    37    3   34 1  
    38    3   35 1  
    39    4   36 1  
    40    4   37 1  
    41    5   38 1  
    42    9   39 1  
    43   10   40 1  
    44   12   41 1  
    45   16   42 1  
    46   17   43 1  
    47   21   44 1  
    48   21   45 1  
    49   25   46 1  
    50   25   47 1  
    51   26   48 1  
    52   26   49 1  
    53   27   50 1  
    54   27   51 1  
    55   28   52 1  
    56   28   53 1  
    57   29   54 1  
    58   29   55 1  
    59   30   56 1  
@<TRIPOS>SUBSTRUCTURE
     1 2OL         1

