### 
### Created by X-TOOL on Mon Sep 10 21:13:19 2018
### 

@<TRIPOS>MOLECULE
4o0v_ligand
   56    59     1     0     0
SMALL
GAST_HUCK


@<TRIPOS>ATOM
      1 C1        -40.9260   11.3530  -11.2700 C.3       1 2OL         0.0365
      2 O2        -40.4830   12.5880  -11.8320 O.3       1 2OL        -0.3809
      3 C3        -39.4690   13.2490  -11.0700 C.3       1 2OL         0.0680
      4 C4        -38.7850   14.2990  -11.9510 C.3       1 2OL         0.0575
      5 N5        -38.3650   13.6690  -13.2060 N.pl3     1 2OL        -0.2687
      6 C6        -37.0250   13.4410  -13.4320 C.2       1 2OL         0.2390
      7 N7        -36.0520   14.1340  -12.8920 N.2       1 2OL        -0.3057
      8 C8        -34.8540   13.6590  -13.3200 C.ar      1 2OL         0.0186
      9 C9        -33.5330   14.0330  -13.0550 C.ar      1 2OL        -0.0657
     10 C10       -32.5020   13.3580  -13.6430 C.ar      1 2OL        -0.0637
     11 C11       -32.7580   12.2920  -14.5110 C.ar      1 2OL         0.0099
     12 C12       -34.0640   11.9070  -14.7800 C.ar      1 2OL        -0.0242
     13 C13       -35.1220   12.5840  -14.1930 C.ar      1 2OL         0.1018
     14 N14       -36.5110   12.4640  -14.2500 N.pl3     1 2OL        -0.1502
     15 C15       -37.2590   11.5320  -14.9880 C.ar      1 2OL         0.1702
     16 C16       -36.7620   10.9610  -16.1660 C.ar      1 2OL         0.0073
     17 C17       -37.5420   10.0450  -16.8480 C.ar      1 2OL         0.0050
     18 N18       -38.7400    9.7340  -16.3730 N.ar      1 2OL        -0.2678
     19 C19       -39.1910   10.2860  -15.2570 C.ar      1 2OL         0.1774
     20 N20       -38.4710   11.1670  -14.5710 N.ar      1 2OL        -0.2279
     21 N21       -40.4460    9.9260  -14.7980 N.pl3     1 2OL        -0.3052
     22 C22       -31.6680   11.5920  -15.1290 C.1       1 2OL        -0.0735
     23 C23       -30.7940   10.9980  -15.6350 C.1       1 2OL        -0.0676
     24 C24       -29.6950   10.2520  -16.2780 C.3       1 2OL         0.1250
     25 C25       -30.0230    8.7580  -16.2790 C.3       1 2OL        -0.0130
     26 C26       -28.9700    7.9690  -17.0810 C.3       1 2OL        -0.0496
     27 C27       -28.8880    8.5060  -18.5100 C.3       1 2OL        -0.0528
     28 C28       -28.4800    9.9760  -18.4690 C.3       1 2OL        -0.0496
     29 C29       -29.5530   10.7680  -17.7250 C.3       1 2OL        -0.0130
     30 O30       -28.4790   10.4990  -15.5810 O.3       1 2OL        -0.3769
     31 H         -41.7012   10.9138  -11.9151 H         1 2OL         0.0523
     32 H         -41.3423   11.5344  -10.2681 H         1 2OL         0.0523
     33 H         -40.0760   10.6590  -11.1938 H         1 2OL         0.0523
     34 H         -38.7257   12.5132  -10.7293 H         1 2OL         0.0580
     35 H         -39.9250   13.7404  -10.1979 H         1 2OL         0.0580
     36 H         -37.9051   14.7023  -11.4284 H         1 2OL         0.0550
     37 H         -39.4899   15.1156  -12.1662 H         1 2OL         0.0550
     38 H         -39.0647   13.3993  -13.9121 H         1 2OL         0.1907
     39 H         -33.3275   14.8584  -12.3831 H         1 2OL         0.0525
     40 H         -31.4789   13.6502  -13.4357 H         1 2OL         0.0532
     41 H         -34.2570   11.0765  -15.4494 H         1 2OL         0.0561
     42 H         -35.7807   11.2328  -16.5378 H         1 2OL         0.0613
     43 H         -37.1780    9.5866  -17.7604 H         1 2OL         0.0860
     44 H         -41.0106    9.2437  -15.3240 H         1 2OL         0.1825
     45 H         -40.8155   10.3404  -13.9304 H         1 2OL         0.1825
     46 H         -31.0124    8.6059  -16.7350 H         1 2OL         0.0302
     47 H         -30.0367    8.3907  -15.2422 H         1 2OL         0.0302
     48 H         -29.2535    6.9065  -17.1073 H         1 2OL         0.0266
     49 H         -27.9885    8.0747  -16.5957 H         1 2OL         0.0266
     50 H         -29.8699    8.4098  -18.9965 H         1 2OL         0.0265
     51 H         -28.1402    7.9320  -19.0768 H         1 2OL         0.0265
     52 H         -28.3823   10.3606  -19.4949 H         1 2OL         0.0266
     53 H         -27.5175   10.0774  -17.9462 H         1 2OL         0.0266
     54 H         -29.2704   11.8309  -17.7048 H         1 2OL         0.0302
     55 H         -30.5147   10.6541  -18.2466 H         1 2OL         0.0302
     56 H         -28.2929   11.4306  -15.5914 H         1 2OL         0.2113
@<TRIPOS>BOND
     1    1    2 1  
     2    2    3 1  
     3    3    4 1  
     4    4    5 1  
     5    5    6 1  
     6    6    7 2  
     7    6   14 1  
     8    7    8 1  
     9    8    9 ar 
    10    8   13 ar 
    11    9   10 ar 
    12   10   11 ar 
    13   11   12 ar 
    14   11   22 1  
    15   12   13 ar 
    16   13   14 1  
    17   14   15 1  
    18   15   16 ar 
    19   15   20 ar 
    20   16   17 ar 
    21   17   18 ar 
    22   18   19 ar 
    23   19   20 ar 
    24   19   21 1  
    25   22   23 3  
    26   23   24 1  
    27   24   25 1  
    28   24   29 1  
    29   24   30 1  
    30   25   26 1  
    31   26   27 1  
    32   27   28 1  
    33   28   29 1  
    34    1   31 1  
    35    1   32 1  
    36    1   33 1  
    37    3   34 1  
    38    3   35 1  
    39    4   36 1  
    40    4   37 1  
    41    5   38 1  
    42    9   39 1  
    43   10   40 1  
    44   12   41 1  
    45   16   42 1  
    46   17   43 1  
    47   21   44 1  
    48   21   45 1  
    49   25   46 1  
    50   25   47 1  
    51   26   48 1  
    52   26   49 1  
    53   27   50 1  
    54   27   51 1  
    55   28   52 1  
    56   28   53 1  
    57   29   54 1  
    58   29   55 1  
    59   30   56 1  
@<TRIPOS>SUBSTRUCTURE
     1 2OL         1

