### 
### Created by X-TOOL on Mon Sep 10 21:13:18 2018
### 

@<TRIPOS>MOLECULE
4o0y_ligand
   44    46     1     0     0
SMALL
GAST_HUCK


@<TRIPOS>ATOM
      1 C1         12.7220  -36.4820   11.6480 C.3       1 2OO        -0.0442
      2 C2         13.6370  -36.3050   12.8630 C.3       1 2OO         0.0315
      3 N3         12.9440  -35.5820   13.9450 N.pl3     1 2OO        -0.2706
      4 C4         13.0070  -34.2030   14.0560 C.2       1 2OO         0.2428
      5 N5         13.8230  -33.4120   13.4010 N.2       1 2OO        -0.3045
      6 C6         13.5960  -32.1140   13.7650 C.ar      1 2OO         0.0197
      7 C7         14.1660  -30.8880   13.3810 C.ar      1 2OO        -0.0654
      8 C8         13.7350  -29.7050   13.9380 C.ar      1 2OO        -0.0634
      9 C9         12.6980  -29.7090   14.8820 C.ar      1 2OO         0.0102
     10 C10        12.1210  -30.9200   15.2700 C.ar      1 2OO        -0.0235
     11 C11        12.5620  -32.1180   14.7240 C.ar      1 2OO         0.1059
     12 N12        12.2060  -33.4540   14.8880 N.pl3     1 2OO        -0.1314
     13 C13        11.2380  -33.9540   15.7540 C.ar      1 2OO         0.2471
     14 N14        10.8910  -35.2480   15.7300 N.ar      1 2OO        -0.2286
     15 C15         9.9740  -35.7140   16.5790 C.ar      1 2OO         0.0777
     16 N16         9.4060  -34.8900   17.4610 N.ar      1 2OO        -0.2372
     17 C17         9.7680  -33.5960   17.4880 C.ar      1 2OO         0.1919
     18 N18        10.6810  -33.1350   16.6460 N.ar      1 2OO        -0.2013
     19 N19         9.2070  -32.7110   18.3740 N.pl3     1 2OO        -0.2989
     20 C20        12.2320  -28.4850   15.4740 C.1       1 2OO        -0.0734
     21 C21        11.8330  -27.4890   15.9540 C.1       1 2OO        -0.0682
     22 C22        11.2710  -26.2790   16.5880 C.3       1 2OO         0.1195
     23 C23         9.7610  -26.5060   16.7360 C.3       1 2OO        -0.0253
     24 C24        11.9230  -26.0740   17.9520 C.3       1 2OO        -0.0253
     25 O25        11.4270  -25.1060   15.7760 O.3       1 2OO        -0.3774
     26 H          13.2627  -37.0231   10.8575 H         1 2OO         0.0250
     27 H          12.4157  -35.4944   11.2726 H         1 2OO         0.0250
     28 H          11.8303  -37.0557   11.9409 H         1 2OO         0.0250
     29 H          14.5281  -35.7344   12.5623 H         1 2OO         0.0525
     30 H          13.9427  -37.2957   13.2306 H         1 2OO         0.0525
     31 H          12.3988  -36.1165   14.6364 H         1 2OO         0.1908
     32 H          14.9545  -30.8737   12.6373 H         1 2OO         0.0526
     33 H          14.1979  -28.7692   13.6464 H         1 2OO         0.0534
     34 H          11.3226  -30.9248   16.0032 H         1 2OO         0.0562
     35 H           9.6909  -36.7600   16.5524 H         1 2OO         0.1155
     36 H           8.4939  -33.0344   19.0432 H         1 2OO         0.1864
     37 H           9.4990  -31.7233   18.3699 H         1 2OO         0.1864
     38 H           9.3020  -25.6239   17.2063 H         1 2OO         0.0266
     39 H           9.5831  -27.3910   17.3646 H         1 2OO         0.0266
     40 H           9.3152  -26.6658   15.7432 H         1 2OO         0.0266
     41 H          13.0034  -25.9134   17.8215 H         1 2OO         0.0266
     42 H          11.7574  -26.9651   18.5752 H         1 2OO         0.0266
     43 H          11.4784  -25.1956   18.4427 H         1 2OO         0.0266
     44 H          12.3521  -24.9256   15.6567 H         1 2OO         0.2113
@<TRIPOS>BOND
     1    1    2 1  
     2    2    3 1  
     3    3    4 1  
     4    4    5 2  
     5    4   12 1  
     6    5    6 1  
     7    6    7 ar 
     8    6   11 ar 
     9    7    8 ar 
    10    8    9 ar 
    11    9   10 ar 
    12    9   20 1  
    13   10   11 ar 
    14   11   12 1  
    15   12   13 1  
    16   13   14 ar 
    17   13   18 ar 
    18   14   15 ar 
    19   15   16 ar 
    20   16   17 ar 
    21   17   18 ar 
    22   17   19 1  
    23   20   21 3  
    24   21   22 1  
    25   22   23 1  
    26   22   24 1  
    27   22   25 1  
    28    1   26 1  
    29    1   27 1  
    30    1   28 1  
    31    2   29 1  
    32    2   30 1  
    33    3   31 1  
    34    7   32 1  
    35    8   33 1  
    36   10   34 1  
    37   15   35 1  
    38   19   36 1  
    39   19   37 1  
    40   23   38 1  
    41   23   39 1  
    42   23   40 1  
    43   24   41 1  
    44   24   42 1  
    45   24   43 1  
    46   25   44 1  
@<TRIPOS>SUBSTRUCTURE
     1 2OO         1

