### 
### Created by X-TOOL on Mon Sep 10 21:13:19 2018
### 

@<TRIPOS>MOLECULE
4o0z_ligand
   46    49     1     0     0
SMALL
GAST_HUCK


@<TRIPOS>ATOM
      1 C1         14.7630   10.4680    8.8290 C.2       1 2RM        -0.0919
      2 C2         13.8000   11.2620    8.1980 C.2       1 2RM        -0.0821
      3 C3         14.0540   11.1900    6.8380 C.2       1 2RM         0.0682
      4 C4         13.4050   11.7770    5.7310 C.2       1 2RM        -0.0377
      5 C5         13.8540   11.5450    4.4730 C.2       1 2RM        -0.0514
      6 C6         15.0190   10.6770    4.3000 C.2       1 2RM         0.0787
      7 C7         15.6240   10.1260    5.3920 C.2       1 2RM         0.0952
      8 N8         15.1500   10.3730    6.6520 N.pl3     1 2RM        -0.2294
      9 C9         15.5730    9.9410    7.8800 C.2       1 2RM         0.0287
     10 C10        15.5410   10.3940    2.9530 C.2       1 2RM         0.2008
     11 O11        14.9540   10.7770    1.9550 O.2       1 2RM        -0.3911
     12 N12        16.6760    9.6800    2.8460 N.am      1 2RM        -0.2767
     13 C13        17.2330    9.3870    1.5290 C.3       1 2RM         0.0637
     14 C14        16.4170    8.4230    0.7120 C.ar      1 2RM        -0.0210
     15 C15        16.0580    7.2040    1.2390 C.ar      1 2RM        -0.0566
     16 C16        15.3320    6.3140    0.4760 C.ar      1 2RM        -0.0433
     17 C17        14.9510    6.6380   -0.8110 C.ar      1 2RM         0.0864
     18 C18        15.3280    7.8520   -1.3590 C.ar      1 2RM        -0.0433
     19 C19        16.0590    8.7430   -0.5880 C.ar      1 2RM        -0.0566
     20 S20        14.0560    5.4530   -1.7580 S.o2      1 2RM         0.0204
     21 O21        13.6140    4.4300   -0.8730 O.2       1 2RM        -0.1653
     22 O22        13.1970    6.1210   -2.6690 O.2       1 2RM        -0.1653
     23 C23        15.4690    4.8160   -2.6040 C.ar      1 2RM         0.0892
     24 C24        16.3720    4.0680   -1.8680 C.ar      1 2RM        -0.0071
     25 C25        17.5140    3.5510   -2.4550 C.ar      1 2RM         0.1325
     26 C26        17.7610    3.7990   -3.7890 C.ar      1 2RM         0.0052
     27 C27        16.8700    4.5590   -4.5290 C.ar      1 2RM         0.1325
     28 C28        15.7230    5.0790   -3.9410 C.ar      1 2RM        -0.0071
     29 F29        17.1360    4.7910   -5.8310 F         1 2RM        -0.1844
     30 F30        18.3790    2.8140   -1.7250 F         1 2RM        -0.1844
     31 H          14.8473   10.3016    9.9019 H         1 2RM         0.0314
     32 H          13.0048   11.8272    8.6818 H         1 2RM         0.0166
     33 H          12.5396   12.4192    5.8879 H         1 2RM         0.0574
     34 H          13.3597   11.9936    3.6125 H         1 2RM         0.0584
     35 H          16.4929    9.4831    5.2596 H         1 2RM         0.1248
     36 H          16.4207    9.2825    8.0636 H         1 2RM         0.0696
     37 H          17.1383    9.3498    3.6690 H         1 2RM         0.1867
     38 H          18.2364    8.9580    1.6670 H         1 2RM         0.0682
     39 H          17.3116   10.3313    0.9704 H         1 2RM         0.0682
     40 H          16.3451    6.9438    2.2514 H         1 2RM         0.0558
     41 H          15.0577    5.3507    0.8906 H         1 2RM         0.0618
     42 H          15.0553    8.1029   -2.3777 H         1 2RM         0.0618
     43 H          16.3532    9.6989   -1.0061 H         1 2RM         0.0558
     44 H          16.1820    3.8845   -0.8167 H         1 2RM         0.0588
     45 H          18.6525    3.3992   -4.2585 H         1 2RM         0.0590
     46 H          15.0351    5.6832   -4.5213 H         1 2RM         0.0588
@<TRIPOS>BOND
     1    1    2 1  
     2    1    9 2  
     3    2    3 2  
     4    3    4 1  
     5    3    8 1  
     6    4    5 2  
     7    5    6 1  
     8    6    7 2  
     9    6   10 1  
    10    7    8 1  
    11    8    9 1  
    12   10   11 2  
    13   10   12 am 
    14   12   13 1  
    15   13   14 1  
    16   14   15 ar 
    17   14   19 ar 
    18   15   16 ar 
    19   16   17 ar 
    20   17   18 ar 
    21   17   20 1  
    22   18   19 ar 
    23   20   21 2  
    24   20   22 2  
    25   20   23 1  
    26   23   24 ar 
    27   23   28 ar 
    28   24   25 ar 
    29   25   26 ar 
    30   25   30 1  
    31   26   27 ar 
    32   27   28 ar 
    33   27   29 1  
    34    1   31 1  
    35    2   32 1  
    36    4   33 1  
    37    5   34 1  
    38    7   35 1  
    39    9   36 1  
    40   12   37 1  
    41   13   38 1  
    42   13   39 1  
    43   15   40 1  
    44   16   41 1  
    45   18   42 1  
    46   19   43 1  
    47   24   44 1  
    48   26   45 1  
    49   28   46 1  
@<TRIPOS>SUBSTRUCTURE
     1 2RM         1

