### 
### Created by X-TOOL on Mon Sep 10 21:13:16 2018
### 

@<TRIPOS>MOLECULE
4o10_ligand
   46    49     1     0     0
SMALL
GAST_HUCK


@<TRIPOS>ATOM
      1 C4         15.7390    9.9980    5.6750 C.2       1 2QF        -0.0181
      2 C5         15.2150   10.6100    4.5420 C.2       1 2QF         0.0408
      3 C6         14.1020   11.5320    4.6760 C.2       1 2QF        -0.0188
      4 C7         13.5880   11.7660    5.8790 C.2       1 2QF         0.0715
      5 C10        15.7580   10.3610    3.2060 C.2       1 2QF         0.1997
      6 N12        16.8330    9.5840    3.1260 N.am      1 2QF        -0.2761
      7 C13        17.3280    9.3670    1.7730 C.3       1 2QF         0.0637
      8 C15        15.8880    7.3490    1.4600 C.ar      1 2QF        -0.0566
      9 C17        14.9550    6.7420   -0.6680 C.ar      1 2QF         0.0864
     10 C24        15.7630    5.0170   -3.7250 C.ar      1 2QF        -0.0071
     11 C26        17.8260    3.7120   -3.5710 C.ar      1 2QF         0.0052
     12 C28        16.4450    4.0970   -1.6360 C.ar      1 2QF        -0.0071
     13 C1         14.4510   10.5370    9.0660 C.2       1 2QF        -0.0886
     14 C2         15.3890    9.9130    8.2330 C.2       1 2QF        -0.0783
     15 C3         15.1510   10.3140    6.9290 C.2       1 2QF         0.0731
     16 N8         14.0850   11.1840    7.0080 N.pl3     1 2QF        -0.2347
     17 C9         13.6580   11.3320    8.2970 C.2       1 2QF         0.0296
     18 O11        15.2260   10.8300    2.1920 O.2       1 2QF        -0.3883
     19 C14        16.4640    8.4690    0.9410 C.ar      1 2QF        -0.0210
     20 C16        15.1450    6.4930    0.6820 C.ar      1 2QF        -0.0433
     21 C18        15.5510    7.8760   -1.2110 C.ar      1 2QF        -0.0433
     22 C19        16.2950    8.7310   -0.4130 C.ar      1 2QF        -0.0566
     23 S20        14.0730    5.5480   -1.6170 S.o2      1 2QF         0.0204
     24 O21        13.5390    4.5220   -0.7590 O.2       1 2QF        -0.1653
     25 O22        13.2720    6.1860   -2.6070 O.2       1 2QF        -0.1653
     26 C23        15.5100    4.8250   -2.3790 C.ar      1 2QF         0.0892
     27 C25        16.9030    4.4490   -4.2940 C.ar      1 2QF         0.1325
     28 C27        17.5920    3.5450   -2.2060 C.ar      1 2QF         0.1325
     29 F29        18.4740    2.8430   -1.4540 F         1 2QF        -0.1844
     30 F30        17.1090    4.6460   -5.6140 F         1 2QF        -0.1844
     31 H          16.5719    9.3001    5.6036 H         1 2QF         0.0659
     32 H          13.6914   12.0280    3.7978 H         1 2QF         0.0552
     33 H          12.7414   12.4454    5.9663 H         1 2QF         0.1127
     34 H          17.2679    9.1801    3.9308 H         1 2QF         0.1868
     35 H          18.3297    8.9173    1.8398 H         1 2QF         0.0682
     36 H          17.3969   10.3428    1.2699 H         1 2QF         0.0682
     37 H          16.0188    7.1271    2.5130 H         1 2QF         0.0558
     38 H          15.0822    5.6030   -4.3318 H         1 2QF         0.0588
     39 H          18.6984    3.2807   -4.0484 H         1 2QF         0.0590
     40 H          16.2713    3.9563   -0.5753 H         1 2QF         0.0588
     41 H          14.3703   10.4079   10.1443 H         1 2QF         0.0321
     42 H          16.1722    9.2288    8.5561 H         1 2QF         0.0195
     43 H          12.8411   11.9639    8.6425 H         1 2QF         0.0721
     44 H          14.7018    5.6113    1.1306 H         1 2QF         0.0618
     45 H          15.4325    8.0926   -2.2665 H         1 2QF         0.0618
     46 H          16.7495    9.6129   -0.8497 H         1 2QF         0.0558
@<TRIPOS>BOND
     1    2    1 2  
     2    1   15 1  
     3    2    3 1  
     4    5    2 1  
     5    3    4 2  
     6    4   16 1  
     7    6    5 am 
     8    5   18 2  
     9    7    6 1  
    10   19    7 1  
    11    8   19 ar 
    12   20    8 ar 
    13    9   20 ar 
    14    9   21 ar 
    15   23    9 1  
    16   26   10 ar 
    17   10   27 ar 
    18   27   11 ar 
    19   28   11 ar 
    20   26   12 ar 
    21   12   28 ar 
    22   14   13 1  
    23   17   13 2  
    24   15   14 2  
    25   15   16 1  
    26   16   17 1  
    27   22   19 ar 
    28   21   22 ar 
    29   23   24 2  
    30   23   25 2  
    31   23   26 1  
    32   27   30 1  
    33   28   29 1  
    34    1   31 1  
    35    3   32 1  
    36    4   33 1  
    37    6   34 1  
    38    7   35 1  
    39    7   36 1  
    40    8   37 1  
    41   10   38 1  
    42   11   39 1  
    43   12   40 1  
    44   13   41 1  
    45   14   42 1  
    46   17   43 1  
    47   20   44 1  
    48   21   45 1  
    49   22   46 1  
@<TRIPOS>SUBSTRUCTURE
     1 2QF         1

