### 
### Created by X-TOOL on Mon Sep 10 21:13:19 2018
### 

@<TRIPOS>MOLECULE
4o12_ligand
   49    50     1     0     0
SMALL
GAST_HUCK


@<TRIPOS>ATOM
      1 C1         16.2290    3.3570   -3.7530 C.ar      1 2QG        -0.0324
      2 C2         17.5170    3.0610   -4.1450 C.ar      1 2QG        -0.0567
      3 C3         18.4860    2.7680   -3.1970 C.ar      1 2QG         0.0285
      4 C4         18.1590    2.7700   -1.8530 C.ar      1 2QG        -0.0567
      5 C5         16.8690    3.0650   -1.4550 C.ar      1 2QG        -0.0324
      6 C6         15.9000    3.3640   -2.3990 C.ar      1 2QG         0.0915
      7 C8         14.0480    4.9000   -2.3890 C.3       1 2QG         0.0705
      8 C9         14.9200    6.0620   -1.9160 C.3       1 2QG        -0.0250
      9 C10        14.9760    6.1170   -0.3840 C.3       1 2QG        -0.0505
     10 C11        16.0750    7.0950    0.0400 C.3       1 2QG        -0.0511
     11 C12        15.8590    7.5970    1.4750 C.3       1 2QG        -0.0328
     12 C13        16.6110    8.9210    1.6460 C.3       1 2QG         0.0208
     13 C15        15.7520    9.8610    3.8970 C.cat     1 2QG         0.2301
     14 C17        14.0110   10.3950    2.2850 C.1       1 2QG         0.2146
     15 C20        15.3660   10.2520    6.3560 C.ar      1 2QG         0.2046
     16 C21        14.1240   10.9000    6.3270 C.ar      1 2QG         0.0879
     17 O7         14.6290    3.6490   -1.9930 O.3       1 2QG        -0.3177
     18 N14        16.7030    9.2880    3.0710 N.pl3     1 2QG        -0.3246
     19 N16        14.5620   10.3490    3.5230 N.pl3     1 2QG        -0.1794
     20 N18        13.5500   10.4270    1.2430 N.1       1 2QG        -0.3373
     21 N19        16.1320    9.9190    5.2250 N.pl3     1 2QG        -0.2106
     22 C22        13.4630   11.1800    7.5080 C.ar      1 2QG         0.0884
     23 N23        13.9930   10.8480    8.6690 N.ar      1 2QG        -0.2150
     24 C24        15.1620   10.2420    8.7530 C.ar      1 2QG         0.0884
     25 C25        15.8790    9.9340    7.6130 C.ar      1 2QG         0.0879
     26 CL1        20.1080    2.3980   -3.6900 Cl        1 2QG        -0.0810
     27 H          15.4736    3.5839   -4.4966 H         1 2QG         0.0543
     28 H          17.7735    3.0572   -5.1982 H         1 2QG         0.0595
     29 H          18.9153    2.5400   -1.1113 H         1 2QG         0.0595
     30 H          16.6145    3.0625   -0.4013 H         1 2QG         0.0543
     31 H          13.9654    4.9309   -3.4854 H         1 2QG         0.0614
     32 H          13.0467    4.9925   -1.9431 H         1 2QG         0.0614
     33 H          14.4995    7.0052   -2.2949 H         1 2QG         0.0291
     34 H          15.9390    5.9307   -2.3090 H         1 2QG         0.0291
     35 H          15.2000    5.1159    0.0130 H         1 2QG         0.0266
     36 H          14.0069    6.4587    0.0084 H         1 2QG         0.0266
     37 H          16.0705    7.9562   -0.6443 H         1 2QG         0.0266
     38 H          17.0483    6.5858   -0.0177 H         1 2QG         0.0266
     39 H          16.2461    6.8557    2.1895 H         1 2QG         0.0286
     40 H          14.7854    7.7543    1.6553 H         1 2QG         0.0286
     41 H          16.0751    9.7134    1.1030 H         1 2QG         0.0523
     42 H          17.6255    8.8159    1.2341 H         1 2QG         0.0523
     43 H          13.6816   11.1817    5.3783 H         1 2QG         0.1167
     44 H          17.6093    9.0883    3.5179 H         1 2QG         0.1738
     45 H          13.9861   10.7437    4.2803 H         1 2QG         0.2323
     46 H          17.1173    9.6847    5.4127 H         1 2QG         0.2674
     47 H          12.5001   11.6771    7.4797 H         1 2QG         0.1031
     48 H          15.5637    9.9833    9.7260 H         1 2QG         0.1031
     49 H          16.8424    9.4441    7.6959 H         1 2QG         0.1167
@<TRIPOS>BOND
     1    1    2 ar 
     2    6    1 ar 
     3    2    3 ar 
     4    4    3 ar 
     5    3   26 1  
     6    5    4 ar 
     7    6    5 ar 
     8   17    6 1  
     9    8    7 1  
    10    7   17 1  
    11    9    8 1  
    12   10    9 1  
    13   11   10 1  
    14   12   11 1  
    15   18   12 1  
    16   13   18 ar 
    17   13   19 ar 
    18   21   13 ar 
    19   19   14 1  
    20   14   20 3  
    21   15   16 ar 
    22   15   21 1  
    23   15   25 ar 
    24   16   22 ar 
    25   22   23 ar 
    26   23   24 ar 
    27   24   25 ar 
    28    1   27 1  
    29    2   28 1  
    30    4   29 1  
    31    5   30 1  
    32    7   31 1  
    33    7   32 1  
    34    8   33 1  
    35    8   34 1  
    36    9   35 1  
    37    9   36 1  
    38   10   37 1  
    39   10   38 1  
    40   11   39 1  
    41   11   40 1  
    42   12   41 1  
    43   12   42 1  
    44   16   43 1  
    45   18   44 1  
    46   19   45 1  
    47   21   46 1  
    48   22   47 1  
    49   24   48 1  
    50   25   49 1  
@<TRIPOS>SUBSTRUCTURE
     1 2QG         1

