### 
### Created by X-TOOL on Mon Sep 10 21:13:18 2018
### 

@<TRIPOS>MOLECULE
4o13_ligand
   47    50     1     0     0
SMALL
GAST_HUCK


@<TRIPOS>ATOM
      1 C1         16.5690    4.5500   -4.7750 C.ar      1 2P1        -0.0303
      2 C2         17.5670    3.8280   -4.1370 C.ar      1 2P1        -0.0314
      3 C3         17.5240    3.6300   -2.7730 C.ar      1 2P1         0.0500
      4 C4         16.4790    4.1630   -2.0290 C.ar      1 2P1        -0.0061
      5 C5         15.4710    4.8940   -2.6510 C.ar      1 2P1         0.1216
      6 C6         15.5270    5.0800   -4.0280 C.ar      1 2P1        -0.0086
      7 S7         14.1440    5.5700   -1.6850 S.o2      1 2P1         0.0285
      8 O8         13.2850    6.2490   -2.5970 O.2       1 2P1        -0.1646
      9 O9         13.7150    4.4840   -0.8810 O.2       1 2P1        -0.1646
     10 C10        15.0380    6.7170   -0.6950 C.ar      1 2P1         0.0872
     11 C11        15.4160    6.3380    0.5760 C.ar      1 2P1        -0.0432
     12 C12        16.1430    7.1940    1.3740 C.ar      1 2P1        -0.0566
     13 C13        16.5000    8.4420    0.9200 C.ar      1 2P1        -0.0209
     14 C14        16.1360    8.8260   -0.3610 C.ar      1 2P1        -0.0566
     15 C15        15.4080    7.9650   -1.1690 C.ar      1 2P1        -0.0432
     16 C16        17.3210    9.3730    1.7830 C.3       1 2P1         0.0639
     17 N17        16.7950    9.5700    3.1360 N.am      1 2P1        -0.2753
     18 C18        15.7030   10.3370    3.2530 C.2       1 2P1         0.2069
     19 O19        15.1770   10.8060    2.2510 O.2       1 2P1        -0.3865
     20 C20        15.1280   10.5980    4.5800 C.ar      1 2P1         0.0678
     21 C21        15.6990   10.0650    5.7440 C.ar      1 2P1        -0.0240
     22 C22        15.0810   10.3750    6.9590 C.ar      1 2P1         0.0422
     23 C23        15.3280   10.0370    8.3560 C.2       1 2P1         0.0317
     24 N24        14.3960   10.6080    9.0710 N.2       1 2P1        -0.1976
     25 N25        13.5400   11.3510    8.2570 N.pl3     1 2P1        -0.1954
     26 C27        13.9340   11.2070    6.9580 C.ar      1 2P1         0.1627
     27 N28        13.4540   11.6880    5.8220 N.ar      1 2P1        -0.2719
     28 C29        14.0010   11.4130    4.6620 C.ar      1 2P1         0.0201
     29 C30        18.6370    2.8420   -2.1230 C.3       1 2P1         0.3771
     30 F31        19.7390    3.6690   -1.8940 F         1 2P1        -0.2199
     31 F32        18.2390    2.3390   -0.8930 F         1 2P1        -0.2199
     32 F33        18.9970    1.7870   -2.9660 F         1 2P1        -0.2199
     33 H          16.6030    4.6988   -5.8482 H         1 2P1         0.0699
     34 H          18.3866    3.4165   -4.7149 H         1 2P1         0.0853
     35 H          16.4484    4.0085   -0.9565 H         1 2P1         0.0872
     36 H          14.7468    5.6461   -4.5238 H         1 2P1         0.0875
     37 H          15.1390    5.3590    0.9500 H         1 2P1         0.0618
     38 H          16.4364    6.8807    2.3694 H         1 2P1         0.0558
     39 H          16.4214    9.8033   -0.7331 H         1 2P1         0.0558
     40 H          15.1286    8.2687   -2.1714 H         1 2P1         0.0618
     41 H          17.3650   10.3531    1.2856 H         1 2P1         0.0683
     42 H          18.3364    8.9582    1.8663 H         1 2P1         0.0683
     43 H          17.2301    9.1522    3.9336 H         1 2P1         0.1870
     44 H          16.5828    9.4386    5.7037 H         1 2P1         0.0788
     45 H          16.1419    9.4203    8.7344 H         1 2P1         0.0742
     46 H          12.7422   11.9152    8.5827 H         1 2P1         0.2505
     47 H          13.5710   11.8248    3.7562 H         1 2P1         0.0846
@<TRIPOS>BOND
     1    1    2 ar 
     2    1    6 ar 
     3    2    3 ar 
     4    3    4 ar 
     5    3   29 1  
     6    4    5 ar 
     7    5    6 ar 
     8    5    7 1  
     9    7    8 2  
    10    7    9 2  
    11    7   10 1  
    12   10   11 ar 
    13   10   15 ar 
    14   11   12 ar 
    15   12   13 ar 
    16   13   14 ar 
    17   13   16 1  
    18   14   15 ar 
    19   16   17 1  
    20   17   18 am 
    21   18   19 2  
    22   18   20 1  
    23   20   21 ar 
    24   20   28 ar 
    25   21   22 ar 
    26   22   23 1  
    27   22   26 ar 
    28   23   24 2  
    29   24   25 1  
    30   25   26 1  
    31   26   27 ar 
    32   27   28 ar 
    33   29   30 1  
    34   29   31 1  
    35   29   32 1  
    36    1   33 1  
    37    2   34 1  
    38    4   35 1  
    39    6   36 1  
    40   11   37 1  
    41   12   38 1  
    42   14   39 1  
    43   15   40 1  
    44   16   41 1  
    45   16   42 1  
    46   17   43 1  
    47   21   44 1  
    48   23   45 1  
    49   25   46 1  
    50   28   47 1  
@<TRIPOS>SUBSTRUCTURE
     1 2P1         1

