### 
### Created by X-TOOL on Mon Sep 10 21:13:16 2018
### 

@<TRIPOS>MOLECULE
4o15_ligand
   47    50     1     0     0
SMALL
GAST_HUCK


@<TRIPOS>ATOM
      1 C1         16.9920    5.1930   -4.5510 C.ar      1 2P1        -0.0303
      2 C2         17.9340    4.4370   -3.8760 C.ar      1 2P1        -0.0314
      3 C3         17.7810    4.1590   -2.5300 C.ar      1 2P1         0.0500
      4 C4         16.6680    4.6440   -1.8570 C.ar      1 2P1        -0.0061
      5 C5         15.7150    5.4020   -2.5310 C.ar      1 2P1         0.1216
      6 C6         15.8880    5.6790   -3.8770 C.ar      1 2P1        -0.0086
      7 S7         14.3100    6.0320   -1.6540 S.o2      1 2P1         0.0285
      8 O8         13.5040    6.7500   -2.5780 O.2       1 2P1        -0.1646
      9 O9         13.8470    4.9410   -0.8600 O.2       1 2P1        -0.1646
     10 C10        15.1380    7.1580   -0.5840 C.ar      1 2P1         0.0872
     11 C11        15.6820    8.3150   -1.1090 C.ar      1 2P1        -0.0432
     12 C12        16.3670    9.1790   -0.2780 C.ar      1 2P1        -0.0566
     13 C13        16.5180    8.8790    1.0630 C.ar      1 2P1        -0.0209
     14 C14        15.9830    7.7190    1.5870 C.ar      1 2P1        -0.0566
     15 C15        15.2980    6.8560    0.7530 C.ar      1 2P1        -0.0432
     16 C16        17.2960    9.8390    1.9270 C.3       1 2P1         0.0639
     17 N17        16.8040    9.9900    3.2970 N.am      1 2P1        -0.2753
     18 C18        15.6860   10.7180    3.4270 C.2       1 2P1         0.2069
     19 O19        15.1720   11.1790    2.4200 O.2       1 2P1        -0.3865
     20 C20        15.0890   10.9770    4.7500 C.ar      1 2P1         0.0678
     21 C21        15.6260   10.4600    5.9370 C.ar      1 2P1        -0.0240
     22 C22        14.9680   10.7910    7.1340 C.ar      1 2P1         0.0422
     23 C23        15.1820   10.4720    8.5420 C.2       1 2P1         0.0317
     24 N24        14.2410   11.0580    9.2330 N.2       1 2P1        -0.1976
     25 N25        13.3930   11.7740    8.3900 N.pl3     1 2P1        -0.1954
     26 C27        13.8240   11.6220    7.0990 C.ar      1 2P1         0.1627
     27 N28        13.3730   12.0830    5.9430 N.ar      1 2P1        -0.2719
     28 C29        13.9550   11.7950    4.8090 C.ar      1 2P1         0.0201
     29 C30        18.8340    3.3300   -1.8260 C.3       1 2P1         0.3771
     30 F31        19.9580    4.0990   -1.5300 F         1 2P1        -0.2199
     31 F32        18.3290    2.8060   -0.6450 F         1 2P1        -0.2199
     32 F33        19.2530    2.2860   -2.6490 F         1 2P1        -0.2199
     33 H          17.1199    5.4036   -5.6066 H         1 2P1         0.0699
     34 H          18.8000    4.0591   -4.4072 H         1 2P1         0.0853
     35 H          16.5405    4.4314   -0.8017 H         1 2P1         0.0872
     36 H          15.1547    6.2792   -4.4035 H         1 2P1         0.0875
     37 H          15.5719    8.5420   -2.1632 H         1 2P1         0.0618
     38 H          16.7873   10.0946   -0.6780 H         1 2P1         0.0558
     39 H          16.0989    7.4881    2.6398 H         1 2P1         0.0558
     40 H          14.8840    5.9367    1.1512 H         1 2P1         0.0618
     41 H          17.2685   10.8277    1.4456 H         1 2P1         0.0683
     42 H          18.3360    9.4843    1.9770 H         1 2P1         0.0683
     43 H          17.2692    9.5790    4.0810 H         1 2P1         0.1870
     44 H          16.5099    9.8325    5.9320 H         1 2P1         0.0788
     45 H          15.9838    9.8550    8.9450 H         1 2P1         0.0742
     46 H          12.5766   12.3265    8.6887 H         1 2P1         0.2505
     47 H          13.5486   12.2005    3.8895 H         1 2P1         0.0846
@<TRIPOS>BOND
     1    1    2 ar 
     2    1    6 ar 
     3    2    3 ar 
     4    3    4 ar 
     5    3   29 1  
     6    4    5 ar 
     7    5    6 ar 
     8    5    7 1  
     9    7    8 2  
    10    7    9 2  
    11    7   10 1  
    12   10   11 ar 
    13   10   15 ar 
    14   11   12 ar 
    15   12   13 ar 
    16   13   14 ar 
    17   13   16 1  
    18   14   15 ar 
    19   16   17 1  
    20   17   18 am 
    21   18   19 2  
    22   18   20 1  
    23   20   21 ar 
    24   20   28 ar 
    25   21   22 ar 
    26   22   23 1  
    27   22   26 ar 
    28   23   24 2  
    29   24   25 1  
    30   25   26 1  
    31   26   27 ar 
    32   27   28 ar 
    33   29   30 1  
    34   29   31 1  
    35   29   32 1  
    36    1   33 1  
    37    2   34 1  
    38    4   35 1  
    39    6   36 1  
    40   11   37 1  
    41   12   38 1  
    42   14   39 1  
    43   15   40 1  
    44   16   41 1  
    45   16   42 1  
    46   17   43 1  
    47   21   44 1  
    48   23   45 1  
    49   25   46 1  
    50   28   47 1  
@<TRIPOS>SUBSTRUCTURE
     1 2P1         1

