### 
### Created by X-TOOL on Mon Sep 10 21:13:18 2018
### 

@<TRIPOS>MOLECULE
4o1b_ligand
   58    60     1     0     0
SMALL
GAST_HUCK


@<TRIPOS>ATOM
      1 CAK        11.9840    1.9800   -8.0720 C.ar      1 DGB        -0.0419
      2 CAF        12.5160    0.8860   -8.7240 C.ar      1 DGB        -0.0562
      3 CAE        12.9410   -0.2190   -8.0130 C.ar      1 DGB        -0.0575
      4 CAG        12.8460   -0.2300   -6.6310 C.ar      1 DGB        -0.0562
      5 CAL        12.3170    0.8570   -5.9670 C.ar      1 DGB        -0.0419
      6 CBA        11.8900    1.9800   -6.6800 C.ar      1 DGB         0.0500
      7 CAY        11.3230    3.1360   -5.9400 C.2       1 DGB         0.2074
      8 OAB        10.1950    3.0290   -5.4840 O.2       1 DGB        -0.3845
      9 NBC        12.0190    4.2890   -5.7710 N.am      1 DGB        -0.2724
     10 CAU        11.4460    5.4020   -5.0000 C.3       1 DGB         0.0336
     11 CAS        12.3350    5.5530   -3.7470 C.3       1 DGB        -0.0297
     12 CAT        13.3970    4.4770   -6.2580 C.3       1 DGB         0.0336
     13 CAR        14.3130    4.7030   -5.0380 C.3       1 DGB        -0.0297
     14 CBB        13.7940    5.8420   -4.1350 C.3       1 DGB        -0.0374
     15 CAQ        14.6450    5.9750   -2.8470 C.3       1 DGB        -0.0500
     16 CAO        14.4620    7.3620   -2.1930 C.3       1 DGB        -0.0510
     17 CAN        14.9600    7.4510   -0.7320 C.3       1 DGB        -0.0329
     18 CAP        15.3040    8.9120   -0.3780 C.3       1 DGB         0.0299
     19 NAW        15.5680    9.1120    1.0520 N.am      1 DGB        -0.2880
     20 CAX        14.8970    9.9890    1.8390 C.2       1 DGB         0.1948
     21 OAA        13.9730   10.6730    1.4140 O.2       1 DGB        -0.3887
     22 CAC        15.2500   10.0150    3.2650 C.2       1 DGB         0.0148
     23 CAD        14.4690   10.6990    4.1400 C.2       1 DGB        -0.0302
     24 CAZ        14.7860   10.6310    5.5780 C.ar      1 DGB         0.0122
     25 CAJ        15.9240    9.9640    6.0630 C.ar      1 DGB        -0.0318
     26 CAH        16.1520    9.8770    7.3760 C.ar      1 DGB        -0.0314
     27 CAI        15.3200   10.4030    8.2680 C.ar      1 DGB         0.0131
     28 NAV        14.1770   11.0530    7.8470 N.ar      1 DGB        -0.2931
     29 CAM        13.8910   11.1700    6.4990 C.ar      1 DGB         0.0223
     30 H          11.6401    2.8369   -8.6399 H         1 DGB         0.0669
     31 H          12.6011    0.8942   -9.8046 H         1 DGB         0.0629
     32 H          13.3485   -1.0768   -8.5357 H         1 DGB         0.0653
     33 H          13.1875   -1.0932   -6.0713 H         1 DGB         0.0629
     34 H          12.2321    0.8399   -4.8865 H         1 DGB         0.0669
     35 H          10.4105    5.1721   -4.7086 H         1 DGB         0.0522
     36 H          11.4628    6.3274   -5.5944 H         1 DGB         0.0522
     37 H          12.2962    4.6207   -3.1645 H         1 DGB         0.0287
     38 H          11.9548    6.3840   -3.1348 H         1 DGB         0.0287
     39 H          13.4406    5.3518   -6.9234 H         1 DGB         0.0522
     40 H          13.7231    3.5817   -6.8075 H         1 DGB         0.0522
     41 H          15.3215    4.9615   -5.3929 H         1 DGB         0.0287
     42 H          14.3581    3.7747   -4.4497 H         1 DGB         0.0287
     43 H          13.8420    6.7888   -4.6929 H         1 DGB         0.0302
     44 H          15.7059    5.8369   -3.1028 H         1 DGB         0.0268
     45 H          14.3361    5.1984   -2.1319 H         1 DGB         0.0268
     46 H          13.3904    7.6099   -2.2067 H         1 DGB         0.0266
     47 H          15.0168    8.1000   -2.7909 H         1 DGB         0.0266
     48 H          15.8583    6.8271   -0.6151 H         1 DGB         0.0285
     49 H          14.1714    7.0888   -0.0560 H         1 DGB         0.0285
     50 H          14.4580    9.5514   -0.6704 H         1 DGB         0.0518
     51 H          16.1998    9.2076   -0.9438 H         1 DGB         0.0518
     52 H          16.2910    8.5650    1.4740 H         1 DGB         0.1837
     53 H          16.1347    9.4877    3.6188 H         1 DGB         0.0699
     54 H          13.6237   11.2872    3.7859 H         1 DGB         0.0756
     55 H          16.6226    9.5164    5.3654 H         1 DGB         0.0763
     56 H          17.0408    9.3628    7.7235 H         1 DGB         0.0714
     57 H          15.5385   10.3219    9.3266 H         1 DGB         0.0838
     58 H          12.9890   11.6708    6.1662 H         1 DGB         0.0857
@<TRIPOS>BOND
     1    1    2 ar 
     2    1    6 ar 
     3    2    3 ar 
     4    3    4 ar 
     5    4    5 ar 
     6    5    6 ar 
     7    6    7 1  
     8    7    8 2  
     9    7    9 am 
    10    9   10 1  
    11    9   12 1  
    12   10   11 1  
    13   11   14 1  
    14   12   13 1  
    15   13   14 1  
    16   14   15 1  
    17   15   16 1  
    18   16   17 1  
    19   17   18 1  
    20   18   19 1  
    21   19   20 am 
    22   20   21 2  
    23   20   22 1  
    24   22   23 2  
    25   23   24 1  
    26   24   25 ar 
    27   24   29 ar 
    28   25   26 ar 
    29   26   27 ar 
    30   27   28 ar 
    31   28   29 ar 
    32    1   30 1  
    33    2   31 1  
    34    3   32 1  
    35    4   33 1  
    36    5   34 1  
    37   10   35 1  
    38   10   36 1  
    39   11   37 1  
    40   11   38 1  
    41   12   39 1  
    42   12   40 1  
    43   13   41 1  
    44   13   42 1  
    45   14   43 1  
    46   15   44 1  
    47   15   45 1  
    48   16   46 1  
    49   16   47 1  
    50   17   48 1  
    51   17   49 1  
    52   18   50 1  
    53   18   51 1  
    54   19   52 1  
    55   22   53 1  
    56   23   54 1  
    57   25   55 1  
    58   26   56 1  
    59   27   57 1  
    60   29   58 1  
@<TRIPOS>SUBSTRUCTURE
     1 DGB         1

