### 
### Created by X-TOOL on Mon Sep 10 21:13:17 2018
### 

@<TRIPOS>MOLECULE
4o1d_ligand
   58    60     1     0     0
SMALL
GAST_HUCK


@<TRIPOS>ATOM
      1 CAK        15.4820    3.3830   -8.8060 C.ar      1 DGB        -0.0419
      2 CAF        16.1690    3.7910   -9.9350 C.ar      1 DGB        -0.0562
      3 CAE        17.4870    4.1940   -9.8420 C.ar      1 DGB        -0.0575
      4 CAG        18.1180    4.1880   -8.6110 C.ar      1 DGB        -0.0562
      5 CAL        17.4400    3.7920   -7.4730 C.ar      1 DGB        -0.0419
      6 CBA        16.1060    3.3830   -7.5570 C.ar      1 DGB         0.0500
      7 CAY        15.3830    2.9510   -6.3310 C.2       1 DGB         0.2074
      8 OAB        15.5850    1.8230   -5.9110 O.2       1 DGB        -0.3845
      9 NBC        14.5110    3.7780   -5.6960 N.am      1 DGB        -0.2724
     10 CAU        14.2990    5.1320   -6.1700 C.3       1 DGB         0.0336
     11 CAS        15.0490    5.9300   -5.0990 C.3       1 DGB        -0.0297
     12 CAT        13.7920    3.4050   -4.4570 C.3       1 DGB         0.0336
     13 CAR        14.1930    4.3510   -3.3090 C.3       1 DGB        -0.0297
     14 CBB        14.2980    5.8090   -3.7750 C.3       1 DGB        -0.0374
     15 CAQ        15.1010    6.6450   -2.7710 C.3       1 DGB        -0.0500
     16 CAO        14.3110    6.9270   -1.5050 C.3       1 DGB        -0.0510
     17 CAN        15.2720    7.4000   -0.4130 C.3       1 DGB        -0.0329
     18 CAP        15.3060    8.9270   -0.3170 C.3       1 DGB         0.0299
     19 NAW        15.5560    9.2100    1.0870 N.am      1 DGB        -0.2880
     20 CAX        14.8330   10.0590    1.8480 C.2       1 DGB         0.1948
     21 OAA        13.8410   10.6320    1.4140 O.2       1 DGB        -0.3887
     22 CAC        15.2140   10.1260    3.2650 C.2       1 DGB         0.0148
     23 CAD        14.4910   10.8160    4.1690 C.2       1 DGB        -0.0302
     24 CAZ        14.8260   10.7200    5.6010 C.ar      1 DGB         0.0122
     25 CAJ        15.9660   10.0300    6.0680 C.ar      1 DGB        -0.0318
     26 CAH        16.1690    9.9240    7.3960 C.ar      1 DGB        -0.0314
     27 CAI        15.3330   10.4360    8.2810 C.ar      1 DGB         0.0131
     28 NAV        14.1780   11.0890    7.8720 N.ar      1 DGB        -0.2931
     29 CAM        13.9130   11.2290    6.5280 C.ar      1 DGB         0.0223
     30 H          14.4506    3.0606   -8.8916 H         1 DGB         0.0669
     31 H          15.6706    3.7945  -10.8976 H         1 DGB         0.0629
     32 H          18.0235    4.5130  -10.7283 H         1 DGB         0.0653
     33 H          19.1545    4.4969   -8.5379 H         1 DGB         0.0629
     34 H          17.9441    3.7987   -6.5134 H         1 DGB         0.0669
     35 H          13.2300    5.3904   -6.1932 H         1 DGB         0.0522
     36 H          14.7349    5.2846   -7.1683 H         1 DGB         0.0522
     37 H          15.1036    6.9874   -5.3971 H         1 DGB         0.0287
     38 H          16.0666    5.5283   -4.9842 H         1 DGB         0.0287
     39 H          14.0497    2.3711   -4.1837 H         1 DGB         0.0522
     40 H          12.7080    3.4797   -4.6285 H         1 DGB         0.0522
     41 H          15.1687    4.0340   -2.9121 H         1 DGB         0.0287
     42 H          13.4352    4.2860   -2.5143 H         1 DGB         0.0287
     43 H          13.2836    6.2206   -3.8823 H         1 DGB         0.0302
     44 H          15.3713    7.6019   -3.2414 H         1 DGB         0.0268
     45 H          16.0162    6.0964   -2.5037 H         1 DGB         0.0268
     46 H          13.8019    6.0091   -1.1759 H         1 DGB         0.0266
     47 H          13.5640    7.7098   -1.7031 H         1 DGB         0.0266
     48 H          16.2833    7.0341   -0.6441 H         1 DGB         0.0285
     49 H          14.9450    6.9886    0.5533 H         1 DGB         0.0285
     50 H          14.3434    9.3558   -0.6324 H         1 DGB         0.0518
     51 H          16.1124    9.3360   -0.9434 H         1 DGB         0.0518
     52 H          16.3231    8.7392    1.5229 H         1 DGB         0.1837
     53 H          16.1092    9.6014    3.5956 H         1 DGB         0.0699
     54 H          13.6621   11.4423    3.8425 H         1 DGB         0.0756
     55 H          16.6681    9.5917    5.3680 H         1 DGB         0.0763
     56 H          17.0494    9.4001    7.7503 H         1 DGB         0.0714
     57 H          15.5511   10.3454    9.3390 H         1 DGB         0.0838
     58 H          13.0096   11.7266    6.1943 H         1 DGB         0.0857
@<TRIPOS>BOND
     1    1    2 ar 
     2    1    6 ar 
     3    2    3 ar 
     4    3    4 ar 
     5    4    5 ar 
     6    5    6 ar 
     7    6    7 1  
     8    7    8 2  
     9    7    9 am 
    10    9   10 1  
    11    9   12 1  
    12   10   11 1  
    13   11   14 1  
    14   12   13 1  
    15   13   14 1  
    16   14   15 1  
    17   15   16 1  
    18   16   17 1  
    19   17   18 1  
    20   18   19 1  
    21   19   20 am 
    22   20   21 2  
    23   20   22 1  
    24   22   23 2  
    25   23   24 1  
    26   24   25 ar 
    27   24   29 ar 
    28   25   26 ar 
    29   26   27 ar 
    30   27   28 ar 
    31   28   29 ar 
    32    1   30 1  
    33    2   31 1  
    34    3   32 1  
    35    4   33 1  
    36    5   34 1  
    37   10   35 1  
    38   10   36 1  
    39   11   37 1  
    40   11   38 1  
    41   12   39 1  
    42   12   40 1  
    43   13   41 1  
    44   13   42 1  
    45   14   43 1  
    46   15   44 1  
    47   15   45 1  
    48   16   46 1  
    49   16   47 1  
    50   17   48 1  
    51   17   49 1  
    52   18   50 1  
    53   18   51 1  
    54   19   52 1  
    55   22   53 1  
    56   23   54 1  
    57   25   55 1  
    58   26   56 1  
    59   27   57 1  
    60   29   58 1  
@<TRIPOS>SUBSTRUCTURE
     1 DGB         1

