### 
### Created by X-TOOL on Mon Sep 10 21:13:19 2018
### 

@<TRIPOS>MOLECULE
4o1l_ligand
   35    37     1     0     0
SMALL
GAST_HUCK


@<TRIPOS>ATOM
      1 C11        16.2100   22.5570   14.0030 C.1       1 HO4        -0.1351
      2 C10        16.6050   21.6840   14.5540 C.1       1 HO4        -0.0983
      3 C7         17.1140   20.6550   15.1040 C.2       1 HO4         0.0368
      4 C8         18.4510   20.6160   15.1380 C.2       1 HO4         0.0525
      5 C5         16.5630   19.6180   15.7730 C.ar      1 HO4         0.0619
      6 C6         15.2920   19.1740   16.0760 C.ar      1 HO4         0.1179
      7 N6         14.2260   19.8610   15.6540 N.pl3     1 HO4        -0.3157
      8 N1         15.1020   18.0660   16.7810 N.ar      1 HO4        -0.2727
      9 C2         16.2170   17.3350   17.1990 C.ar      1 HO4         0.0507
     10 N3         17.4870   17.7700   16.8410 N.ar      1 HO4        -0.2757
     11 C4         17.6400   18.9010   16.1820 C.ar      1 HO4         0.1439
     12 N9         18.7740   19.5080   15.7860 N.pl3     1 HO4        -0.2179
     13 C1'        20.1190   18.9730   16.0500 C.3       1 HO4         0.1972
     14 O4'        20.8750   19.8880   16.7590 O.3       1 HO4        -0.3369
     15 C4'        22.2680   19.4050   16.5980 C.3       1 HO4         0.1135
     16 C5'        23.2530   20.5090   16.7360 C.3       1 HO4         0.0730
     17 O5'        23.4180   20.6380   18.1180 O.3       1 HO4        -0.3924
     18 C3'        22.3270   18.8920   15.1770 C.3       1 HO4         0.1146
     19 O3'        22.9330   17.6000   15.1980 O.3       1 HO4        -0.3864
     20 C2'        20.8710   18.8140   14.7560 C.3       1 HO4         0.1384
     21 O2'        20.6100   17.5110   14.2200 O.3       1 HO4        -0.3836
     22 H          15.8326   23.3910   13.4766 H         1 HO4         0.1098
     23 H          19.1367   21.3496   14.7166 H         1 HO4         0.0988
     24 H          13.2773   19.5297   15.8801 H         1 HO4         0.1824
     25 H          14.3532   20.7217   15.1027 H         1 HO4         0.1824
     26 H          16.0926   16.4387   17.7958 H         1 HO4         0.0980
     27 H          20.0438   18.0170   16.5888 H         1 HO4         0.0995
     28 H          22.4910   18.6087   17.3234 H         1 HO4         0.0647
     29 H          22.8620   21.4399   16.2995 H         1 HO4         0.0584
     30 H          24.2049   20.2479   16.2505 H         1 HO4         0.0584
     31 H          23.7426   19.8195   18.4748 H         1 HO4         0.2095
     32 H          22.8937   19.5691   14.5209 H         1 HO4         0.0648
     33 H          22.9797   17.2590   14.3126 H         1 HO4         0.2100
     34 H          20.6097   19.5970   14.0290 H         1 HO4         0.0676
     35 H          21.1703   17.3613   13.4675 H         1 HO4         0.2101
@<TRIPOS>BOND
     1    1    2 3  
     2    2    3 1  
     3    3    4 2  
     4    3    5 1  
     5    4   12 1  
     6    5    6 ar 
     7    5   11 ar 
     8    6    7 1  
     9    6    8 ar 
    10    8    9 ar 
    11    9   10 ar 
    12   10   11 ar 
    13   11   12 1  
    14   12   13 1  
    15   13   14 1  
    16   13   20 1  
    17   14   15 1  
    18   15   16 1  
    19   15   18 1  
    20   16   17 1  
    21   18   19 1  
    22   18   20 1  
    23   20   21 1  
    24    1   22 1  
    25    4   23 1  
    26    7   24 1  
    27    7   25 1  
    28    9   26 1  
    29   13   27 1  
    30   15   28 1  
    31   16   29 1  
    32   16   30 1  
    33   17   31 1  
    34   18   32 1  
    35   19   33 1  
    36   20   34 1  
    37   21   35 1  
@<TRIPOS>SUBSTRUCTURE
     1 HO4         1

