### 
### Created by X-TOOL on Mon Sep 10 21:13:19 2018
### 

@<TRIPOS>MOLECULE
4o24_ligand
   34    35     1     0     0
SMALL
GAST_HUCK


@<TRIPOS>ATOM
      1 CAA         1.3480  454.9810  104.3800 C.3       1 2Q0        -0.0603
      2 CAR         0.1500  454.9560  105.3240 C.3       1 2Q0        -0.0200
      3 CAB        -1.1010  455.2470  104.4910 C.3       1 2Q0        -0.0603
      4 CAK         0.2420  455.9800  106.4820 C.3       1 2Q0         0.0657
      5 NAS         0.2560  457.4460  106.1310 N.am      1 2Q0        -0.1858
      6 CAO         1.0190  458.2440  105.3440 C.2       1 2Q0         0.2530
      7 OAC         1.9640  457.8420  104.6710 O.2       1 2Q0        -0.3717
      8 CAP        -0.6970  458.1480  106.7570 C.2       1 2Q0         0.1622
      9 SAE        -1.8560  457.4830  107.8480 S.2       1 2Q0        -0.2520
     10 SAL        -0.6230  459.7170  106.3460 S.3       1 2Q0         0.0232
     11 CAQ         0.6760  459.5360  105.3270 C.2       1 2Q0         0.1177
     12 CAF         1.3630  460.4130  104.5710 C.2       1 2Q0        -0.0349
     13 CAN         1.0910  461.7870  104.4630 C.ar      1 2Q0        -0.0357
     14 CAI         1.9180  462.5070  103.6050 C.ar      1 2Q0        -0.0627
     15 CAG         1.7440  463.8720  103.4120 C.ar      1 2Q0        -0.0315
     16 CAM         0.7250  464.5400  104.0770 C.ar      1 2Q0         0.0897
     17 OAD         0.5510  465.8760  103.8920 O.3       1 2Q0        -0.3316
     18 CAH        -0.1130  463.8380  104.9350 C.ar      1 2Q0        -0.0315
     19 CAJ         0.0710  462.4730  105.1200 C.ar      1 2Q0        -0.0627
     20 H           1.2075  454.2293  103.5893 H         1 2Q0         0.0233
     21 H           2.2643  454.7527  104.9442 H         1 2Q0         0.0233
     22 H           1.4361  455.9789  103.9257 H         1 2Q0         0.0233
     23 H           0.0720  453.9499  105.7617 H         1 2Q0         0.0321
     24 H          -1.9866  455.2364  105.1434 H         1 2Q0         0.0233
     25 H          -1.2101  454.4778  103.7123 H         1 2Q0         0.0233
     26 H          -1.0053  456.2359  104.0188 H         1 2Q0         0.0233
     27 H           1.1693  455.7670  107.0341 H         1 2Q0         0.0603
     28 H          -0.6235  455.8093  107.1391 H         1 2Q0         0.0603
     29 H           2.2008  460.0242  103.9941 H         1 2Q0         0.0584
     30 H           2.7131  461.9927  103.0773 H         1 2Q0         0.0595
     31 H           2.4028  464.4142  102.7434 H         1 2Q0         0.0550
     32 H          -0.1832  466.1741  104.4159 H         1 2Q0         0.2493
     33 H          -0.9090  464.3544  105.4592 H         1 2Q0         0.0550
     34 H          -0.5905  461.9322  105.7871 H         1 2Q0         0.0595
@<TRIPOS>BOND
     1    1    2 1  
     2    2    3 1  
     3    2    4 1  
     4    4    5 1  
     5    5    6 am 
     6    5    8 am 
     7    6    7 2  
     8    6   11 1  
     9    8    9 2  
    10    8   10 1  
    11   10   11 1  
    12   11   12 2  
    13   12   13 1  
    14   13   14 ar 
    15   13   19 ar 
    16   14   15 ar 
    17   15   16 ar 
    18   16   17 1  
    19   16   18 ar 
    20   18   19 ar 
    21    1   20 1  
    22    1   21 1  
    23    1   22 1  
    24    2   23 1  
    25    3   24 1  
    26    3   25 1  
    27    3   26 1  
    28    4   27 1  
    29    4   28 1  
    30   12   29 1  
    31   14   30 1  
    32   15   31 1  
    33   17   32 1  
    34   18   33 1  
    35   19   34 1  
@<TRIPOS>SUBSTRUCTURE
     1 2Q0         1

