### 
### Created by X-TOOL on Mon Sep 10 21:13:16 2018
### 

@<TRIPOS>MOLECULE
4o28_ligand
   45    48     1     0     0
SMALL
GAST_HUCK


@<TRIPOS>ATOM
      1 C4         15.4040    8.1390   -1.3250 C.ar      1 1QS        -0.0433
      2 C5         16.1360    8.9980   -0.5250 C.ar      1 1QS        -0.0566
      3 C6         16.3820    8.6850    0.7980 C.ar      1 1QS        -0.0210
      4 C7         17.2090    9.6210    1.6390 C.3       1 1QS         0.0637
      5 C13        13.3660   11.7300    5.8450 C.2       1 1QS        -0.0149
      6 C17        15.7510   10.3170    8.0670 C.2       1 1QS         0.0536
      7 C24        16.3930    4.5290   -1.8230 C.ar      1 1QS        -0.0071
      8 C26        17.8410    4.2210   -3.6920 C.ar      1 1QS         0.0052
      9 C28        15.7610    5.4280   -3.9400 C.ar      1 1QS        -0.0071
     10 C1         15.8930    7.5050    1.3130 C.ar      1 1QS        -0.0566
     11 C2         15.1620    6.6450    0.5170 C.ar      1 1QS        -0.0433
     12 C3         14.8960    6.9650   -0.8010 C.ar      1 1QS         0.0864
     13 N8         16.7310    9.8150    3.0040 N.am      1 1QS        -0.2767
     14 C9         15.6510   10.5910    3.1280 C.2       1 1QS         0.2024
     15 O10        15.1450   11.0620    2.1210 O.2       1 1QS        -0.3912
     16 C11        15.0990   10.8440    4.4650 C.2       1 1QS         0.0869
     17 C12        13.8590   11.5160    4.5990 C.2       1 1QS        -0.0425
     18 C14        14.0860   11.2810    6.9780 C.2       1 1QS         0.1374
     19 N15        13.8340   11.3550    8.2830 N.2       1 1QS        -0.3437
     20 C16        14.8370   10.7750    8.9560 C.2       1 1QS        -0.0320
     21 N18        15.2870   10.6270    6.8130 N.pl3     1 1QS        -0.2006
     22 C19        15.7830   10.4100    5.5710 C.2       1 1QS         0.1058
     23 S20        14.0130    5.8440   -1.8430 S.o2      1 1QS         0.0204
     24 O21        13.2420    6.5760   -2.7840 O.2       1 1QS        -0.1653
     25 O22        13.5110    4.7620   -1.0810 O.2       1 1QS        -0.1653
     26 C23        15.4790    5.2140   -2.6100 C.ar      1 1QS         0.0892
     27 C25        17.5680    4.0210   -2.3520 C.ar      1 1QS         0.1325
     28 C27        16.9370    4.9240   -4.4770 C.ar      1 1QS         0.1325
     29 F29        17.1970    5.1280   -5.7810 F         1 1QS        -0.1844
     30 F30        18.4400    3.3460   -1.5620 F         1 1QS        -0.1844
     31 H          15.2283    8.3871   -2.3655 H         1 1QS         0.0618
     32 H          16.5194    9.9235   -0.9392 H         1 1QS         0.0558
     33 H          17.2250   10.6018    1.1413 H         1 1QS         0.0682
     34 H          18.2316    9.2191    1.6903 H         1 1QS         0.0682
     35 H          12.4163   12.2472    5.9733 H         1 1QS         0.0584
     36 H          16.6798    9.7998    8.3031 H         1 1QS         0.0795
     37 H          16.1827    4.3879   -0.7690 H         1 1QS         0.0588
     38 H          18.7544    3.8318   -4.1270 H         1 1QS         0.0590
     39 H          15.0705    5.9854   -4.5625 H         1 1QS         0.0588
     40 H          16.0830    7.2497    2.3492 H         1 1QS         0.0558
     41 H          14.7942    5.7122    0.9290 H         1 1QS         0.0618
     42 H          17.1811    9.3957    3.7924 H         1 1QS         0.1867
     43 H          13.3125   11.8540    3.7198 H         1 1QS         0.0663
     44 H          14.9061   10.6864   10.0392 H         1 1QS         0.0498
     45 H          16.7309    9.8876    5.4505 H         1 1QS         0.1310
@<TRIPOS>BOND
     1    1    2 ar 
     2   12    1 ar 
     3    2    3 ar 
     4    3    4 1  
     5   10    3 ar 
     6    4   13 1  
     7   17    5 2  
     8    5   18 1  
     9    6   20 2  
    10   21    6 1  
    11   26    7 ar 
    12    7   27 ar 
    13   27    8 ar 
    14   28    8 ar 
    15   26    9 ar 
    16    9   28 ar 
    17   11   10 ar 
    18   12   11 ar 
    19   23   12 1  
    20   13   14 am 
    21   14   15 2  
    22   14   16 1  
    23   16   17 1  
    24   16   22 2  
    25   18   19 2  
    26   21   18 1  
    27   19   20 1  
    28   22   21 1  
    29   23   24 2  
    30   23   25 2  
    31   23   26 1  
    32   27   30 1  
    33   28   29 1  
    34    1   31 1  
    35    2   32 1  
    36    4   33 1  
    37    4   34 1  
    38    5   35 1  
    39    6   36 1  
    40    7   37 1  
    41    8   38 1  
    42    9   39 1  
    43   10   40 1  
    44   11   41 1  
    45   13   42 1  
    46   17   43 1  
    47   20   44 1  
    48   22   45 1  
@<TRIPOS>SUBSTRUCTURE
     1 1QS         1

