### 
### Created by X-TOOL on Mon Sep 10 21:13:18 2018
### 

@<TRIPOS>MOLECULE
4o2a_ligand
   46    49     1     0     0
SMALL
GAST_HUCK


@<TRIPOS>ATOM
      1 C20        17.3360   63.5760   43.5860 C.3       1 2RR         0.1274
      2 C21        16.2280   64.2930   42.8700 C.2       1 2RR         0.1521
      3 O21        15.6810   65.2450   43.4220 O.2       1 2RR        -0.3823
      4 C25        15.4210   63.3270   38.8400 C.ar      1 2RR         0.0411
      5 C26        16.3340   62.5440   39.5650 C.ar      1 2RR        -0.0381
      6 C27        16.5950   62.8660   40.8850 C.ar      1 2RR        -0.0544
      7 C24        14.7710   64.4240   39.4270 C.ar      1 2RR        -0.0381
      8 C23        15.0410   64.7340   40.7480 C.ar      1 2RR        -0.0544
      9 C22        15.9540   63.9610   41.4840 C.ar      1 2RR         0.0216
     10 N28        15.1570   63.0070   37.5140 N.pl3     1 2RR        -0.3338
     11 C2         17.9730   65.1330   45.5060 C.2       1 2RR         0.1581
     12 C4         17.2870   63.9820   47.1960 C.ar      1 2RR         0.0301
     13 N1         17.3710   63.9880   45.0020 N.pl3     1 2RR        -0.2184
     14 C9         16.9290   63.2390   46.0830 C.ar      1 2RR         0.0859
     15 C5         16.9670   63.4800   48.4760 C.ar      1 2RR        -0.0620
     16 C8         16.2590   62.0050   46.1110 C.ar      1 2RR        -0.0396
     17 C6         16.3070   62.2650   48.5390 C.ar      1 2RR        -0.0766
     18 C7         15.9550   61.5320   47.3730 C.ar      1 2RR        -0.0748
     19 N3         17.9220   65.1320   46.8400 N.2       1 2RR        -0.3084
     20 C18        17.2590   70.2390   46.7180 C.1       1 2RR         0.0916
     21 C14        19.1870   67.3180   45.0160 C.2       1 2RR         0.1616
     22 N13        19.5640   67.9700   43.9500 N.2       1 2RR        -0.0957
     23 C10        18.5510   66.1390   44.6140 C.2       1 2RR         0.1726
     24 N11        18.5700   66.0800   43.3070 N.2       1 2RR        -0.0788
     25 N19        16.2780   70.1080   47.2880 N.1       1 2RR        -0.3035
     26 O12        19.1910   67.1970   42.8980 O.3       1 2RR        -0.0677
     27 N15        18.8640   67.9740   46.2160 N.pl3     1 2RR        -0.3113
     28 C16        19.5000   69.2920   46.3920 C.3       1 2RR         0.0468
     29 C17        18.5230   70.3970   45.9830 C.3       1 2RR         0.0917
     30 H          18.2968   63.8233   43.1108 H         1 2RR         0.0824
     31 H          17.1660   62.4909   43.5265 H         1 2RR         0.0824
     32 H          16.8271   61.6996   39.0972 H         1 2RR         0.0531
     33 H          17.2966   62.2707   41.4580 H         1 2RR         0.0639
     34 H          14.0686   65.0188   38.8543 H         1 2RR         0.0531
     35 H          14.5460   65.5768   41.2168 H         1 2RR         0.0639
     36 H          15.6289   62.2040   37.0742 H         1 2RR         0.1740
     37 H          14.4894   63.5728   36.9707 H         1 2RR         0.1740
     38 H          17.2283   64.0255   49.3756 H         1 2RR         0.0549
     39 H          15.9994   61.4634   45.2086 H         1 2RR         0.0545
     40 H          16.0498   61.8586   49.5105 H         1 2RR         0.0522
     41 H          15.4386   60.5845   47.4759 H         1 2RR         0.0542
     42 H          18.2314   67.5652   46.9186 H         1 2RR         0.1738
     43 H          20.4008   69.3498   45.7634 H         1 2RR         0.0528
     44 H          19.7802   69.4244   47.4474 H         1 2RR         0.0528
     45 H          18.9619   71.3780   46.2173 H         1 2RR         0.0575
     46 H          18.3282   70.3310   44.9024 H         1 2RR         0.0575
@<TRIPOS>BOND
     1    1    2 1  
     2   13    1 1  
     3    2    3 2  
     4    2    9 1  
     5    5    4 ar 
     6    7    4 ar 
     7    4   10 1  
     8    6    5 ar 
     9    9    6 ar 
    10    8    7 ar 
    11    9    8 ar 
    12   11   13 1  
    13   11   19 2  
    14   23   11 1  
    15   12   14 ar 
    16   12   15 ar 
    17   19   12 1  
    18   13   14 1  
    19   14   16 ar 
    20   15   17 ar 
    21   16   18 ar 
    22   17   18 ar 
    23   20   25 3  
    24   29   20 1  
    25   21   22 2  
    26   21   23 1  
    27   27   21 1  
    28   22   26 1  
    29   23   24 2  
    30   24   26 1  
    31   28   27 1  
    32   28   29 1  
    33    1   30 1  
    34    1   31 1  
    35    5   32 1  
    36    6   33 1  
    37    7   34 1  
    38    8   35 1  
    39   10   36 1  
    40   10   37 1  
    41   15   38 1  
    42   16   39 1  
    43   17   40 1  
    44   18   41 1  
    45   27   42 1  
    46   28   43 1  
    47   28   44 1  
    48   29   45 1  
    49   29   46 1  
@<TRIPOS>SUBSTRUCTURE
     1 2RR         1

