### 
### Created by X-TOOL on Mon Sep 10 21:13:18 2018
### 

@<TRIPOS>MOLECULE
4o2b_ligand
   54    56     1     0     0
SMALL
GAST_HUCK


@<TRIPOS>ATOM
      1 O4         15.6090   68.3360   45.7800 O.2       1 LOC        -0.3972
      2 C12        16.6760   68.7360   46.2130 C.2       1 LOC         0.1753
      3 C13        16.7660   69.5870   47.4470 C.3       1 LOC         0.0258
      4 N1         17.8340   68.4440   45.6230 N.am      1 LOC        -0.2705
      5 C11        17.9150   67.6000   44.4420 C.3       1 LOC         0.0828
      6 C14        17.7230   66.1490   44.7780 C.2       1 LOC        -0.0038
      7 C15        18.0400   65.7600   46.0240 C.2       1 LOC        -0.0143
      8 C10        19.2670   67.7930   43.7550 C.3       1 LOC        -0.0094
      9 C9         19.5200   66.7940   42.6240 C.3       1 LOC        -0.0226
     10 C8         18.2750   66.6600   41.7770 C.ar      1 LOC        -0.0580
     11 C7         18.2100   67.2280   40.5020 C.ar      1 LOC        -0.0473
     12 C5         17.0730   67.1230   39.6970 C.ar      1 LOC         0.1074
     13 C3         15.8720   66.3970   40.1810 C.ar      1 LOC         0.1422
     14 C1         15.8930   65.7740   41.5220 C.ar      1 LOC         0.1169
     15 O1         14.7990   65.1000   41.9890 O.3       1 LOC        -0.3270
     16 C2         13.8410   65.8010   42.7800 C.3       1 LOC         0.0572
     17 O2         14.7610   66.2850   39.3930 O.3       1 LOC        -0.3339
     18 C4         14.6110   65.1000   38.6160 C.3       1 LOC         0.0526
     19 O3         17.0410   67.6920   38.4480 O.3       1 LOC        -0.3280
     20 C6         18.2420   68.1330   37.8190 C.3       1 LOC         0.0570
     21 C22        17.1220   65.9150   42.3370 C.ar      1 LOC        -0.0006
     22 C21        17.2250   65.3020   43.7010 C.2       1 LOC        -0.0155
     23 C20        16.8700   64.0090   43.7750 C.2       1 LOC        -0.0540
     24 C19        16.8370   63.0840   44.9000 C.2       1 LOC        -0.0134
     25 C17        17.3080   63.2450   46.1400 C.2       1 LOC         0.1536
     26 C16        17.9760   64.4320   46.6640 C.2       1 LOC         0.1391
     27 O5         18.5190   64.3150   47.7500 O.2       1 LOC        -0.4348
     28 O6         17.1300   62.1310   47.0560 O.3       1 LOC        -0.3002
     29 C18        16.6020   60.8970   46.5810 C.3       1 LOC         0.0662
     30 H          17.8198   69.8286   47.6497 H         1 LOC         0.0467
     31 H          16.3445   69.0385   48.3023 H         1 LOC         0.0467
     32 H          16.1997   70.5173   47.2930 H         1 LOC         0.0467
     33 H          18.6782   68.8189   46.0063 H         1 LOC         0.1885
     34 H          17.1187   67.9027   43.7461 H         1 LOC         0.0753
     35 H          18.4051   66.5576   46.6693 H         1 LOC         0.0486
     36 H          20.0607   67.6765   44.5076 H         1 LOC         0.0335
     37 H          19.3042   68.8099   43.3372 H         1 LOC         0.0335
     38 H          19.7785   65.8143   43.0521 H         1 LOC         0.0413
     39 H          20.3512   67.1519   41.9987 H         1 LOC         0.0413
     40 H          19.0707   67.7683   40.1248 H         1 LOC         0.0376
     41 H          13.0319   65.1144   43.0697 H         1 LOC         0.0575
     42 H          13.4231   66.6346   42.1965 H         1 LOC         0.0575
     43 H          14.3292   66.1945   43.6838 H         1 LOC         0.0575
     44 H          13.6762   65.1558   38.0390 H         1 LOC         0.0565
     45 H          14.5785   64.2259   39.2829 H         1 LOC         0.0565
     46 H          15.4624   65.0036   37.9262 H         1 LOC         0.0565
     47 H          18.0048   68.5559   36.8316 H         1 LOC         0.0574
     48 H          18.9268   67.2807   37.6979 H         1 LOC         0.0574
     49 H          18.7210   68.9026   38.4420 H         1 LOC         0.0574
     50 H          16.5509   63.5760   42.8281 H         1 LOC         0.0649
     51 H          16.3607   62.1249   44.7022 H         1 LOC         0.0579
     52 H          16.5412   60.1798   47.4128 H         1 LOC         0.0593
     53 H          17.2600   60.4942   45.7970 H         1 LOC         0.0593
     54 H          15.5969   61.0636   46.1663 H         1 LOC         0.0593
@<TRIPOS>BOND
     1    1    2 2  
     2    2    3 1  
     3    2    4 am 
     4    4    5 1  
     5    5    6 1  
     6    5    8 1  
     7    6    7 2  
     8    6   22 1  
     9    7   26 1  
    10    8    9 1  
    11    9   10 1  
    12   10   11 ar 
    13   10   21 ar 
    14   11   12 ar 
    15   12   13 ar 
    16   12   19 1  
    17   13   14 ar 
    18   13   17 1  
    19   14   15 1  
    20   14   21 ar 
    21   15   16 1  
    22   17   18 1  
    23   19   20 1  
    24   21   22 1  
    25   22   23 2  
    26   23   24 1  
    27   24   25 2  
    28   25   26 1  
    29   25   28 1  
    30   26   27 2  
    31   28   29 1  
    32    3   30 1  
    33    3   31 1  
    34    3   32 1  
    35    4   33 1  
    36    5   34 1  
    37    7   35 1  
    38    8   36 1  
    39    8   37 1  
    40    9   38 1  
    41    9   39 1  
    42   11   40 1  
    43   16   41 1  
    44   16   42 1  
    45   16   43 1  
    46   18   44 1  
    47   18   45 1  
    48   18   46 1  
    49   20   47 1  
    50   20   48 1  
    51   20   49 1  
    52   23   50 1  
    53   24   51 1  
    54   29   52 1  
    55   29   53 1  
    56   29   54 1  
@<TRIPOS>SUBSTRUCTURE
     1 LOC         1

