### 
### Created by X-TOOL on Mon Sep 10 21:13:17 2018
### 

@<TRIPOS>MOLECULE
4o2c_ligand
  135   135     1     0     0
SMALL
GAST_HUCK


@<TRIPOS>ATOM
      1 C          10.3350   12.9590   40.7590 C.2       1 ACE         0.1752
      2 O          10.2570   14.1800   40.8770 O.2       1 ACE        -0.3972
      3 CH3         9.8460   12.0000   41.8040 C.3       1 ACE         0.0258
      4 N          10.8920   12.2870   39.7560 N.am      1 SER        -0.2637
      5 CA         11.2660   12.9850   38.5290 C.3       1 SER         0.1538
      6 C          10.0520   13.1530   37.6160 C.2       1 SER         0.2063
      7 O           9.8650   14.2070   37.0030 O.2       1 SER        -0.3943
      8 CB         12.3840   12.2330   37.8050 C.3       1 SER         0.0843
      9 OG         12.9030   13.0010   36.7340 O.3       1 SER        -0.3903
     10 N           9.2370   12.1030   37.5270 N.am      1 HIS        -0.2624
     11 CA          7.9620   12.1660   36.8230 C.3       1 HIS         0.1369
     12 C           7.0400   13.1490   37.5300 C.2       1 HIS         0.2054
     13 O           7.1710   13.3750   38.7310 O.2       1 HIS        -0.3942
     14 CB          7.2830   10.7940   36.8210 C.3       1 HIS         0.0145
     15 CG          7.9130    9.7960   35.8970 C.2       1 HIS        -0.0027
     16 ND1         9.0740    9.1260   36.2040 N.2       1 HIS        -0.3252
     17 CD2         7.5170    9.3360   34.6860 C.2       1 HIS         0.0291
     18 CE1         9.3790    8.3030   35.2130 C.2       1 HIS         0.0907
     19 NE2         8.4500    8.4100   34.2830 N.pl3     1 HIS        -0.2752
     20 N           6.0950   13.7230   36.7930 N.am      1 VAL        -0.2634
     21 CA          5.0970   14.5840   37.4160 C.3       1 VAL         0.1333
     22 C           4.1680   13.7390   38.2860 C.2       1 VAL         0.2041
     23 O           3.7890   12.6310   37.9080 O.2       1 VAL        -0.3944
     24 CB          4.2830   15.3830   36.3730 C.3       1 VAL        -0.0063
     25 CG1         3.5140   14.4490   35.4510 C.3       1 VAL        -0.0584
     26 CG2         3.3380   16.3540   37.0690 C.3       1 VAL        -0.0584
     27 N           3.8130   14.2600   39.4560 N.am      1 ALA        -0.2640
     28 CA          2.9870   13.5170   40.4040 C.3       1 ALA         0.1282
     29 C           1.5470   14.0230   40.4260 C.2       1 ALA         0.2036
     30 O           0.8450   13.8840   41.4280 O.2       1 ALA        -0.3944
     31 CB          3.5960   13.5750   41.7990 C.3       1 ALA        -0.0244
     32 N           1.1130   14.6100   39.3160 N.am      1 VAL        -0.2635
     33 CA         -0.2550   15.1010   39.1980 C.3       1 VAL         0.1332
     34 C          -1.1330   14.0450   38.5350 C.2       1 VAL         0.2042
     35 O          -0.8990   13.6580   37.3890 O.2       1 VAL        -0.3944
     36 CB         -0.3190   16.4190   38.4050 C.3       1 VAL        -0.0063
     37 CG1        -1.7490   16.9270   38.3390 C.3       1 VAL        -0.0584
     38 CG2         0.5880   17.4630   39.0420 C.3       1 VAL        -0.0584
     39 N          -2.1410   13.5840   39.2670 N.am      1 GLU        -0.2636
     40 CA         -2.9750   12.4700   38.8320 C.3       1 GLU         0.1325
     41 C          -4.3680   12.9350   38.4220 C.2       1 GLU         0.2041
     42 O          -5.2100   13.2260   39.2740 O.2       1 GLU        -0.3944
     43 CB         -3.0740   11.4330   39.9560 C.3       1 GLU        -0.0008
     44 CG         -4.1520   10.3770   39.7750 C.3       1 GLU         0.0044
     45 CD         -4.2770    9.4700   40.9870 C.2       1 GLU         0.0350
     46 OE1        -5.1440    8.5700   40.9790 O.co2     1 GLU        -0.5690
     47 OE2        -3.5040    9.6590   41.9490 O.co2     1 GLU        -0.5690
     48 N          -4.6050   13.0070   37.1150 N.am      1 ASN        -0.2616
     49 CA         -5.9080   13.4060   36.5920 C.3       1 ASN         0.1476
     50 C          -6.2410   12.7160   35.2740 C.2       1 ASN         0.2062
     51 O          -5.5960   12.9600   34.2570 O.2       1 ASN        -0.3942
     52 CB         -5.9730   14.9240   36.4100 C.3       1 ASN         0.0773
     53 CG         -5.9390   15.6710   37.7280 C.2       1 ASN         0.1780
     54 OD1        -6.9590   15.8080   38.4050 O.2       1 ASN        -0.3970
     55 ND2        -4.7640   16.1620   38.0980 N.am      1 ASN        -0.3007
     56 N          -7.2550   11.8590   35.2930 N.am      1 ALA        -0.2639
     57 CA         -7.6540   11.1420   34.0870 C.3       1 ALA         0.1282
     58 C          -8.2670   12.0980   33.0710 C.2       1 ALA         0.2031
     59 O          -8.8840   13.0950   33.4420 O.2       1 ALA        -0.3944
     60 CB         -8.6330   10.0310   34.4320 C.3       1 ALA        -0.0244
     61 N          -8.0880   11.7950   31.7890 N.am      1 LEU        -0.2695
     62 CA         -8.7260   12.5660   30.7290 C.3       1 LEU         0.0946
     63 C         -10.2440   12.4350   30.8180 C.2       1 LEU         0.0601
     64 O         -10.9930   13.2080   30.2180 O.co2     1 LEU        -0.5666
     65 CB         -8.2260   12.1180   29.3510 C.3       1 LEU        -0.0156
     66 CG         -6.8610   12.6600   28.9080 C.3       1 LEU        -0.0431
     67 CD1        -5.7410   12.1600   29.8190 C.3       1 LEU        -0.0625
     68 CD2        -6.5810   12.2810   27.4630 C.3       1 LEU        -0.0625
     69 OXT       -10.7580   11.5470   31.5030 O.co2     1 LEU        -0.5666
     70 H          10.0263   10.9682   41.4679 H         1 ACE         0.0467
     71 H           8.7682   12.1504   41.9641 H         1 ACE         0.0467
     72 H          10.3851   12.1781   42.7462 H         1 ACE         0.0467
     73 H          11.0547   11.3041   39.8418 H         1 SER         0.1883
     74 H          11.6382   13.9845   38.7981 H         1 SER         0.0823
     75 H          11.9838   11.2881   37.4088 H         1 SER         0.0606
     76 H          13.1932   12.0180   38.5184 H         1 SER         0.0606
     77 H          13.5940   12.5131   36.3017 H         1 SER         0.2097
     78 H           9.5090   11.2425   37.9577 H         1 HIS         0.1885
     79 H           8.1335   12.4945   35.7873 H         1 HIS         0.0817
     80 H           6.2340   10.9291   36.5188 H         1 HIS         0.0420
     81 H           7.3210   10.3892   37.8431 H         1 HIS         0.0420
     82 H           6.6282    9.6417   34.1360 H         1 HIS         0.0729
     83 H          10.2488    7.6490   35.1726 H         1 HIS         0.1199
     84 H           8.4271    7.8845   33.3974 H         1 HIS         0.2361
     85 H           6.0682   13.5636   35.8061 H         1 VAL         0.1883
     86 H           5.6206   15.3043   38.0617 H         1 VAL         0.0802
     87 H           4.9866   15.9660   35.7606 H         1 VAL         0.0343
     88 H           2.9446   15.0421   34.7202 H         1 VAL         0.0234
     89 H           2.8207   13.8359   36.0454 H         1 VAL         0.0234
     90 H           4.2205   13.7937   34.9206 H         1 VAL         0.0234
     91 H           3.9154   17.0180   37.7291 H         1 VAL         0.0234
     92 H           2.6065   15.7895   37.6658 H         1 VAL         0.0234
     93 H           2.8098   16.9558   36.3148 H         1 VAL         0.0234
     94 H           4.1186   15.1823   39.6928 H         1 ALA         0.1883
     95 H           2.9688   12.4652   40.0825 H         1 ALA         0.0797
     96 H           2.9623   13.0113   42.4994 H         1 ALA         0.0277
     97 H           3.6625   14.6229   42.1268 H         1 ALA         0.0277
     98 H           4.6029   13.1327   41.7782 H         1 ALA         0.0277
     99 H           1.7389   14.7176   38.5436 H         1 VAL         0.1883
    100 H          -0.6409   15.2905   40.2105 H         1 VAL         0.0802
    101 H           0.0323   16.2288   37.3801 H         1 VAL         0.0343
    102 H          -1.7779   17.8680   37.7700 H         1 VAL         0.0234
    103 H          -2.1229   17.1033   39.3583 H         1 VAL         0.0234
    104 H          -2.3817   16.1777   37.8408 H         1 VAL         0.0234
    105 H           1.6180   17.0788   39.0816 H         1 VAL         0.0234
    106 H           0.2380   17.6794   40.0621 H         1 VAL         0.0234
    107 H           0.5634   18.3850   38.4425 H         1 VAL         0.0234
    108 H          -2.3347   14.0163   40.1477 H         1 GLU         0.1883
    109 H          -2.4979   11.9996   37.9596 H         1 GLU         0.0801
    110 H          -3.2777   11.9685   40.8950 H         1 GLU         0.0330
    111 H          -2.1043   10.9189   40.0300 H         1 GLU         0.0330
    112 H          -3.9022    9.7627   38.8974 H         1 GLU         0.0433
    113 H          -5.1160   10.8799   39.6082 H         1 GLU         0.0433
    114 H          -3.8712   12.7819   36.4740 H         1 ASN         0.1885
    115 H          -6.6698   13.1135   37.3297 H         1 ASN         0.0826
    116 H          -6.9067   15.1764   35.8861 H         1 ASN         0.0551
    117 H          -5.1136   15.2431   35.8020 H         1 ASN         0.0551
    118 H          -4.6807   16.6645   38.9586 H         1 ASN         0.1814
    119 H          -3.9613   16.0298   37.5165 H         1 ASN         0.1814
    120 H          -7.7523   11.7029   36.1464 H         1 ALA         0.1883
    121 H          -6.7572   10.6888   33.6395 H         1 ALA         0.0797
    122 H          -8.9240    9.5004   33.5134 H         1 ALA         0.0277
    123 H          -9.5272   10.4638   34.9043 H         1 ALA         0.0277
    124 H          -8.1561    9.3250   35.1278 H         1 ALA         0.0277
    125 H          -7.5028   11.0212   31.5465 H         1 LEU         0.1875
    126 H          -8.4609   13.6250   30.8643 H         1 LEU         0.0726
    127 H          -8.9698   12.4367   28.6059 H         1 LEU         0.0308
    128 H          -8.1626   11.0199   29.3594 H         1 LEU         0.0308
    129 H          -6.8915   13.7575   28.9761 H         1 LEU         0.0297
    130 H          -4.7788   12.5663   29.4740 H         1 LEU         0.0232
    131 H          -5.7068   11.0610   29.7888 H         1 LEU         0.0232
    132 H          -5.9309   12.4928   30.8501 H         1 LEU         0.0232
    133 H          -7.3966   12.6486   26.8229 H         1 LEU         0.0232
    134 H          -6.5129   11.1865   27.3776 H         1 LEU         0.0232
    135 H          -5.6310   12.7337   27.1426 H         1 LEU         0.0232
@<TRIPOS>BOND
     1    1    2 2  
     2    1    3 1  
     3    1    4 am 
     4    4    5 1  
     5    5    6 1  
     6    5    8 1  
     7    6    7 2  
     8    6   10 am 
     9    8    9 1  
    10   10   11 1  
    11   11   12 1  
    12   11   14 1  
    13   12   13 2  
    14   12   20 am 
    15   14   15 1  
    16   15   16 1  
    17   15   17 2  
    18   16   18 2  
    19   17   19 1  
    20   18   19 1  
    21   20   21 1  
    22   21   22 1  
    23   21   24 1  
    24   22   23 2  
    25   22   27 am 
    26   24   25 1  
    27   24   26 1  
    28   27   28 1  
    29   28   29 1  
    30   28   31 1  
    31   29   30 2  
    32   29   32 am 
    33   32   33 1  
    34   33   34 1  
    35   33   36 1  
    36   34   35 2  
    37   34   39 am 
    38   36   37 1  
    39   36   38 1  
    40   39   40 1  
    41   40   41 1  
    42   40   43 1  
    43   41   42 2  
    44   41   48 am 
    45   43   44 1  
    46   44   45 1  
    47   45   46 ar 
    48   45   47 ar 
    49   48   49 1  
    50   49   50 1  
    51   49   52 1  
    52   50   51 2  
    53   50   56 am 
    54   52   53 1  
    55   53   54 2  
    56   53   55 am 
    57   56   57 1  
    58   57   58 1  
    59   57   60 1  
    60   58   59 2  
    61   58   61 am 
    62   61   62 1  
    63   62   63 1  
    64   62   65 1  
    65   63   64 ar 
    66   63   69 ar 
    67   65   66 1  
    68   66   67 1  
    69   66   68 1  
    70    3   70 1  
    71    3   71 1  
    72    3   72 1  
    73    4   73 1  
    74    5   74 1  
    75    8   75 1  
    76    8   76 1  
    77    9   77 1  
    78   10   78 1  
    79   11   79 1  
    80   14   80 1  
    81   14   81 1  
    82   17   82 1  
    83   18   83 1  
    84   19   84 1  
    85   20   85 1  
    86   21   86 1  
    87   24   87 1  
    88   25   88 1  
    89   25   89 1  
    90   25   90 1  
    91   26   91 1  
    92   26   92 1  
    93   26   93 1  
    94   27   94 1  
    95   28   95 1  
    96   31   96 1  
    97   31   97 1  
    98   31   98 1  
    99   32   99 1  
   100   33  100 1  
   101   36  101 1  
   102   37  102 1  
   103   37  103 1  
   104   37  104 1  
   105   38  105 1  
   106   38  106 1  
   107   38  107 1  
   108   39  108 1  
   109   40  109 1  
   110   43  110 1  
   111   43  111 1  
   112   44  112 1  
   113   44  113 1  
   114   48  114 1  
   115   49  115 1  
   116   52  116 1  
   117   52  117 1  
   118   55  118 1  
   119   55  119 1  
   120   56  120 1  
   121   57  121 1  
   122   60  122 1  
   123   60  123 1  
   124   60  124 1  
   125   61  125 1  
   126   62  126 1  
   127   65  127 1  
   128   65  128 1  
   129   66  129 1  
   130   67  130 1  
   131   67  131 1  
   132   67  132 1  
   133   68  133 1  
   134   68  134 1  
   135   68  135 1  
@<TRIPOS>SUBSTRUCTURE
     1 ACE         1

