### 
### Created by X-TOOL on Mon Sep 10 21:13:24 2018
### 

@<TRIPOS>MOLECULE
4o2p_ligand
   62    66     1     0     0
SMALL
GAST_HUCK


@<TRIPOS>ATOM
      1 CAP        -5.1030    9.5380   27.5620 C.3       1 11V        -0.0078
      2 CAM        -4.7090   10.9840   27.3360 C.3       1 11V         0.0878
      3 OAX        -5.4680   11.5200   26.2250 O.3       1 11V        -0.3693
      4 CAN        -6.9200   11.4190   26.3500 C.3       1 11V         0.0878
      5 CAQ        -7.3240    9.9720   26.6470 C.3       1 11V        -0.0078
      6 NBG        -6.5550    9.4610   27.7970 N.4       1 11V         0.2392
      7 CAR        -6.9410    8.1010   28.1690 C.3       1 11V        -0.0197
      8 CAO        -6.6820    7.9350   29.6610 C.3       1 11V         0.0530
      9 SAY        -7.5370    6.4990   30.3900 S.3       1 11V        -0.0587
     10 C2         -6.1950    5.5580   30.8350 C.ar      1 11V         0.1329
     11 N1         -6.3550    4.6670   31.8150 N.ar      1 11V        -0.2505
     12 C6         -5.3230    3.9030   32.1910 C.ar      1 11V         0.1435
     13 NAW        -5.4740    3.0100   33.1730 N.pl3     1 11V        -0.2520
     14 CAZ        -6.4630    3.2170   34.0670 C.ar      1 11V         0.0665
     15 CAH        -7.7690    2.7900   33.8000 C.ar      1 11V        -0.0374
     16 CAD        -8.7800    2.9970   34.7410 C.ar      1 11V        -0.0710
     17 CAB        -8.4910    3.6240   35.9580 C.ar      1 11V        -0.0730
     18 CAE        -7.1890    4.0450   36.2390 C.ar      1 11V        -0.0710
     19 CAI        -6.1860    3.8490   35.2880 C.ar      1 11V        -0.0374
     20 N3         -5.0040    5.6900   30.2270 N.ar      1 11V        -0.2599
     21 C4         -3.9680    4.9180   30.6090 C.ar      1 11V         0.1541
     22 C5         -4.1240    4.0140   31.5920 C.ar      1 11V         0.0770
     23 CAL        -2.9490    3.3970   31.7370 C.2       1 11V         0.0260
     24 NAT        -2.0840    3.9280   30.8590 N.2       1 11V        -0.2049
     25 NBH        -2.7060    4.8450   30.1680 N.pl3     1 11V        -0.1842
     26 CAS        -2.1650    5.7160   29.0640 C.3       1 11V         0.0947
     27 CBF        -1.1550    6.7350   29.6310 C.3       1 11V         0.0957
     28 CLA        -1.9080    7.6260   31.0310 Cl        1 11V        -0.1029
     29 CBA        -0.6750    7.6250   28.6480 C.ar      1 11V        -0.0227
     30 CAJ         0.6660    7.5530   28.2690 C.ar      1 11V        -0.0588
     31 CAF         1.1910    8.4130   27.3030 C.ar      1 11V        -0.0685
     32 CAC         0.3690    9.3590   26.7010 C.ar      1 11V        -0.0687
     33 CAG        -0.9750    9.4430   27.0760 C.ar      1 11V        -0.0685
     34 CAK        -1.5000    8.5800   28.0430 C.ar      1 11V        -0.0588
     35 H1         -4.5674    9.1437   28.4382 H         1 11V         0.0837
     36 H2         -4.8423    8.9429   26.6744 H         1 11V         0.0837
     37 H3         -3.6344   11.0405   27.1078 H         1 11V         0.0613
     38 H4         -4.9226   11.5689   28.2428 H         1 11V         0.0613
     39 H5         -7.3894   11.7418   25.4090 H         1 11V         0.0613
     40 H6         -7.2604   12.0674   27.1708 H         1 11V         0.0613
     41 H7         -7.1186    9.3478   25.7649 H         1 11V         0.0837
     42 H8         -8.3981    9.9341   26.8810 H         1 11V         0.0837
     43 H9         -6.7660   10.0575   28.5817 H         1 11V         0.2035
     44 H10        -6.3416    7.3736   27.6020 H         1 11V         0.0825
     45 H11        -8.0083    7.9431   27.9547 H         1 11V         0.0825
     46 H12        -7.0247    8.8437   30.1775 H         1 11V         0.0462
     47 H13        -5.5999    7.8115   29.8153 H         1 11V         0.0462
     48 H14        -4.8552    2.1898   33.2453 H         1 11V         0.2197
     49 H15        -7.9961    2.2978   32.8612 H         1 11V         0.0540
     50 H16        -9.7916    2.6709   34.5279 H         1 11V         0.0588
     51 H17        -9.2794    3.7835   36.6846 H         1 11V         0.0522
     52 H18        -6.9597    4.5193   37.1864 H         1 11V         0.0588
     53 H19        -5.1784    4.1902   35.4963 H         1 11V         0.0540
     54 H20        -2.7301    2.5998   32.4459 H         1 11V         0.0727
     55 H21        -2.9965    6.2561   28.5876 H         1 11V         0.0658
     56 H22        -1.6622    5.0843   28.3169 H         1 11V         0.0658
     57 H23        -0.2907    6.1723   30.0135 H         1 11V         0.0656
     58 H24         1.3115    6.8161   28.7330 H         1 11V         0.0557
     59 H25         2.2360    8.3435   27.0232 H         1 11V         0.0599
     60 H26         0.7676   10.0269   25.9460 H         1 11V         0.0559
     61 H27        -1.6163   10.1841   26.6128 H         1 11V         0.0599
     62 H28        -2.5447    8.6506   28.3236 H         1 11V         0.0557
@<TRIPOS>BOND
     1    1    2 1  
     2    1    6 1  
     3    2    3 1  
     4    3    4 1  
     5    4    5 1  
     6    5    6 1  
     7    6    7 1  
     8    7    8 1  
     9    8    9 1  
    10    9   10 1  
    11   10   11 ar 
    12   10   20 ar 
    13   11   12 ar 
    14   12   13 1  
    15   12   22 ar 
    16   13   14 1  
    17   14   15 ar 
    18   14   19 ar 
    19   15   16 ar 
    20   16   17 ar 
    21   17   18 ar 
    22   18   19 ar 
    23   20   21 ar 
    24   21   22 ar 
    25   21   25 1  
    26   22   23 1  
    27   23   24 2  
    28   24   25 1  
    29   25   26 1  
    30   26   27 1  
    31   27   28 1  
    32   27   29 1  
    33   29   30 ar 
    34   29   34 ar 
    35   30   31 ar 
    36   31   32 ar 
    37   32   33 ar 
    38   33   34 ar 
    39    1   35 1  
    40    1   36 1  
    41    2   37 1  
    42    2   38 1  
    43    4   39 1  
    44    4   40 1  
    45    5   41 1  
    46    5   42 1  
    47    6   43 1  
    48    7   44 1  
    49    7   45 1  
    50    8   46 1  
    51    8   47 1  
    52   13   48 1  
    53   15   49 1  
    54   16   50 1  
    55   17   51 1  
    56   18   52 1  
    57   19   53 1  
    58   23   54 1  
    59   26   55 1  
    60   26   56 1  
    61   27   57 1  
    62   30   58 1  
    63   31   59 1  
    64   32   60 1  
    65   33   61 1  
    66   34   62 1  
@<TRIPOS>SUBSTRUCTURE
     1 11V         1

