### 
### Created by X-TOOL on Mon Sep 10 21:13:16 2018
### 

@<TRIPOS>MOLECULE
4o3a_ligand
   15    14     1     0     0
SMALL
GAST_HUCK


@<TRIPOS>ATOM
      1 N         -50.7870   12.4060   -5.6400 N.4       1 ASP         0.2339
      2 CA        -51.5860   13.6230   -5.8390 C.3       1 ASP         0.0398
      3 C         -51.7550   13.9450   -7.3210 C.2       1 ASP         0.0862
      4 O         -51.5000   13.0550   -8.1420 O.co2     1 ASP        -0.5642
      5 CB        -51.0070   14.8220   -5.0700 C.3       1 ASP         0.0552
      6 CG        -52.0470   15.4500   -4.1090 C.2       1 ASP         0.0419
      7 OD1       -52.8200   16.3040   -4.5630 O.co2     1 ASP        -0.5687
      8 OD2       -52.1230   15.0850   -2.9100 O.co2     1 ASP        -0.5687
      9 OXT       -52.1770   15.0610   -7.6920 O.co2     1 ASP        -0.5642
     10 H         -50.6948   12.2223   -4.6532 H         1 ASP         0.2011
     11 H         -49.8728   12.5343   -6.0447 H         1 ASP         0.2011
     12 H         -51.2453   11.6265   -6.0855 H         1 ASP         0.2011
     13 H         -52.5878   13.4256   -5.4298 H         1 ASP         0.1043
     14 H         -50.6845   15.5858   -5.7929 H         1 ASP         0.0505
     15 H         -50.1403   14.4831   -4.4835 H         1 ASP         0.0505
@<TRIPOS>BOND
     1    1    2 1  
     2    2    3 1  
     3    2    5 1  
     4    3    4 ar 
     5    3    9 ar 
     6    5    6 1  
     7    6    7 ar 
     8    6    8 ar 
     9    1   10 1  
    10    1   11 1  
    11    1   12 1  
    12    2   13 1  
    13    5   14 1  
    14    5   15 1  
@<TRIPOS>SUBSTRUCTURE
     1 ASP         1

