### 
### Created by X-TOOL on Mon Sep 10 21:13:16 2018
### 

@<TRIPOS>MOLECULE
4o3b_ligand
   18    17     1     0     0
SMALL
GAST_HUCK


@<TRIPOS>ATOM
      1 N           8.5400  103.9930   25.0710 N.4       1 GLU         0.2328
      2 CA          9.0540  105.3580   25.1980 C.3       1 GLU         0.0298
      3 C           9.3360  105.7030   26.6380 C.2       1 GLU         0.0845
      4 O           9.5480  106.8820   26.9440 O.co2     1 GLU        -0.5643
      5 CB          8.0290  106.3550   24.6730 C.3       1 GLU         0.0139
      6 CG          8.0940  106.5740   23.2570 C.3       1 GLU         0.0069
      7 CD          9.3100  107.3300   22.8530 C.2       1 GLU         0.0351
      8 OE1         9.6440  107.1540   21.6720 O.co2     1 GLU        -0.5690
      9 OE2         9.8750  108.1250   23.6750 O.co2     1 GLU        -0.5690
     10 OXT         9.3060  104.8150   27.5040 O.co2     1 GLU        -0.5643
     11 H           8.3609  103.7904   24.0999 H         1 GLU         0.2010
     12 H           7.6838  103.9062   25.5958 H         1 GLU         0.2010
     13 H           9.2214  103.3426   25.4297 H         1 GLU         0.2010
     14 H           9.9827  105.4438   24.6148 H         1 GLU         0.1025
     15 H           8.1936  107.3178   25.1789 H         1 GLU         0.0356
     16 H           7.0248  105.9789   24.9182 H         1 GLU         0.0356
     17 H           7.2054  107.1433   22.9469 H         1 GLU         0.0433
     18 H           8.1002  105.5984   22.7490 H         1 GLU         0.0433
@<TRIPOS>BOND
     1    1    2 1  
     2    2    3 1  
     3    2    5 1  
     4    3    4 ar 
     5    3   10 ar 
     6    5    6 1  
     7    6    7 1  
     8    7    8 ar 
     9    7    9 ar 
    10    1   11 1  
    11    1   12 1  
    12    1   13 1  
    13    2   14 1  
    14    5   15 1  
    15    5   16 1  
    16    6   17 1  
    17    6   18 1  
@<TRIPOS>SUBSTRUCTURE
     1 GLU         1

