### 
### Created by X-TOOL on Mon Sep 10 21:13:16 2018
### 

@<TRIPOS>MOLECULE
4o3c_ligand
   15    14     1     0     0
SMALL
GAST_HUCK


@<TRIPOS>ATOM
      1 N         -13.6050    2.6420  -16.2500 N.4       1 ASP         0.2339
      2 CA        -14.5390    1.5110  -16.4460 C.3       1 ASP         0.0398
      3 C         -14.7960    1.2870  -17.9190 C.2       1 ASP         0.0862
      4 O         -13.9990    1.7780  -18.7350 O.co2     1 ASP        -0.5642
      5 CB        -15.8510    1.7070  -15.6690 C.3       1 ASP         0.0552
      6 CG        -16.1740    0.4870  -14.7880 C.2       1 ASP         0.0419
      7 OD1       -16.8230   -0.4410  -15.2970 O.co2     1 ASP        -0.5687
      8 OD2       -15.7420    0.4380  -13.6050 O.co2     1 ASP        -0.5687
      9 OXT       -15.7760    0.6060  -18.2970 O.co2     1 ASP        -0.5642
     10 H         -13.4443    2.7781  -15.2642 H         1 ASP         0.2011
     11 H         -14.0041    3.4795  -16.6441 H         1 ASP         0.2011
     12 H         -12.7304    2.4388  -16.7081 H         1 ASP         0.2011
     13 H         -14.0541    0.6066  -16.0498 H         1 ASP         0.1043
     14 H         -16.6717    1.8572  -16.3859 H         1 ASP         0.0505
     15 H         -15.7570    2.5958  -15.0277 H         1 ASP         0.0505
@<TRIPOS>BOND
     1    1    2 1  
     2    2    3 1  
     3    2    5 1  
     4    3    4 ar 
     5    3    9 ar 
     6    5    6 1  
     7    6    7 ar 
     8    6    8 ar 
     9    1   10 1  
    10    1   11 1  
    11    1   12 1  
    12    2   13 1  
    13    5   14 1  
    14    5   15 1  
@<TRIPOS>SUBSTRUCTURE
     1 ASP         1

