### 
### Created by X-TOOL on Mon Sep 10 21:13:18 2018
### 

@<TRIPOS>MOLECULE
4o3f_ligand
   53    56     1     0     0
SMALL
GAST_HUCK


@<TRIPOS>ATOM
      1 CAO       -21.7650   -1.4380  -24.6600 C.3       1 TZN        -0.0070
      2 CAQ       -22.5960   -0.6010  -25.5600 C.3       1 TZN        -0.0248
      3 CAR       -21.7630   -0.6800  -26.7710 C.3       1 TZN         0.0513
      4 OAA       -21.6180   -2.0740  -26.8470 O.3       1 TZN        -0.3563
      5 CAJ       -21.1410   -2.4090  -25.5980 C.3       1 TZN         0.1472
      6 CAP       -19.6590   -2.4220  -25.6520 C.2       1 TZN         0.2078
      7 OAB       -19.0320   -1.5580  -25.1140 O.2       1 TZN        -0.3940
      8 NAE       -18.9850   -3.5020  -26.3660 N.am      1 TZN        -0.2671
      9 CAL       -17.5960   -3.5710  -26.4180 C.3       1 TZN         0.0546
     10 CAN       -17.2110   -4.9920  -26.0930 C.3       1 TZN         0.0535
     11 CAK       -19.7200   -4.5550  -26.9790 C.3       1 TZN         0.0546
     12 CAM       -18.8390   -5.4570  -27.8070 C.3       1 TZN         0.0535
     13 NAF       -17.6990   -5.8650  -27.0790 N.pl3     1 TZN        -0.2784
     14 C2        -17.1010   -7.1490  -27.2130 C.ar      1 TZN         0.1560
     15 N3        -16.0960   -7.2810  -26.5060 N.ar      1 TZN        -0.2473
     16 N1        -17.5630   -8.0200  -27.9890 N.ar      1 TZN        -0.3043
     17 C6        -17.0170   -9.2190  -28.1000 C.ar      1 TZN         0.0078
     18 CAW       -17.5080  -10.1830  -28.9320 C.ar      1 TZN        -0.0244
     19 CAY       -16.8520  -11.4050  -29.0070 C.ar      1 TZN         0.1276
     20 OAC       -17.2040  -12.4960  -29.7550 O.3       1 TZN        -0.3173
     21 CBA       -18.3120  -12.4230  -30.5330 C.3       1 TZN         0.0599
     22 CAZ       -15.7380  -11.6350  -28.2550 C.ar      1 TZN         0.1272
     23 OAD       -15.2410  -12.8610  -28.4340 O.3       1 TZN        -0.3230
     24 CBB       -14.0080  -13.1100  -27.9690 C.3       1 TZN         0.0572
     25 CAX       -15.2370  -10.6930  -27.4210 C.ar      1 TZN        -0.0226
     26 C5        -15.8780   -9.4780  -27.3400 C.ar      1 TZN         0.0265
     27 C4        -15.4460   -8.3930  -26.5170 C.ar      1 TZN         0.1216
     28 NAI       -14.3210   -8.5590  -25.7110 N.pl3     1 TZN        -0.3110
     29 H         -22.3858   -1.9526  -23.9118 H         1 TZN         0.0316
     30 H         -21.0011   -0.8332  -24.1494 H         1 TZN         0.0316
     31 H         -22.6937    0.4309  -25.1919 H         1 TZN         0.0290
     32 H         -23.5964   -1.0304  -25.7175 H         1 TZN         0.0290
     33 H         -20.7964   -0.1713  -26.6407 H         1 TZN         0.0562
     34 H         -22.2772   -0.2701  -27.6528 H         1 TZN         0.0562
     35 H         -21.4769   -3.4201  -25.3244 H         1 TZN         0.0840
     36 H         -17.1560   -2.8829  -25.6812 H         1 TZN         0.0543
     37 H         -17.2423   -3.3051  -27.4250 H         1 TZN         0.0543
     38 H         -17.6379   -5.2701  -25.1181 H         1 TZN         0.0546
     39 H         -16.1147   -5.0703  -26.0490 H         1 TZN         0.0546
     40 H         -20.4904   -4.1169  -27.6305 H         1 TZN         0.0543
     41 H         -20.2022   -5.1549  -26.1931 H         1 TZN         0.0543
     42 H         -18.5147   -4.9143  -28.7071 H         1 TZN         0.0546
     43 H         -19.4136   -6.3472  -28.1026 H         1 TZN         0.0546
     44 H         -18.3962   -9.9978  -29.5251 H         1 TZN         0.0461
     45 H         -18.4510  -13.3766  -31.0634 H         1 TZN         0.0579
     46 H         -18.1933  -11.6104  -31.2648 H         1 TZN         0.0579
     47 H         -19.1906  -12.2229  -29.9021 H         1 TZN         0.0579
     48 H         -13.7371  -14.1532  -28.1886 H         1 TZN         0.0573
     49 H         -13.9864  -12.9468  -26.8814 H         1 TZN         0.0573
     50 H         -13.2892  -12.4343  -28.4556 H         1 TZN         0.0573
     51 H         -14.3503  -10.8918  -26.8300 H         1 TZN         0.0541
     52 H         -13.8052   -9.4504  -25.7240 H         1 TZN         0.1862
     53 H         -14.0055   -7.7902  -25.1024 H         1 TZN         0.1862
@<TRIPOS>BOND
     1    1    2 1  
     2    1    5 1  
     3    2    3 1  
     4    3    4 1  
     5    4    5 1  
     6    5    6 1  
     7    6    7 2  
     8    6    8 am 
     9    8    9 1  
    10    8   11 1  
    11    9   10 1  
    12   10   13 1  
    13   11   12 1  
    14   12   13 1  
    15   13   14 1  
    16   14   15 ar 
    17   14   16 ar 
    18   15   27 ar 
    19   16   17 ar 
    20   17   18 ar 
    21   17   26 ar 
    22   18   19 ar 
    23   19   20 1  
    24   19   22 ar 
    25   20   21 1  
    26   22   23 1  
    27   22   25 ar 
    28   23   24 1  
    29   25   26 ar 
    30   26   27 ar 
    31   27   28 1  
    32    1   29 1  
    33    1   30 1  
    34    2   31 1  
    35    2   32 1  
    36    3   33 1  
    37    3   34 1  
    38    5   35 1  
    39    9   36 1  
    40    9   37 1  
    41   10   38 1  
    42   10   39 1  
    43   11   40 1  
    44   11   41 1  
    45   12   42 1  
    46   12   43 1  
    47   18   44 1  
    48   21   45 1  
    49   21   46 1  
    50   21   47 1  
    51   24   48 1  
    52   24   49 1  
    53   24   50 1  
    54   25   51 1  
    55   28   52 1  
    56   28   53 1  
@<TRIPOS>SUBSTRUCTURE
     1 TZN         1

