### 
### Created by X-TOOL on Mon Sep 10 21:13:18 2018
### 

@<TRIPOS>MOLECULE
4o43_ligand
   34    35     1     0     0
SMALL
GAST_HUCK


@<TRIPOS>ATOM
      1 CAA        14.8800  456.2130   23.6550 C.3       1 2PW        -0.0626
      2 CAK        14.6500  455.4740   24.9740 C.3       1 2PW        -0.0265
      3 CAR        15.3640  456.1640   26.1510 C.3       1 2PW         0.0712
      4 CAB        16.8830  456.0670   25.9630 C.3       1 2PW        -0.0355
      5 NAS        14.8910  457.5740   26.4050 N.am      1 2PW        -0.1832
      6 CAO        15.2310  458.7580   25.8390 C.2       1 2PW         0.2533
      7 OAC        16.0620  458.7970   24.9370 O.2       1 2PW        -0.3717
      8 CAP        13.9730  457.7260   27.3630 C.2       1 2PW         0.1624
      9 SAE        13.3030  456.4560   28.3050 S.2       1 2PW        -0.2520
     10 SAL        13.5800  459.2690   27.5120 S.3       1 2PW         0.0232
     11 CAQ        14.5770  459.8320   26.3470 C.2       1 2PW         0.1177
     12 CAF        14.5700  461.1630   26.1140 C.2       1 2PW        -0.0349
     13 CAN        15.3180  461.9020   25.1810 C.ar      1 2PW        -0.0357
     14 CAI        15.0640  463.2700   25.1700 C.ar      1 2PW        -0.0627
     15 CAG        15.7260  464.1250   24.2970 C.ar      1 2PW        -0.0315
     16 CAM        16.6640  463.6160   23.4080 C.ar      1 2PW         0.0897
     17 OAD        17.3160  464.4470   22.5520 O.3       1 2PW        -0.3316
     18 CAH        16.9310  462.2540   23.4000 C.ar      1 2PW        -0.0315
     19 CAJ        16.2570  461.4140   24.2780 C.ar      1 2PW        -0.0627
     20 H          14.3542  455.6879   22.8440 H         1 2PW         0.0231
     21 H          15.9572  456.2429   23.4344 H         1 2PW         0.0231
     22 H          14.4940  457.2397   23.7378 H         1 2PW         0.0231
     23 H          15.0334  454.4475   24.8780 H         1 2PW         0.0290
     24 H          13.5701  455.4442   25.1814 H         1 2PW         0.0290
     25 H          15.1151  455.5895   27.0554 H         1 2PW         0.0633
     26 H          17.3890  456.5609   26.8056 H         1 2PW         0.0258
     27 H          17.1685  456.5617   25.0229 H         1 2PW         0.0258
     28 H          17.1810  455.0088   25.9257 H         1 2PW         0.0258
     29 H          13.8903  461.7441   26.7355 H         1 2PW         0.0584
     30 H          14.3328  463.6783   25.8583 H         1 2PW         0.0595
     31 H          15.5107  465.1873   24.3098 H         1 2PW         0.0550
     32 H          17.9174  463.9414   22.0180 H         1 2PW         0.2493
     33 H          17.6626  461.8471   22.7114 H         1 2PW         0.0550
     34 H          16.4683  460.3510   24.2588 H         1 2PW         0.0595
@<TRIPOS>BOND
     1    1    2 1  
     2    2    3 1  
     3    3    4 1  
     4    3    5 1  
     5    5    6 am 
     6    5    8 am 
     7    6    7 2  
     8    6   11 1  
     9    8    9 2  
    10    8   10 1  
    11   10   11 1  
    12   11   12 2  
    13   12   13 1  
    14   13   14 ar 
    15   13   19 ar 
    16   14   15 ar 
    17   15   16 ar 
    18   16   17 1  
    19   16   18 ar 
    20   18   19 ar 
    21    1   20 1  
    22    1   21 1  
    23    1   22 1  
    24    2   23 1  
    25    2   24 1  
    26    3   25 1  
    27    4   26 1  
    28    4   27 1  
    29    4   28 1  
    30   12   29 1  
    31   14   30 1  
    32   15   31 1  
    33   17   32 1  
    34   18   33 1  
    35   19   34 1  
@<TRIPOS>SUBSTRUCTURE
     1 2PW         1

