### 
### Created by X-TOOL on Mon Sep 10 21:13:17 2018
### 

@<TRIPOS>MOLECULE
4o45_ligand
   71    70     1     0     0
SMALL
GAST_HUCK


@<TRIPOS>ATOM
      1 N          10.9210  116.3680   -5.0630 N.4       1 ALA         0.2377
      2 CA         10.7790  115.8920   -3.6550 C.3       1 ALA         0.0621
      3 C          10.9070  114.3560   -3.5550 C.2       1 ALA         0.2264
      4 O          11.0320  113.6390   -4.5520 O.2       1 ALA        -0.3907
      5 CB          9.4400  116.3670   -3.0530 C.3       1 ALA        -0.0040
      6 N          10.8750  113.8710   -2.3280 N.am      1 ARG        -0.2610
      7 CA         10.8970  112.4220   -2.0380 C.3       1 ARG         0.1312
      8 C           9.7640  111.6500   -2.7640 C.2       1 ARG         0.2040
      9 O           9.9030  110.4620   -3.0810 O.2       1 ARG        -0.3944
     10 CB         10.7900  112.2350   -0.5270 C.3       1 ARG        -0.0092
     11 CG         10.7110  110.8360   -0.0540 C.3       1 ARG        -0.0156
     12 CD         10.6220  110.7590    1.4370 C.3       1 ARG         0.0627
     13 NE         11.6720  111.4950    2.1540 N.pl3     1 ARG        -0.2723
     14 CZ         12.8130  110.9700    2.6100 C.cat     1 ARG         0.2882
     15 NH1        13.1150  109.6960    2.3890 N.pl3     1 ARG        -0.2849
     16 NH2        13.6680  111.7470    3.2930 N.pl3     1 ARG        -0.2849
     17 N           8.6610  112.3430   -3.0240 N.am      1 THR        -0.2613
     18 CA          7.4750  111.7080   -3.5630 C.3       1 THR         0.1565
     19 C           7.4790  111.6370   -5.0610 C.2       1 THR         0.2065
     20 O           6.6780  110.8760   -5.6320 O.2       1 THR        -0.3943
     21 CB          6.2320  112.4690   -3.1110 C.3       1 THR         0.0924
     22 OG1         6.3250  113.8360   -3.5280 O.3       1 THR        -0.3874
     23 CG2         6.1420  112.4080   -1.5940 C.3       1 THR        -0.0346
     24 N           8.3930  112.4020   -5.6830 N.am      1 ALA        -0.2639
     25 CA          8.4160  112.6390   -7.1450 C.3       1 ALA         0.1282
     26 C           8.2690  111.3640   -7.9430 C.2       1 ALA         0.2031
     27 O           9.1690  110.4870   -7.9160 O.2       1 ALA        -0.3944
     28 CB          9.6860  113.3720   -7.5640 C.3       1 ALA        -0.0244
     29 N           7.1250  111.2900   -8.6490 N.am      1 ARG        -0.2673
     30 CA          6.7180  110.1440   -9.4520 C.3       1 ARG         0.1198
     31 C           6.9370  110.4630  -10.9290 C.2       1 ARG         0.2147
     32 O           8.0840  110.6030  -11.3760 O.co2     1 ARG        -0.4120
     33 CB          5.2450  109.8050   -9.1860 C.3       1 ARG        -0.0276
     34 H          10.8321  117.3717   -5.0889 H         1 ALA         0.2015
     35 H          10.2008  115.9522   -5.6325 H         1 ALA         0.2015
     36 H          11.8259  116.1016   -5.4181 H         1 ALA         0.2015
     37 H          11.5942  116.3368   -3.0654 H         1 ALA         0.1095
     38 H           9.3552  116.0064   -2.0173 H         1 ALA         0.0310
     39 H           8.6071  115.9669   -3.6498 H         1 ALA         0.0310
     40 H           9.4031  117.4663   -3.0626 H         1 ALA         0.0310
     41 H          10.8341  114.5117   -1.5613 H         1 ARG         0.1884
     42 H          11.8595  112.0134   -2.3796 H         1 ARG         0.0800
     43 H           9.8844  112.7579   -0.1858 H         1 ARG         0.0313
     44 H          11.6757  112.6971   -0.0665 H         1 ARG         0.0313
     45 H          11.6105  110.2965   -0.3855 H         1 ARG         0.0301
     46 H           9.8184  110.3627   -0.4890 H         1 ARG         0.0301
     47 H          10.6849  109.7005    1.7297 H         1 ARG         0.0689
     48 H           9.6475  111.1670    1.7435 H         1 ARG         0.0689
     49 H          11.5156  112.4996    2.3190 H         1 ARG         0.2642
     50 H          13.9987  109.3066    2.7473 H         1 ARG         0.2615
     51 H          12.4656  109.0972    1.8593 H         1 ARG         0.2615
     52 H          13.4386  112.7359    3.4672 H         1 ARG         0.2615
     53 H          14.5536  111.3544    3.6430 H         1 ARG         0.2615
     54 H           8.6487  113.3265   -2.8435 H         1 THR         0.1884
     55 H           7.4280  110.6820   -3.1691 H         1 THR         0.0826
     56 H           5.3360  112.0097   -3.5540 H         1 THR         0.0639
     57 H           6.3908  113.8733   -4.4750 H         1 THR         0.2101
     58 H           5.2484  112.9542   -1.2575 H         1 THR         0.0257
     59 H           7.0397  112.8675   -1.1546 H         1 THR         0.0257
     60 H           6.0727  111.3583   -1.2727 H         1 THR         0.0257
     61 H           9.0997  112.8371   -5.1252 H         1 ALA         0.1883
     62 H           7.5582  113.2837   -7.3868 H         1 ALA         0.0797
     63 H           9.6743  113.5332   -8.6521 H         1 ALA         0.0277
     64 H          10.5644  112.7683   -7.2923 H         1 ALA         0.0277
     65 H           9.7353  114.3433   -7.0500 H         1 ALA         0.0277
     66 H           6.5103  112.0782   -8.6203 H         1 ARG         0.1876
     67 H           7.3359  109.2762   -9.1780 H         1 ARG         0.0748
     68 O1          5.9459  110.5845  -11.6974 O.co2     1 ARG        -0.4120
     69 H           4.9517  108.9392   -9.7979 H         1 ARG         0.0271
     70 H           4.6167  110.6690   -9.4483 H         1 ARG         0.0271
     71 H           5.1107  109.5637   -8.1212 H         1 ARG         0.0271
@<TRIPOS>BOND
     1    1    2 1  
     2    2    3 1  
     3    2    5 1  
     4    3    4 2  
     5    3    6 am 
     6    6    7 1  
     7    7    8 1  
     8    7   10 1  
     9    8    9 2  
    10    8   17 am 
    11   10   11 1  
    12   11   12 1  
    13   12   13 1  
    14   13   14 ar 
    15   14   15 ar 
    16   14   16 ar 
    17   17   18 1  
    18   18   19 1  
    19   18   21 1  
    20   19   20 2  
    21   19   24 am 
    22   21   22 1  
    23   21   23 1  
    24   24   25 1  
    25   25   26 1  
    26   25   28 1  
    27   26   27 2  
    28   26   29 am 
    29   29   30 1  
    30   30   31 1  
    31   30   33 1  
    32   31   32 ar 
    33    1   34 1  
    34    1   35 1  
    35    1   36 1  
    36    2   37 1  
    37    5   38 1  
    38    5   39 1  
    39    5   40 1  
    40    6   41 1  
    41    7   42 1  
    42   10   43 1  
    43   10   44 1  
    44   11   45 1  
    45   11   46 1  
    46   12   47 1  
    47   12   48 1  
    48   13   49 1  
    49   15   50 1  
    50   15   51 1  
    51   16   52 1  
    52   16   53 1  
    53   17   54 1  
    54   18   55 1  
    55   21   56 1  
    56   22   57 1  
    57   23   58 1  
    58   23   59 1  
    59   23   60 1  
    60   24   61 1  
    61   25   62 1  
    62   28   63 1  
    63   28   64 1  
    64   28   65 1  
    65   29   66 1  
    66   30   67 1  
    67   31   68 ar 
    68   33   69 1  
    69   33   70 1  
    70   33   71 1  
@<TRIPOS>SUBSTRUCTURE
     1 ALA         1

