### 
### Created by X-TOOL on Mon Sep 10 21:13:20 2018
### 

@<TRIPOS>MOLECULE
4o4g_ligand
   43    45     1     0     0
SMALL
GAST_HUCK


@<TRIPOS>ATOM
      1 NAV       215.6400  -27.5180   33.5430 N.pl3     1 2RT        -0.2327
      2 CBD       214.9130  -28.5980   34.1150 C.ar      1 2RT         0.0782
      3 CAH       214.4970  -29.7850   33.4250 C.ar      1 2RT        -0.0254
      4 CAF       213.7710  -30.8020   34.0780 C.ar      1 2RT        -0.0359
      5 CBA       213.4400  -30.6750   35.4490 C.ar      1 2RT         0.0834
      6 CAE       212.6840  -31.7220   36.1010 C.1       1 2RT         0.0882
      7 NAD       212.0600  -32.5350   36.6360 N.1       1 2RT        -0.3379
      8 CAG       213.8330  -29.5210   36.1560 C.ar      1 2RT        -0.0359
      9 CAI       214.5530  -28.5060   35.4900 C.ar      1 2RT        -0.0254
     10 NAS       216.1040  -26.0680   35.3950 N.ar      1 2RT        -0.2095
     11 CBF       216.6840  -24.9800   35.9150 C.ar      1 2RT         0.2051
     12 CBG       217.5490  -24.4700   33.8580 C.ar      1 2RT         0.0732
     13 NAU       217.4180  -24.1510   35.1600 N.ar      1 2RT        -0.2393
     14 NAT       216.9750  -25.5720   33.2840 N.ar      1 2RT        -0.2382
     15 CBE       216.2440  -26.3750   34.0980 C.ar      1 2RT         0.2111
     16 NAW       216.5040  -24.7130   37.2680 N.pl3     1 2RT        -0.2481
     17 CBH       215.3550  -25.1910   37.9060 C.ar      1 2RT         0.0656
     18 CBB       214.2370  -24.3070   38.0050 C.ar      1 2RT        -0.0330
     19 CAB       214.2840  -22.8830   37.4570 C.3       1 2RT        -0.0363
     20 CAJ       213.0440  -24.7420   38.6290 C.ar      1 2RT        -0.0743
     21 CAZ       212.9430  -26.0490   39.1560 C.ar      1 2RT        -0.0696
     22 CAA       211.6570  -26.4960   39.8240 C.3       1 2RT        -0.0391
     23 CAK       214.0440  -26.9290   39.0550 C.ar      1 2RT        -0.0743
     24 CBC       215.2540  -26.5190   38.4360 C.ar      1 2RT        -0.0330
     25 CAC       216.3990  -27.5300   38.3680 C.3       1 2RT        -0.0363
     26 H         215.7451  -27.5859   32.5206 H         1 2RT         0.2245
     27 H         214.7468  -29.9028   32.3768 H         1 2RT         0.0568
     28 H         213.4649  -31.6848   33.5283 H         1 2RT         0.0690
     29 H         213.5837  -29.4135   37.2055 H         1 2RT         0.0690
     30 H         214.8432  -27.6222   36.0465 H         1 2RT         0.0568
     31 H         218.1428  -23.8168   33.2289 H         1 2RT         0.1144
     32 H         217.2062  -24.1715   37.7921 H         1 2RT         0.2159
     33 H         213.3196  -22.3871   37.6416 H         1 2RT         0.0367
     34 H         214.4797  -22.9128   36.3750 H         1 2RT         0.0367
     35 H         215.0864  -22.3230   37.9595 H         1 2RT         0.0367
     36 H         212.1997  -24.0663   38.7034 H         1 2RT         0.0413
     37 H         211.7651  -27.5347   40.1694 H         1 2RT         0.0369
     38 H         210.8285  -26.4337   39.1031 H         1 2RT         0.0369
     39 H         211.4446  -25.8439   40.6840 H         1 2RT         0.0369
     40 H         213.9634  -27.9327   39.4564 H         1 2RT         0.0413
     41 H         217.2632  -27.0719   37.8647 H         1 2RT         0.0367
     42 H         216.0730  -28.4158   37.8032 H         1 2RT         0.0367
     43 H         216.6847  -27.8296   39.3871 H         1 2RT         0.0367
@<TRIPOS>BOND
     1    1    2 1  
     2   15    1 1  
     3    2    3 ar 
     4    2    9 ar 
     5    3    4 ar 
     6    4    5 ar 
     7    5    6 1  
     8    8    5 ar 
     9    6    7 3  
    10    9    8 ar 
    11   10   11 ar 
    12   10   15 ar 
    13   11   13 ar 
    14   11   16 1  
    15   13   12 ar 
    16   12   14 ar 
    17   14   15 ar 
    18   16   17 1  
    19   17   18 ar 
    20   17   24 ar 
    21   18   19 1  
    22   18   20 ar 
    23   20   21 ar 
    24   21   22 1  
    25   21   23 ar 
    26   23   24 ar 
    27   24   25 1  
    28    1   26 1  
    29    3   27 1  
    30    4   28 1  
    31    8   29 1  
    32    9   30 1  
    33   12   31 1  
    34   16   32 1  
    35   19   33 1  
    36   19   34 1  
    37   19   35 1  
    38   20   36 1  
    39   22   37 1  
    40   22   38 1  
    41   22   39 1  
    42   23   40 1  
    43   25   41 1  
    44   25   42 1  
    45   25   43 1  
@<TRIPOS>SUBSTRUCTURE
     1 2RT         1

