### 
### Created by X-TOOL on Mon Sep 10 21:13:18 2018
### 

@<TRIPOS>MOLECULE
4o4k_ligand
   24    25     1     0     0
SMALL
GAST_HUCK


@<TRIPOS>ATOM
      1 OAB        10.0620  462.5100   31.7660 O.2       1 2PK        -0.3859
      2 CAN        10.0480  463.4520   30.9940 C.2       1 2PK         0.2187
      3 NAI         9.6260  464.6410   31.4550 N.am      1 2PK        -0.2045
      4 CAM         9.6660  465.5930   30.5330 C.cat     1 2PK         0.3299
      5 NAA         9.2860  466.8490   30.7440 N.pl3     1 2PK        -0.2105
      6 SAJ        10.2440  464.9540   29.1330 S.3       1 2PK         0.0210
      7 CAO        10.4670  463.4280   29.7100 C.2       1 2PK         0.0955
      8 CAD        10.9290  462.4690   28.8790 C.2       1 2PK        -0.0395
      9 CAL        11.0840  461.0920   29.1360 C.ar      1 2PK        -0.0377
     10 CAG        11.5970  460.3380   28.0830 C.ar      1 2PK        -0.0636
     11 CAE        11.7950  458.9660   28.2000 C.ar      1 2PK        -0.0321
     12 CAK        11.4780  458.3230   29.3900 C.ar      1 2PK         0.0891
     13 OAC        11.6690  456.9860   29.5130 O.3       1 2PK        -0.3320
     14 CAF        10.9660  459.0490   30.4540 C.ar      1 2PK        -0.0321
     15 CAH        10.7780  460.4140   30.3130 C.ar      1 2PK        -0.0636
     16 H           9.3149  464.7920   32.3933 H         1 2PK         0.1927
     17 H           9.3434  467.5394   29.9818 H         1 2PK         0.4608
     18 H           8.9341  467.1320   31.6697 H         1 2PK         0.4608
     19 H          11.2187  462.8021   27.8835 H         1 2PK         0.0561
     20 H          11.8477  460.8317   27.1511 H         1 2PK         0.0590
     21 H          12.1950  458.4009   27.3659 H         1 2PK         0.0548
     22 H          11.4038  456.7079   30.3819 H         1 2PK         0.2491
     23 H          10.7157  458.5543   31.3855 H         1 2PK         0.0548
     24 H          10.3779  460.9751   31.1498 H         1 2PK         0.0590
@<TRIPOS>BOND
     1    1    2 2  
     2    2    3 am 
     3    2    7 1  
     4    3    4 ar 
     5    4    5 ar 
     6    4    6 1  
     7    6    7 1  
     8    7    8 2  
     9    8    9 1  
    10    9   10 ar 
    11    9   15 ar 
    12   10   11 ar 
    13   11   12 ar 
    14   12   13 1  
    15   12   14 ar 
    16   14   15 ar 
    17    3   16 1  
    18    5   17 1  
    19    5   18 1  
    20    8   19 1  
    21   10   20 1  
    22   11   21 1  
    23   13   22 1  
    24   14   23 1  
    25   15   24 1  
@<TRIPOS>SUBSTRUCTURE
     1 2PK         1

