### 
### Created by X-TOOL on Mon Sep 10 21:13:18 2018
### 

@<TRIPOS>MOLECULE
4o4y_ligand
   99   100     1     0     0
SMALL
GAST_HUCK


@<TRIPOS>ATOM
      1 N           6.5300   29.1770  -57.5040 N.4       1 PRO         0.2461
      2 CA          6.5130   28.2790  -56.3480 C.3       1 PRO         0.0670
      3 C           5.1440   28.2740  -55.6230 C.2       1 PRO         0.2268
      4 O           4.8490   29.1920  -54.8660 O.2       1 PRO        -0.3907
      5 CB          7.6470   28.8380  -55.4580 C.3       1 PRO         0.0127
      6 CG          8.0700   30.1780  -56.0930 C.3       1 PRO        -0.0053
      7 CD          7.0700   30.5010  -57.1570 C.3       1 PRO        -0.0313
      8 N           4.3190   27.2590  -55.8750 N.am      1 ALA        -0.2608
      9 CA          2.9140   27.2890  -55.4570 C.3       1 ALA         0.1342
     10 C           2.7880   27.1660  -53.9510 C.2       1 ALA         0.2316
     11 O           3.4760   26.3500  -53.3420 O.2       1 ALA        -0.3826
     12 CB          2.1290   26.1720  -56.1170 C.3       1 ALA        -0.0239
     13 N           1.8780   27.9420  -53.3390 N.am      1 PRO        -0.2126
     14 CA          1.7400   27.8740  -51.8860 C.3       1 PRO         0.1549
     15 C           1.4330   26.4660  -51.3740 C.2       1 PRO         0.2110
     16 O           0.7150   25.7030  -52.0370 O.2       1 PRO        -0.3936
     17 CB          0.5600   28.8040  -51.5760 C.3       1 PRO        -0.0019
     18 CG          0.2790   29.5630  -52.8180 C.2       1 PRO        -0.0883
     19 CD          1.1130   29.0520  -53.9390 C.2       1 PRO         0.0154
     20 N           1.9980   26.1360  -50.2200 N.am      1 GLU        -0.2631
     21 CA          1.7060   24.8670  -49.5470 C.3       1 GLU         0.1325
     22 C           0.9510   25.1850  -48.2510 C.2       1 GLU         0.2040
     23 O           1.4820   25.8140  -47.3270 O.2       1 GLU        -0.3944
     24 CB          2.9820   24.0710  -49.2780 C.3       1 GLU        -0.0008
     25 CG          2.7090   22.7970  -48.4710 C.3       1 GLU         0.0044
     26 CD          3.3200   21.5580  -49.0510 C.2       1 GLU         0.0350
     27 OE1         4.2150   21.6770  -49.8860 O.co2     1 GLU        -0.5690
     28 OE2         2.9430   20.4540  -48.6400 O.co2     1 GLU        -0.5690
     29 N          -0.3210   24.7930  -48.2220 N.am      1 LEU        -0.2637
     30 CA         -1.1830   25.0590  -47.0660 C.3       1 LEU         0.1312
     31 C          -1.6740   23.7560  -46.4370 C.2       1 LEU         0.2039
     32 O          -2.0130   22.8270  -47.1580 O.2       1 LEU        -0.3944
     33 CB         -2.3440   25.9420  -47.5250 C.3       1 LEU        -0.0101
     34 CG         -1.8180   27.2790  -48.0880 C.3       1 LEU        -0.0425
     35 CD1        -2.6940   27.7990  -49.2340 C.3       1 LEU        -0.0625
     36 CD2        -1.6650   28.2990  -46.9470 C.3       1 LEU        -0.0625
     37 N          -1.7760   23.7250  -45.1030 N.am      1 LEU        -0.2637
     38 CA         -2.0630   22.5000  -44.3790 C.3       1 LEU         0.1312
     39 C          -3.3540   22.5720  -43.5520 C.2       1 LEU         0.2031
     40 O          -3.5030   21.8750  -42.5790 O.2       1 LEU        -0.3944
     41 CB         -0.8650   22.1170  -43.4820 C.3       1 LEU        -0.0101
     42 CG          0.0240   20.9550  -43.9410 C.3       1 LEU        -0.0425
     43 CD1         0.6850   21.2830  -45.2030 C.3       1 LEU        -0.0625
     44 CD2         1.0820   20.6460  -42.8580 C.3       1 LEU        -0.0625
     45 N          -4.2850   23.4180  -43.9480 N.am      1 GLY        -0.2722
     46 CA         -5.5660   23.5080  -43.2040 C.3       1 GLY         0.0833
     47 C          -6.6770   22.7800  -43.9090 C.2       1 GLY         0.0570
     48 O          -6.4510   22.1810  -44.9650 O.co2     1 GLY        -0.5669
     49 OXT        -7.8200   22.7800  -43.4580 O.co2     1 GLY        -0.5669
     50 H           5.5881   29.2877  -57.8455 H         1 PRO         0.2035
     51 H           7.1034   28.7694  -58.2259 H         1 PRO         0.2035
     52 H           6.7451   27.2503  -56.6608 H         1 PRO         0.1099
     53 H           8.4967   28.1397  -55.4393 H         1 PRO         0.0347
     54 H           7.2827   28.9999  -54.4328 H         1 PRO         0.0347
     55 H           9.0731   30.0852  -56.5348 H         1 PRO         0.0320
     56 H           8.0772   30.9705  -55.3302 H         1 PRO         0.0320
     57 H           6.2806   31.1631  -56.7718 H         1 PRO         0.0814
     58 H           7.5529   30.9728  -58.0255 H         1 PRO         0.0814
     59 H           4.6664   26.4571  -56.3611 H         1 ALA         0.1885
     60 H           2.4828   28.2522  -55.7672 H         1 ALA         0.0802
     61 H           1.0804   26.2165  -55.7876 H         1 ALA         0.0277
     62 H           2.5619   25.2017  -55.8322 H         1 ALA         0.0277
     63 H           2.1752   26.2875  -57.2099 H         1 ALA         0.0277
     64 H           2.6594   28.2369  -51.4034 H         1 PRO         0.0883
     65 H           0.8249   29.4943  -50.7615 H         1 PRO         0.0385
     66 H          -0.3215   28.2140  -51.2845 H         1 PRO         0.0385
     67 H          -0.4370   30.3796  -52.8985 H         1 PRO         0.0218
     68 H           1.1503   29.4137  -54.9655 H         1 PRO         0.0803
     69 H           2.6427   26.7723  -49.7964 H         1 GLU         0.1884
     70 H           1.0563   24.2616  -50.1961 H         1 GLU         0.0801
     71 H           3.6826   24.7044  -48.7141 H         1 GLU         0.0330
     72 H           3.4344   23.7906  -50.2406 H         1 GLU         0.0330
     73 H           1.6202   22.6508  -48.4155 H         1 GLU         0.0433
     74 H           3.1122   22.9380  -47.4573 H         1 GLU         0.0433
     75 H          -0.6983   24.3046  -49.0088 H         1 LEU         0.1883
     76 H          -0.6024   25.6068  -46.3091 H         1 LEU         0.0800
     77 H          -3.0046   26.1448  -46.6692 H         1 LEU         0.0315
     78 H          -2.9099   25.4171  -48.3087 H         1 LEU         0.0315
     79 H          -0.8164   27.0954  -48.5041 H         1 LEU         0.0298
     80 H          -2.2854   28.7504  -49.6052 H         1 LEU         0.0232
     81 H          -3.7193   27.9580  -48.8687 H         1 LEU         0.0232
     82 H          -2.7057   27.0617  -50.0502 H         1 LEU         0.0232
     83 H          -1.0294   27.8727  -46.1569 H         1 LEU         0.0232
     84 H          -2.6557   28.5366  -46.5322 H         1 LEU         0.0232
     85 H          -1.2005   29.2172  -47.3358 H         1 LEU         0.0232
     86 H          -1.6505   24.5731  -44.5883 H         1 LEU         0.1883
     87 H          -2.1962   21.7019  -45.1242 H         1 LEU         0.0800
     88 H          -1.2662   21.8531  -42.4924 H         1 LEU         0.0315
     89 H          -0.2237   23.0062  -43.3924 H         1 LEU         0.0315
     90 H          -0.6045   20.0648  -44.0907 H         1 LEU         0.0298
     91 H           1.3173   20.4390  -45.5159 H         1 LEU         0.0232
     92 H           1.3093   22.1785  -45.0680 H         1 LEU         0.0232
     93 H          -0.0742   21.4782  -45.9747 H         1 LEU         0.0232
     94 H           0.5773   20.4003  -41.9120 H         1 LEU         0.0232
     95 H           1.7256   21.5261  -42.7124 H         1 LEU         0.0232
     96 H           1.6962   19.7916  -43.1786 H         1 LEU         0.0232
     97 H          -4.1282   23.9975  -44.7477 H         1 GLY         0.1873
     98 H          -5.8440   24.5673  -43.1016 H         1 GLY         0.0689
     99 H          -5.4291   23.0667  -42.2058 H         1 GLY         0.0689
@<TRIPOS>BOND
     1    1    2 1  
     2    1    7 1  
     3    2    3 1  
     4    2    5 1  
     5    3    4 2  
     6    3    8 am 
     7    5    6 1  
     8    6    7 1  
     9    8    9 1  
    10    9   10 1  
    11    9   12 1  
    12   10   11 2  
    13   10   13 am 
    14   13   14 1  
    15   13   19 1  
    16   14   15 1  
    17   14   17 1  
    18   15   16 2  
    19   15   20 am 
    20   17   18 1  
    21   18   19 2  
    22   20   21 1  
    23   21   22 1  
    24   21   24 1  
    25   22   23 2  
    26   22   29 am 
    27   24   25 1  
    28   25   26 1  
    29   26   27 ar 
    30   26   28 ar 
    31   29   30 1  
    32   30   31 1  
    33   30   33 1  
    34   31   32 2  
    35   31   37 am 
    36   33   34 1  
    37   34   35 1  
    38   34   36 1  
    39   37   38 1  
    40   38   39 1  
    41   38   41 1  
    42   39   40 2  
    43   39   45 am 
    44   41   42 1  
    45   42   43 1  
    46   42   44 1  
    47   45   46 1  
    48   46   47 1  
    49   47   48 ar 
    50   47   49 ar 
    51    1   50 1  
    52    1   51 1  
    53    2   52 1  
    54    5   53 1  
    55    5   54 1  
    56    6   55 1  
    57    6   56 1  
    58    7   57 1  
    59    7   58 1  
    60    8   59 1  
    61    9   60 1  
    62   12   61 1  
    63   12   62 1  
    64   12   63 1  
    65   14   64 1  
    66   17   65 1  
    67   17   66 1  
    68   18   67 1  
    69   19   68 1  
    70   20   69 1  
    71   21   70 1  
    72   24   71 1  
    73   24   72 1  
    74   25   73 1  
    75   25   74 1  
    76   29   75 1  
    77   30   76 1  
    78   33   77 1  
    79   33   78 1  
    80   34   79 1  
    81   35   80 1  
    82   35   81 1  
    83   35   82 1  
    84   36   83 1  
    85   36   84 1  
    86   36   85 1  
    87   37   86 1  
    88   38   87 1  
    89   41   88 1  
    90   41   89 1  
    91   42   90 1  
    92   43   91 1  
    93   43   92 1  
    94   43   93 1  
    95   44   94 1  
    96   44   95 1  
    97   44   96 1  
    98   45   97 1  
    99   46   98 1  
   100   46   99 1  
@<TRIPOS>SUBSTRUCTURE
     1 PRO         1

