### 
### Created by X-TOOL on Mon Sep 10 21:13:17 2018
### 

@<TRIPOS>MOLECULE
4o55_ligand
   58    61     1     0     0
SMALL
GAST_HUCK


@<TRIPOS>ATOM
      1 C1        -37.5650   32.5790  -28.0330 C.ar      1 LF9         0.0913
      2 C2        -36.7750   31.4510  -28.3300 C.ar      1 LF9        -0.0039
      3 C3        -35.4200   31.6330  -28.6200 C.ar      1 LF9         0.0096
      4 C4        -34.8840   32.9490  -28.6130 C.ar      1 LF9         0.0346
      5 C5        -35.7220   34.0390  -28.3000 C.ar      1 LF9         0.0282
      6 N1        -37.0170   33.8160  -28.0310 N.ar      1 LF9        -0.2982
      7 C7        -34.5720   30.4420  -28.9250 C.ar      1 LF9        -0.0168
      8 C8        -34.1120   29.6060  -27.8970 C.ar      1 LF9        -0.0549
      9 C9        -33.2950   28.5050  -28.1880 C.ar      1 LF9        -0.0618
     10 C10       -32.9380   28.2020  -29.5040 C.ar      1 LF9        -0.0623
     11 C11       -33.4000   29.0400  -30.5220 C.ar      1 LF9        -0.0618
     12 C12       -34.2140   30.1530  -30.2360 C.ar      1 LF9        -0.0549
     13 C13       -37.4150   30.0740  -28.3320 C.3       1 LF9        -0.0243
     14 C14       -35.3010   35.4870  -28.2810 C.3       1 LF9        -0.0198
     15 C15       -33.4330   33.1990  -28.9220 C.3       1 LF9         0.1501
     16 C16       -33.2500   33.7180  -30.3410 C.2       1 LF9         0.0772
     17 O17       -32.7850   34.0990  -27.9920 O.3       1 LF9        -0.3436
     18 O18       -34.0260   33.3010  -31.2300 O.co2     1 LF9        -0.5638
     19 O19       -32.3030   34.4940  -30.5950 O.co2     1 LF9        -0.5638
     20 C20       -32.3880   33.5540  -26.7180 C.3       1 LF9         0.0665
     21 C21       -33.5500   33.1770  -25.8260 C.3       1 LF9        -0.0360
     22 C22       -31.6410   34.7010  -26.0440 C.3       1 LF9        -0.0360
     23 C23       -31.5480   32.2930  -26.8610 C.3       1 LF9        -0.0360
     24 C24       -39.0220   32.4220  -27.7230 C.2       1 LF9         0.1476
     25 N2        -40.0120   32.3670  -28.6270 N.2       1 LF9        -0.3054
     26 C26       -41.1880   32.1930  -27.9830 C.ar      1 LF9         0.0327
     27 C27       -40.8890   32.1280  -26.6280 C.ar      1 LF9         0.0824
     28 N3        -39.5550   32.2700  -26.5020 N.pl3     1 LF9        -0.2496
     29 C29       -42.5210   32.0730  -28.4160 C.ar      1 LF9        -0.0604
     30 C30       -41.9160   31.9450  -25.6950 C.ar      1 LF9        -0.0254
     31 C31       -43.5470   31.8850  -27.4810 C.ar      1 LF9        -0.0621
     32 C32       -43.2510   31.8170  -26.1080 C.ar      1 LF9         0.0277
     33 CL        -44.5540   31.5700  -24.8700 Cl        1 LF9        -0.0781
     34 H         -34.3904   29.8129  -26.8700 H         1 LF9         0.0618
     35 H         -32.9347   27.8791  -27.3796 H         1 LF9         0.0616
     36 H         -32.3197   27.3406  -29.7292 H         1 LF9         0.0613
     37 H         -33.1271   28.8298  -31.5498 H         1 LF9         0.0616
     38 H         -34.5630   30.7874  -31.0427 H         1 LF9         0.0618
     39 H         -38.4815   30.1650  -28.0785 H         1 LF9         0.0416
     40 H         -36.9146   29.4360  -27.5886 H         1 LF9         0.0416
     41 H         -37.3126   29.6235  -29.3303 H         1 LF9         0.0416
     42 H         -36.1603   36.1150  -28.0033 H         1 LF9         0.0396
     43 H         -34.9419   35.7776  -29.2793 H         1 LF9         0.0396
     44 H         -34.4938   35.6246  -27.5465 H         1 LF9         0.0396
     45 H         -32.9188   32.2293  -28.8503 H         1 LF9         0.0943
     46 H         -33.1677   32.7711  -24.8778 H         1 LF9         0.0257
     47 H         -34.1663   32.4168  -26.3283 H         1 LF9         0.0257
     48 H         -34.1610   34.0689  -25.6232 H         1 LF9         0.0257
     49 H         -31.2933   34.3789  -25.0513 H         1 LF9         0.0257
     50 H         -32.3150   35.5633  -25.9344 H         1 LF9         0.0257
     51 H         -30.7761   34.9876  -26.6602 H         1 LF9         0.0257
     52 H         -31.2733   31.9203  -25.8632 H         1 LF9         0.0257
     53 H         -30.6354   32.5229  -27.4305 H         1 LF9         0.0257
     54 H         -32.1281   31.5243  -27.3926 H         1 LF9         0.0257
     55 H         -39.0315   32.2630  -25.6150 H         1 LF9         0.2300
     56 H         -42.7543   32.1260  -29.4733 H         1 LF9         0.0553
     57 H         -41.6769   31.9015  -24.6386 H         1 LF9         0.0552
     58 H         -44.5733   31.7916  -27.8172 H         1 LF9         0.0530
@<TRIPOS>BOND
     1    1    2 ar 
     2    1    6 ar 
     3    1   24 1  
     4    2    3 ar 
     5    2   13 1  
     6    3    4 ar 
     7    3    7 1  
     8    4    5 ar 
     9    4   15 1  
    10    5    6 ar 
    11    5   14 1  
    12    7    8 ar 
    13    7   12 ar 
    14    8    9 ar 
    15    9   10 ar 
    16   10   11 ar 
    17   11   12 ar 
    18   15   16 1  
    19   15   17 1  
    20   16   18 ar 
    21   16   19 ar 
    22   17   20 1  
    23   20   21 1  
    24   20   22 1  
    25   20   23 1  
    26   24   25 2  
    27   24   28 1  
    28   25   26 1  
    29   26   27 ar 
    30   26   29 ar 
    31   27   28 1  
    32   27   30 ar 
    33   29   31 ar 
    34   30   32 ar 
    35   31   32 ar 
    36   32   33 1  
    37    8   34 1  
    38    9   35 1  
    39   10   36 1  
    40   11   37 1  
    41   12   38 1  
    42   13   39 1  
    43   13   40 1  
    44   13   41 1  
    45   14   42 1  
    46   14   43 1  
    47   14   44 1  
    48   15   45 1  
    49   21   46 1  
    50   21   47 1  
    51   21   48 1  
    52   22   49 1  
    53   22   50 1  
    54   22   51 1  
    55   23   52 1  
    56   23   53 1  
    57   23   54 1  
    58   28   55 1  
    59   29   56 1  
    60   30   57 1  
    61   31   58 1  
@<TRIPOS>SUBSTRUCTURE
     1 LF9         1

