### 
### Created by X-TOOL on Mon Sep 10 21:13:18 2018
### 

@<TRIPOS>MOLECULE
4o5b_ligand
   58    61     1     0     0
SMALL
GAST_HUCK


@<TRIPOS>ATOM
      1 C1         37.7150  -32.5780  -27.5560 C.ar      1 LF9         0.0913
      2 C2         36.9370  -31.4670  -27.8840 C.ar      1 LF9        -0.0039
      3 C3         35.6410  -31.6560  -28.2930 C.ar      1 LF9         0.0096
      4 C4         35.1440  -32.9500  -28.3460 C.ar      1 LF9         0.0346
      5 C5         35.9730  -34.0320  -28.0410 C.ar      1 LF9         0.0283
      6 N1         37.2260  -33.8170  -27.6490 N.ar      1 LF9        -0.2982
      7 C7         34.7640  -30.4990  -28.6420 C.ar      1 LF9        -0.0168
      8 C8         34.1840  -29.6840  -27.6370 C.ar      1 LF9        -0.0549
      9 C9         33.3270  -28.6120  -27.9920 C.ar      1 LF9        -0.0618
     10 C10        33.0710  -28.3240  -29.3370 C.ar      1 LF9        -0.0623
     11 C11        33.6540  -29.1660  -30.3240 C.ar      1 LF9        -0.0618
     12 C12        34.4860  -30.2550  -29.9900 C.ar      1 LF9        -0.0549
     13 C13        37.5190  -30.0680  -27.8110 C.3       1 LF9        -0.0243
     14 C14        35.5700  -35.4840  -28.0750 C.3       1 LF9        -0.0198
     15 C15        33.7230  -33.1540  -28.7380 C.3       1 LF9         0.1501
     16 C16        33.5400  -33.6540  -30.1630 C.2       1 LF9         0.0772
     17 O17        33.1100  -34.0770  -27.7940 O.3       1 LF9        -0.3436
     18 O18        34.3210  -33.1750  -31.0380 O.co2     1 LF9        -0.5638
     19 O19        32.6120  -34.5000  -30.3910 O.co2     1 LF9        -0.5638
     20 C20        32.4890  -33.6060  -26.5710 C.3       1 LF9         0.0665
     21 C21        33.5680  -33.3560  -25.5510 C.3       1 LF9        -0.0360
     22 C22        31.5540  -34.6790  -25.9950 C.3       1 LF9        -0.0360
     23 C23        31.7370  -32.3030  -26.7800 C.3       1 LF9        -0.0360
     24 C24        39.1290  -32.4020  -27.1300 C.2       1 LF9         0.1476
     25 N2         40.1830  -32.6270  -27.8990 N.pl3     1 LF9        -0.2494
     26 C26        41.2880  -32.3330  -27.1920 C.ar      1 LF9         0.0822
     27 C27        40.8930  -31.9100  -25.9280 C.ar      1 LF9         0.0331
     28 N3         39.5480  -31.9690  -25.9210 N.2       1 LF9        -0.3055
     29 C29        42.6400  -32.3930  -27.5350 C.ar      1 LF9        -0.0386
     30 C30        41.8560  -31.5360  -24.9780 C.ar      1 LF9        -0.0470
     31 C31        43.6040  -32.0250  -26.5980 C.ar      1 LF9        -0.0604
     32 C32        43.2150  -31.5960  -25.3290 C.ar      1 LF9         0.0256
     33 CL         44.5220  -31.1400  -24.1930 Cl        1 LF9        -0.0808
     34 H          34.3969  -29.8815  -26.5926 H         1 LF9         0.0618
     35 H          32.8668  -28.0112  -27.2159 H         1 LF9         0.0616
     36 H          32.4466  -27.4838  -29.6186 H         1 LF9         0.0613
     37 H          33.4518  -28.9637  -31.3696 H         1 LF9         0.0616
     38 H          34.9017  -30.8903  -30.7637 H         1 LF9         0.0618
     39 H          38.5616  -30.1223  -27.4646 H         1 LF9         0.0416
     40 H          36.9298  -29.4620  -27.1070 H         1 LF9         0.0416
     41 H          37.4877  -29.6053  -28.8084 H         1 LF9         0.0416
     42 H          36.4281  -36.1095  -27.7879 H         1 LF9         0.0396
     43 H          35.2457  -35.7508  -29.0917 H         1 LF9         0.0396
     44 H          34.7422  -35.6514  -27.3703 H         1 LF9         0.0396
     45 H          33.2104  -32.1838  -28.6608 H         1 LF9         0.0943
     46 H          33.1127  -32.9976  -24.6160 H         1 LF9         0.0257
     47 H          34.2655  -32.5965  -25.9337 H         1 LF9         0.0257
     48 H          34.1140  -34.2912  -25.3580 H         1 LF9         0.0257
     49 H          31.0927  -34.3047  -25.0692 H         1 LF9         0.0257
     50 H          32.1316  -35.5889  -25.7749 H         1 LF9         0.0257
     51 H          30.7677  -34.9121  -26.7281 H         1 LF9         0.0257
     52 H          31.2840  -31.9846  -25.8295 H         1 LF9         0.0257
     53 H          30.9471  -32.4519  -27.5309 H         1 LF9         0.0257
     54 H          32.4353  -31.5288  -27.1308 H         1 LF9         0.0257
     55 H          40.1603  -32.9682  -28.8706 H         1 LF9         0.2302
     56 H          42.9380  -32.7236  -28.5234 H         1 LF9         0.0547
     57 H          41.5562  -31.2063  -23.9898 H         1 LF9         0.0559
     58 H          44.6559  -32.0722  -26.8554 H         1 LF9         0.0552
@<TRIPOS>BOND
     1    1    2 ar 
     2    1    6 ar 
     3    1   24 1  
     4    2    3 ar 
     5    2   13 1  
     6    3    4 ar 
     7    3    7 1  
     8    4    5 ar 
     9    4   15 1  
    10    5    6 ar 
    11    5   14 1  
    12    7    8 ar 
    13    7   12 ar 
    14    8    9 ar 
    15    9   10 ar 
    16   10   11 ar 
    17   11   12 ar 
    18   15   16 1  
    19   15   17 1  
    20   16   18 ar 
    21   16   19 ar 
    22   17   20 1  
    23   20   21 1  
    24   20   22 1  
    25   20   23 1  
    26   24   25 1  
    27   24   28 2  
    28   25   26 1  
    29   26   27 ar 
    30   26   29 ar 
    31   27   28 1  
    32   27   30 ar 
    33   29   31 ar 
    34   30   32 ar 
    35   31   32 ar 
    36   32   33 1  
    37    8   34 1  
    38    9   35 1  
    39   10   36 1  
    40   11   37 1  
    41   12   38 1  
    42   13   39 1  
    43   13   40 1  
    44   13   41 1  
    45   14   42 1  
    46   14   43 1  
    47   14   44 1  
    48   15   45 1  
    49   21   46 1  
    50   21   47 1  
    51   21   48 1  
    52   22   49 1  
    53   22   50 1  
    54   22   51 1  
    55   23   52 1  
    56   23   53 1  
    57   23   54 1  
    58   25   55 1  
    59   29   56 1  
    60   30   57 1  
    61   31   58 1  
@<TRIPOS>SUBSTRUCTURE
     1 LF9         1

