### 
### Created by X-TOOL on Mon Sep 10 21:13:17 2018
### 

@<TRIPOS>MOLECULE
4o61_ligand
   18    17     1     0     0
SMALL
GAST_HUCK


@<TRIPOS>ATOM
      1 C1         15.7350    3.4530    3.6840 C.2       1 CIT         0.0371
      2 O1         15.9230    4.0820    2.6070 O.co2     1 CIT        -0.5690
      3 O2         14.7670    3.6830    4.4320 O.co2     1 CIT        -0.5690
      4 C2         16.7280    2.3660    4.0950 C.3       1 CIT         0.0356
      5 C3         18.0970    2.4690    3.3420 C.3       1 CIT         0.1328
      6 O7         17.9510    2.7320    1.8980 O.3       1 CIT        -0.3818
      7 C4         18.9410    3.6230    3.8880 C.3       1 CIT         0.0356
      8 C5         20.3450    3.7750    3.2910 C.2       1 CIT         0.0371
      9 O3         20.8330    4.9330    3.2480 O.co2     1 CIT        -0.5690
     10 O4         20.9820    2.7820    2.8900 O.co2     1 CIT        -0.5690
     11 C6         18.8150    1.1410    3.6600 C.2       1 CIT         0.0796
     12 O5         19.0800    0.3350    2.7630 O.co2     1 CIT        -0.5449
     13 O6         19.1640    0.8840    4.8380 O.co2     1 CIT        -0.5449
     14 H          16.2821    1.3841    3.8781 H         1 CIT         0.0452
     15 H          16.9152    2.4531    5.1754 H         1 CIT         0.0452
     16 H          17.4921    3.5542    1.7718 H         1 CIT         0.2091
     17 H          19.0515    3.4745    4.9723 H         1 CIT         0.0452
     18 H          18.3931    4.5581    3.6999 H         1 CIT         0.0452
@<TRIPOS>BOND
     1    1    2 ar 
     2    1    3 ar 
     3    1    4 1  
     4    4    5 1  
     5    5    6 1  
     6    5    7 1  
     7    5   11 1  
     8    7    8 1  
     9    8    9 ar 
    10    8   10 ar 
    11   11   12 ar 
    12   11   13 ar 
    13    4   14 1  
    14    4   15 1  
    15    6   16 1  
    16    7   17 1  
    17    7   18 1  
@<TRIPOS>SUBSTRUCTURE
     1 CIT         1

