### 
### Created by X-TOOL on Mon Sep 10 21:13:18 2018
### 

@<TRIPOS>MOLECULE
4o6e_ligand
   56    59     1     0     0
SMALL
GAST_HUCK


@<TRIPOS>ATOM
      1 C4         14.3980   11.4050   12.8610 C.ar      1 2SH         0.0669
      2 C5         14.3830   10.0830   12.4440 C.ar      1 2SH        -0.0459
      3 C6         13.3230    9.2370   12.7760 C.ar      1 2SH        -0.0194
      4 C7         13.3580    7.7780   12.3740 C.3       1 2SH         0.0971
      5 C15        16.2560    5.7090   15.8260 C.3       1 2SH         0.0454
      6 C17        18.4820    4.9640   15.0140 C.ar      1 2SH         0.0006
      7 C20        20.6540    5.4400   13.5220 C.ar      1 2SH         0.1757
      8 C22        18.4370    5.8990   13.9950 C.ar      1 2SH         0.0557
      9 C26        23.3220    6.8230   11.3060 C.3       1 2SH        -0.0062
     10 C1         12.3140    9.7050   13.6110 C.ar      1 2SH        -0.0596
     11 C2         12.3260   11.0310   14.0390 C.ar      1 2SH        -0.0342
     12 C3         13.3770   11.8780   13.6830 C.ar      1 2SH         0.1390
     13 C9         13.3900    7.5410   10.8630 C.3       1 2SH         0.0761
     14 O10        12.1680    8.0070   10.3020 O.3       1 2SH        -0.3908
     15 N11        14.6230    7.2840   12.9230 N.am      1 2SH        -0.2569
     16 C12        14.7660    6.6570   14.1130 C.2       1 2SH         0.2644
     17 O13        13.7840    6.3850   14.8090 O.2       1 2SH        -0.4004
     18 N14        16.0280    6.3160   14.4940 N.am      1 2SH        -0.2433
     19 C16        17.2910    4.5910   15.8510 C.3       1 2SH         0.0036
     20 C18        19.6680    4.2650   15.2390 C.ar      1 2SH         0.0071
     21 N19        20.7330    4.5340   14.4960 N.ar      1 2SH        -0.2718
     22 N21        19.5400    6.1230   13.2780 N.ar      1 2SH        -0.2598
     23 C23        17.2030    6.7010   13.6610 C.3       1 2SH         0.0841
     24 N24        21.7980    5.6960   12.8020 N.pl3     1 2SH        -0.2909
     25 C25        21.8300    6.5590   11.6180 C.3       1 2SH         0.0447
     26 C27        23.4110    7.6330   10.0050 C.3       1 2SH         0.0498
     27 O28        22.7350    6.8990    8.9720 O.3       1 2SH        -0.3796
     28 C29        21.3240    6.6820    9.1490 C.3       1 2SH         0.0498
     29 C30        21.1120    5.8650   10.4370 C.3       1 2SH        -0.0062
     30 CL1        15.7150   12.4350   12.3690 Cl        1 2SH        -0.0739
     31 F32        13.3920   13.1650   14.1040 F         1 2SH        -0.1884
     32 H          15.2062    9.7005   11.8515 H         1 2SH         0.0553
     33 H          12.4976    7.2477   12.8081 H         1 2SH         0.0731
     34 H          15.3001    5.2981   16.1828 H         1 2SH         0.0542
     35 H          16.5925    6.5019   16.5102 H         1 2SH         0.0542
     36 H          23.8507    5.8661   11.1843 H         1 2SH         0.0310
     37 H          23.7784    7.3920   12.1294 H         1 2SH         0.0310
     38 H          11.5195    9.0393   13.9283 H         1 2SH         0.0550
     39 H          11.5147   11.4069   14.6518 H         1 2SH         0.0587
     40 H          13.5046    6.4661   10.6593 H         1 2SH         0.0602
     41 H          14.2338    8.0902   10.4200 H         1 2SH         0.0602
     42 H          12.1773    7.8644    9.3628 H         1 2SH         0.2097
     43 H          15.4473    7.4214   12.3738 H         1 2SH         0.1875
     44 H          16.8406    3.6705   15.4513 H         1 2SH         0.0430
     45 H          17.6156    4.4201   16.8880 H         1 2SH         0.0430
     46 H          19.7186    3.5089   16.0141 H         1 2SH         0.0805
     47 H          16.9529    6.5387   12.6022 H         1 2SH         0.0723
     48 H          17.4192    7.7666   13.8275 H         1 2SH         0.0723
     49 H          22.6777    5.2584   13.1112 H         1 2SH         0.1844
     50 H          21.3235    7.5114   11.8335 H         1 2SH         0.0559
     51 H          24.4657    7.7790    9.7287 H         1 2SH         0.0560
     52 H          22.9290    8.6122   10.1423 H         1 2SH         0.0560
     53 H          20.9232    6.1273    8.2878 H         1 2SH         0.0560
     54 H          20.8078    7.6496    9.2344 H         1 2SH         0.0560
     55 H          20.0357    5.7957   10.6531 H         1 2SH         0.0310
     56 H          21.5245    4.8544   10.3011 H         1 2SH         0.0310
@<TRIPOS>BOND
     1    2    1 ar 
     2    1   12 ar 
     3    1   30 1  
     4    3    2 ar 
     5    4    3 1  
     6    3   10 ar 
     7    4   13 1  
     8   15    4 1  
     9   18    5 1  
    10   19    5 1  
    11    8    6 ar 
    12    6   19 1  
    13   20    6 ar 
    14    7   21 ar 
    15    7   22 ar 
    16   24    7 1  
    17   22    8 ar 
    18    8   23 1  
    19   25    9 1  
    20    9   26 1  
    21   10   11 ar 
    22   11   12 ar 
    23   12   31 1  
    24   13   14 1  
    25   16   15 am 
    26   16   17 2  
    27   18   16 am 
    28   23   18 1  
    29   21   20 ar 
    30   24   25 1  
    31   25   29 1  
    32   26   27 1  
    33   27   28 1  
    34   28   29 1  
    35    2   32 1  
    36    4   33 1  
    37    5   34 1  
    38    5   35 1  
    39    9   36 1  
    40    9   37 1  
    41   10   38 1  
    42   11   39 1  
    43   13   40 1  
    44   13   41 1  
    45   14   42 1  
    46   15   43 1  
    47   19   44 1  
    48   19   45 1  
    49   20   46 1  
    50   23   47 1  
    51   23   48 1  
    52   24   49 1  
    53   25   50 1  
    54   26   51 1  
    55   26   52 1  
    56   28   53 1  
    57   28   54 1  
    58   29   55 1  
    59   29   56 1  
@<TRIPOS>SUBSTRUCTURE
     1 2SH         1

