### 
### Created by X-TOOL on Mon Sep 10 21:13:17 2018
### 

@<TRIPOS>MOLECULE
4o70_ligand
   59    62     1     0     0
SMALL
GAST_HUCK


@<TRIPOS>ATOM
      1 C10        30.6940  -33.6340  -21.5740 C.2       1 1QK         0.0370
      2 N12        32.7460  -33.3250  -20.2740 N.pl3     1 1QK        -0.2609
      3 C13        33.5870  -33.9860  -21.2810 C.3       1 1QK         0.0662
      4 C15        35.6690  -33.2690  -22.6150 C.2       1 1QK        -0.1053
      5 C17        35.4880  -31.5170  -24.1930 C.2       1 1QK         0.0208
      6 C22        28.9730  -34.7240  -23.6780 C.3       1 1QK         0.0319
      7 C24        27.9000  -33.3870  -25.4350 C.3       1 1QK        -0.0491
      8 C26        27.2530  -33.0690  -23.0590 C.3       1 1QK         0.0448
      9 C28        26.0780  -34.5620  -21.4040 C.3       1 1QK         0.0463
     10 C01        27.5290  -30.1470  -17.1970 C.3       1 1QK        -0.0633
     11 C02        27.6610  -31.2050  -18.1890 C.3       1 1QK        -0.0449
     12 C03        29.0410  -31.6240  -18.4340 C.2       1 1QK        -0.0335
     13 C04        30.1710  -31.4360  -17.6750 C.2       1 1QK        -0.0253
     14 N05        31.2070  -32.0210  -18.3370 N.2       1 1QK        -0.2274
     15 N06        30.7020  -32.5010  -19.5000 N.pl3     1 1QK        -0.1275
     16 C07        29.3960  -32.3060  -19.5700 C.2       1 1QK         0.1313
     17 N08        28.6850  -32.7170  -20.6390 N.2       1 1QK        -0.2989
     18 C09        29.3660  -33.3860  -21.6120 C.2       1 1QK         0.0873
     19 C11        31.3600  -33.1920  -20.4750 C.2       1 1QK         0.2160
     20 C14        34.2860  -33.0700  -22.3200 C.2       1 1QK        -0.0286
     21 C16        36.2380  -32.4770  -23.5790 C.2       1 1QK        -0.0933
     22 N18        34.1570  -31.3320  -23.9310 N.pl3     1 1QK        -0.1885
     23 C19        33.5950  -32.0980  -23.0000 C.3       1 1QK         0.0868
     24 O20        33.4870  -30.3870  -24.5870 O.3       1 1QK        -0.2715
     25 N21        28.5080  -33.7420  -22.7410 N.pl3     1 1QK        -0.2902
     26 C23        29.1330  -34.0640  -25.0050 C.3       1 1QK        -0.0324
     27 C25        27.3260  -32.4880  -24.4130 C.3       1 1QK        -0.0295
     28 C27        26.0770  -33.9890  -22.7950 C.3       1 1QK        -0.0064
     29 O29        25.9600  -33.6400  -20.3980 O.3       1 1QK        -0.3949
     30 H          31.2029  -34.1597  -22.3806 H         1 1QK         0.0368
     31 H          33.1748  -32.9558  -19.4134 H         1 1QK         0.1967
     32 H          32.9504  -34.6917  -21.8348 H         1 1QK         0.0706
     33 H          34.3715  -34.5416  -20.7464 H         1 1QK         0.0706
     34 H          36.2526  -34.0249  -22.0916 H         1 1QK         0.0218
     35 H          35.9694  -30.8690  -24.9240 H         1 1QK         0.0855
     36 H          28.2408  -35.5413  -23.7547 H         1 1QK         0.0523
     37 H          29.9401  -35.1282  -23.3444 H         1 1QK         0.0523
     38 H          27.1513  -34.1540  -25.6820 H         1 1QK         0.0267
     39 H          28.1257  -32.7924  -26.3325 H         1 1QK         0.0267
     40 H          27.1455  -32.2236  -22.3635 H         1 1QK         0.0559
     41 H          27.0234  -35.1055  -21.2595 H         1 1QK         0.0558
     42 H          25.2352  -35.2643  -21.3237 H         1 1QK         0.0558
     43 H          26.4663  -29.8917  -17.0724 H         1 1QK         0.0240
     44 H          28.0827  -29.2580  -17.5332 H         1 1QK         0.0240
     45 H          27.9382  -30.4922  -16.2361 H         1 1QK         0.0240
     46 H          27.2357  -30.8447  -19.1373 H         1 1QK         0.0312
     47 H          27.0913  -32.0789  -17.8402 H         1 1QK         0.0312
     48 H          30.2275  -30.9152  -16.7202 H         1 1QK         0.0579
     49 H          37.2831  -32.6136  -23.8530 H         1 1QK         0.0220
     50 H          33.2056  -31.4102  -22.2350 H         1 1QK         0.0726
     51 H          32.7561  -32.6104  -23.4937 H         1 1QK         0.0726
     52 H          32.7615  -30.7823  -25.0558 H         1 1QK         0.2504
     53 H          29.3982  -34.8270  -25.7516 H         1 1QK         0.0285
     54 H          29.9411  -33.3208  -24.9371 H         1 1QK         0.0285
     55 H          26.3068  -32.2179  -24.7264 H         1 1QK         0.0288
     56 H          27.9472  -31.5815  -24.3648 H         1 1QK         0.0288
     57 H          26.1130  -34.8192  -23.5158 H         1 1QK         0.0310
     58 H          25.1472  -33.4190  -22.9383 H         1 1QK         0.0310
     59 H          26.6870  -33.0300  -20.4422 H         1 1QK         0.2094
@<TRIPOS>BOND
     1   18    1 1  
     2    1   19 2  
     3    2    3 1  
     4   19    2 1  
     5    3   20 1  
     6   20    4 2  
     7    4   21 1  
     8   21    5 2  
     9    5   22 1  
    10   25    6 1  
    11    6   26 1  
    12   26    7 1  
    13   27    7 1  
    14   25    8 1  
    15    8   27 1  
    16    8   28 1  
    17   28    9 1  
    18    9   29 1  
    19   11   10 1  
    20   12   11 1  
    21   12   13 1  
    22   16   12 2  
    23   14   13 2  
    24   15   14 1  
    25   16   15 1  
    26   19   15 1  
    27   17   16 1  
    28   18   17 2  
    29   18   25 1  
    30   20   23 1  
    31   22   23 1  
    32   22   24 1  
    33    1   30 1  
    34    2   31 1  
    35    3   32 1  
    36    3   33 1  
    37    4   34 1  
    38    5   35 1  
    39    6   36 1  
    40    6   37 1  
    41    7   38 1  
    42    7   39 1  
    43    8   40 1  
    44    9   41 1  
    45    9   42 1  
    46   10   43 1  
    47   10   44 1  
    48   10   45 1  
    49   11   46 1  
    50   11   47 1  
    51   13   48 1  
    52   21   49 1  
    53   23   50 1  
    54   23   51 1  
    55   24   52 1  
    56   26   53 1  
    57   26   54 1  
    58   27   55 1  
    59   27   56 1  
    60   28   57 1  
    61   28   58 1  
    62   29   59 1  
@<TRIPOS>SUBSTRUCTURE
     1 1QK         1

