### 
### Created by X-TOOL on Mon Sep 10 21:13:16 2018
### 

@<TRIPOS>MOLECULE
4o71_ligand
   49    52     1     0     0
SMALL
GAST_HUCK


@<TRIPOS>ATOM
      1 C1         27.0900  100.4270   27.5010 C.3       1 CPB        -0.0430
      2 N1         26.4670  100.7190   28.8150 N.4       1 CPB         0.2351
      3 C16        25.0380  100.2950   28.8180 C.3       1 CPB        -0.0305
      4 C15        24.3750  100.6190   30.1690 C.3       1 CPB        -0.0017
      5 C14        25.1950  100.0420   31.3660 C.3       1 CPB         0.0215
      6 C13        26.6730  100.4740   31.2660 C.3       1 CPB         0.1030
      7 C12        27.2620  100.0830   29.9100 C.3       1 CPB        -0.0040
      8 C8         24.4590  100.2270   32.6710 C.ar      1 CPB         0.0228
      9 C9         23.8450   99.1140   33.2910 C.ar      1 CPB         0.1322
     10 O1         23.9750   97.9010   32.6920 O.3       1 CPB        -0.2448
     11 C2         23.3880   96.7680   33.1690 C.2       1 CPB         0.1417
     12 C3         22.6530   96.8200   34.3640 C.2       1 CPB         0.0078
     13 C4         22.5060   98.0540   35.0560 C.2       1 CPB         0.0995
     14 O4         21.8250   98.1310   36.1330 O.2       1 CPB        -0.4249
     15 C10        23.1120   99.2150   34.5050 C.ar      1 CPB         0.0721
     16 C5         23.0040  100.4820   35.0980 C.ar      1 CPB         0.0869
     17 O5         22.3020  100.6520   36.2360 O.3       1 CPB        -0.3368
     18 C6         23.6040  101.5800   34.4950 C.ar      1 CPB        -0.0144
     19 C7         24.3280  101.4780   33.3090 C.ar      1 CPB         0.0802
     20 O7         24.8560  102.6010   32.7810 O.3       1 CPB        -0.3389
     21 C21        23.6090   95.6000   32.3970 C.ar      1 CPB         0.0440
     22 C22        23.5110   95.5980   30.9720 C.ar      1 CPB         0.0577
     23 CL1        23.0760   96.9750   30.0810 Cl        1 CPB        -0.0650
     24 C23        23.7540   94.4150   30.2590 C.ar      1 CPB        -0.0431
     25 C24        24.0820   93.2380   30.9250 C.ar      1 CPB        -0.0577
     26 C25        24.1780   93.2350   32.3130 C.ar      1 CPB        -0.0569
     27 C26        23.9410   94.4040   33.0300 C.ar      1 CPB        -0.0446
     28 O3         26.8050  101.8760   31.4330 O.3       1 CPB        -0.3849
     29 H          26.4988  100.8985   26.7021 H         1 CPB         0.0778
     30 H          27.1186   99.3389   27.3425 H         1 CPB         0.0778
     31 H          28.1145  100.8272   27.4839 H         1 CPB         0.0778
     32 H          26.4898  101.7164   28.9592 H         1 CPB         0.2031
     33 H          24.9830   99.2109   28.6400 H         1 CPB         0.0816
     34 H          24.5026  100.8257   28.0170 H         1 CPB         0.0816
     35 H          23.3655  100.1825   30.1848 H         1 CPB         0.0335
     36 H          24.3040  101.7112   30.2788 H         1 CPB         0.0335
     37 H          25.2182   98.9520   31.2202 H         1 CPB         0.0427
     38 H          27.2392   99.9661   32.0607 H         1 CPB         0.0665
     39 H          28.3054  100.4263   29.8516 H         1 CPB         0.0841
     40 H          27.2290   98.9892   29.7984 H         1 CPB         0.0841
     41 H          22.1952   95.9153   34.7613 H         1 CPB         0.0418
     42 H          22.6792  100.1148   36.9227 H         1 CPB         0.2482
     43 H          23.5053  102.5521   34.9644 H         1 CPB         0.0388
     44 H          24.1591  103.2174   32.5891 H         1 CPB         0.2468
     45 H          23.6856   94.4175   29.1772 H         1 CPB         0.0633
     46 H          24.2619   92.3275   30.3649 H         1 CPB         0.0647
     47 H          24.4375   92.3217   32.8362 H         1 CPB         0.0629
     48 H          24.0168   94.3835   34.1112 H         1 CPB         0.0661
     49 H          27.7245  102.1125   31.4001 H         1 CPB         0.2102
@<TRIPOS>BOND
     1    1    2 1  
     2    2    3 1  
     3    2    7 1  
     4    3    4 1  
     5    4    5 1  
     6    5    6 1  
     7    5    8 1  
     8    6    7 1  
     9    6   28 1  
    10    8    9 ar 
    11    8   19 ar 
    12    9   10 1  
    13    9   15 ar 
    14   10   11 1  
    15   11   12 2  
    16   11   21 1  
    17   12   13 1  
    18   13   14 2  
    19   13   15 1  
    20   15   16 ar 
    21   16   17 1  
    22   16   18 ar 
    23   18   19 ar 
    24   19   20 1  
    25   21   22 ar 
    26   21   27 ar 
    27   22   23 1  
    28   22   24 ar 
    29   24   25 ar 
    30   25   26 ar 
    31   26   27 ar 
    32    1   29 1  
    33    1   30 1  
    34    1   31 1  
    35    2   32 1  
    36    3   33 1  
    37    3   34 1  
    38    4   35 1  
    39    4   36 1  
    40    5   37 1  
    41    6   38 1  
    42    7   39 1  
    43    7   40 1  
    44   12   41 1  
    45   17   42 1  
    46   18   43 1  
    47   20   44 1  
    48   24   45 1  
    49   25   46 1  
    50   26   47 1  
    51   27   48 1  
    52   28   49 1  
@<TRIPOS>SUBSTRUCTURE
     1 CPB         1

