### 
### Created by X-TOOL on Mon Sep 10 21:13:16 2018
### 

@<TRIPOS>MOLECULE
4o72_ligand
   49    54     1     0     0
SMALL
GAST_HUCK


@<TRIPOS>ATOM
      1 O01       129.2520   -3.9790    0.1040 O.2       1 2R4        -0.4342
      2 C02       128.2110   -4.6580   -0.0970 C.2       1 2R4         0.0866
      3 C03       126.9970   -4.4000    0.5890 C.ar      1 2R4         0.0540
      4 C04       125.8420   -5.1800    0.3070 C.ar      1 2R4         0.1592
      5 C05       124.5800   -4.9400    0.9170 C.ar      1 2R4         0.0241
      6 C06       123.4690   -5.7710    0.5790 C.ar      1 2R4        -0.0034
      7 C07       123.0250   -5.9050   -0.7590 C.ar      1 2R4        -0.0618
      8 C08       121.9410   -6.7400   -1.1010 C.ar      1 2R4        -0.0695
      9 C09       121.2700   -7.4700   -0.1120 C.ar      1 2R4        -0.0626
     10 C10       121.6930   -7.3580    1.2330 C.ar      1 2R4        -0.0075
     11 C11       122.7790   -6.5120    1.5400 C.ar      1 2R4         0.0459
     12 S12       123.0790   -6.5230    3.2730 S.3       1 2R4        -0.0361
     13 C13       121.8300   -7.7130    3.5690 C.ar      1 2R4         0.0390
     14 C14       121.1750   -8.0270    2.3630 C.ar      1 2R4        -0.0074
     15 C15       120.1220   -8.9650    2.4030 C.ar      1 2R4        -0.0615
     16 C16       119.7360   -9.5160    3.6310 C.ar      1 2R4        -0.0687
     17 C17       120.4120   -9.1920    4.8190 C.ar      1 2R4        -0.0679
     18 C18       121.4710   -8.2820    4.7990 C.ar      1 2R4        -0.0474
     19 C19       124.5190   -3.9380    1.8960 C.ar      1 2R4        -0.0571
     20 C20       125.6400   -3.1350    2.1770 C.ar      1 2R4        -0.0661
     21 C21       126.8590   -3.3550    1.5280 C.ar      1 2R4        -0.0521
     22 O22       125.9640   -6.1600   -0.6210 O.3       1 2R4        -0.2045
     23 C23       127.0760   -6.3870   -1.3600 C.2       1 2R4         0.2135
     24 N24       126.9270   -7.3310   -2.3330 N.pl3     1 2R4        -0.2584
     25 C25       125.6750   -8.0480   -2.4940 C.3       1 2R4         0.0607
     26 C26       125.1440   -7.8370   -3.9230 C.3       1 2R4         0.0689
     27 O27       126.1770   -8.1740   -4.8590 O.3       1 2R4        -0.3756
     28 C28       127.3220   -7.3270   -4.7010 C.3       1 2R4         0.0689
     29 C29       127.9510   -7.5880   -3.3250 C.3       1 2R4         0.0607
     30 C30       128.2350   -5.6300   -1.1010 C.2       1 2R4         0.0078
     31 H         123.5317   -5.3512   -1.5411 H         1 2R4         0.0584
     32 H         121.6255   -6.8171   -2.1352 H         1 2R4         0.0560
     33 H         120.4372   -8.1126   -0.3739 H         1 2R4         0.0587
     34 H         119.6156   -9.2569    1.4901 H         1 2R4         0.0597
     35 H         118.9001  -10.2053    3.6656 H         1 2R4         0.0561
     36 H         120.1106   -9.6498    5.7542 H         1 2R4         0.0592
     37 H         122.0005   -8.0229    5.7087 H         1 2R4         0.0572
     38 H         123.5967   -3.7799    2.4433 H         1 2R4         0.0621
     39 H         125.5576   -2.3363    2.9053 H         1 2R4         0.0550
     40 H         127.7068   -2.7164    1.7483 H         1 2R4         0.0633
     41 H         124.9393   -7.6687   -1.7696 H         1 2R4         0.0555
     42 H         125.8418   -9.1212   -2.3194 H         1 2R4         0.0555
     43 H         124.8538   -6.7845   -4.0571 H         1 2R4         0.0581
     44 H         124.2694   -8.4827   -4.0906 H         1 2R4         0.0581
     45 H         127.0139   -6.2734   -4.7717 H         1 2R4         0.0581
     46 H         128.0560   -7.5482   -5.4899 H         1 2R4         0.0581
     47 H         128.2889   -8.6326   -3.2566 H         1 2R4         0.0555
     48 H         128.8065   -6.9148   -3.1674 H         1 2R4         0.0555
     49 H         129.1425   -5.8006   -1.6783 H         1 2R4         0.0124
@<TRIPOS>BOND
     1    1    2 2  
     2    2    3 1  
     3    2   30 1  
     4    3    4 ar 
     5    3   21 ar 
     6    4    5 ar 
     7    4   22 1  
     8    5    6 1  
     9    5   19 ar 
    10    6    7 ar 
    11    6   11 ar 
    12    7    8 ar 
    13    8    9 ar 
    14    9   10 ar 
    15   10   11 ar 
    16   10   14 1  
    17   11   12 1  
    18   12   13 1  
    19   13   14 ar 
    20   13   18 ar 
    21   14   15 ar 
    22   15   16 ar 
    23   16   17 ar 
    24   17   18 ar 
    25   19   20 ar 
    26   20   21 ar 
    27   22   23 1  
    28   23   24 1  
    29   23   30 2  
    30   24   25 1  
    31   24   29 1  
    32   25   26 1  
    33   26   27 1  
    34   27   28 1  
    35   28   29 1  
    36    7   31 1  
    37    8   32 1  
    38    9   33 1  
    39   15   34 1  
    40   16   35 1  
    41   17   36 1  
    42   18   37 1  
    43   19   38 1  
    44   20   39 1  
    45   21   40 1  
    46   25   41 1  
    47   25   42 1  
    48   26   43 1  
    49   26   44 1  
    50   28   45 1  
    51   28   46 1  
    52   29   47 1  
    53   29   48 1  
    54   30   49 1  
@<TRIPOS>SUBSTRUCTURE
     1 2R4         1

