### 
### Created by X-TOOL on Mon Sep 10 21:13:16 2018
### 

@<TRIPOS>MOLECULE
4o74_ligand
   78    82     1     0     0
SMALL
GAST_HUCK


@<TRIPOS>ATOM
      1 N1          1.3150   -5.9510  -19.6770 N.ar      1 R78        -0.2878
      2 N3          1.7580  -10.1010  -20.1630 N.pl3     1 R78        -0.2687
      3 C4          2.1580   -6.5940  -18.8540 C.ar      1 R78         0.0200
      4 C5          2.2520  -10.8550  -19.0730 C.3       1 R78         0.1354
      5 C6          3.2620  -10.0790  -18.1800 C.2       1 R78         0.2284
      6 C7         -0.8250   -6.2880  -22.6650 C.ar      1 R78         0.0980
      7 C8          0.9980  -10.6400  -21.3430 C.3       1 R78         0.0438
      8 C10         0.3300  -10.3320  -17.4100 C.3       1 R78        -0.0610
      9 C13         0.4780  -12.4030  -22.7840 C.3       1 R78        -0.0509
     10 C15        -0.4850  -10.7820  -21.2760 C.3       1 R78        -0.0296
     11 C17        -2.2880   -5.4520  -24.3750 C.ar      1 R78        -0.0230
     12 C20        -0.7820   -7.5240  -23.2410 C.ar      1 R78        -0.0405
     13 C21        -3.0760   -6.8870  -26.2400 C.2       1 R78         0.1937
     14 C22        -3.6670   -8.3310  -28.2210 C.3       1 R78         0.0509
     15 C24        -3.4740   -9.1030  -30.4580 C.3       1 R78        -0.0300
     16 C28        -5.5520   -9.3430  -29.3770 C.3       1 R78        -0.0300
     17 O2         -3.8090   -5.9930  -26.6380 O.2       1 R78        -0.3904
     18 N6         -2.9340   -8.1210  -26.9480 N.am      1 R78        -0.2846
     19 C29        -4.8700   -9.1130  -28.0430 C.3       1 R78         0.0106
     20 N7         -4.6590   -9.9210  -30.2980 N.4       1 R78         0.2332
     21 C30        -5.1880  -10.1490  -31.3910 C.3       1 R78        -0.0431
     22 C23        -2.7670   -8.9010  -29.1520 C.3       1 R78         0.0106
     23 C18        -2.2720   -6.7050  -24.9640 C.ar      1 R78         0.0285
     24 C16        -1.5770   -5.2620  -23.2250 C.ar      1 R78         0.1199
     25 O3         -1.5410   -4.0230  -22.5490 O.3       1 R78        -0.3244
     26 C31        -2.3420   -2.9740  -23.1480 C.3       1 R78         0.0570
     27 C19        -1.5150   -7.7360  -24.4120 C.ar      1 R78        -0.0628
     28 N5         -0.1540   -5.8740  -21.4810 N.pl3     1 R78        -0.2527
     29 C1          0.6630   -6.6220  -20.6720 C.ar      1 R78         0.1779
     30 N2          0.8150   -7.9750  -20.8420 N.ar      1 R78        -0.2512
     31 C2          1.6050   -8.6480  -20.0030 C.ar      1 R78         0.1459
     32 C14        -0.7920  -11.5660  -22.5330 C.3       1 R78        -0.0509
     33 C12         1.4800  -12.0070  -21.6950 C.3       1 R78        -0.0296
     34 C9          1.1290  -11.4030  -18.1450 C.3       1 R78        -0.0147
     35 O1          4.0480  -10.7220  -17.4960 O.2       1 R78        -0.3839
     36 N4          3.2550   -8.7150  -18.1780 N.am      1 R78        -0.2208
     37 C11         4.2210   -7.9870  -17.3720 C.3       1 R78         0.0423
     38 C3          2.3260   -7.9880  -18.9950 C.ar      1 R78         0.1273
     39 H           2.7026   -6.0496  -18.0910 H         1 R78         0.0703
     40 H           2.7818  -11.7175  -19.5035 H         1 R78         0.0806
     41 H           1.2178   -9.9579  -22.1775 H         1 R78         0.0559
     42 H          -0.4357  -10.8117  -16.7827 H         1 R78         0.0232
     43 H          -0.1571   -9.6710  -18.1419 H         1 R78         0.0232
     44 H           1.0064   -9.7409  -16.7752 H         1 R78         0.0232
     45 H           0.8900  -12.1799  -23.7792 H         1 R78         0.0266
     46 H           0.2460  -13.4761  -22.7153 H         1 R78         0.0266
     47 H          -0.9800   -9.7998  -21.2885 H         1 R78         0.0288
     48 H          -0.7918  -11.3358  -20.3765 H         1 R78         0.0288
     49 H          -2.8528   -4.6394  -24.8174 H         1 R78         0.0553
     50 H          -0.1941   -8.3216  -22.8015 H         1 R78         0.0514
     51 H          -3.9747   -7.3471  -28.6048 H         1 R78         0.0559
     52 H          -3.7679   -8.1226  -30.8609 H         1 R78         0.0815
     53 H          -2.7896   -9.5987  -31.1622 H         1 R78         0.0815
     54 H          -5.9057   -8.3796  -29.7728 H         1 R78         0.0815
     55 H          -6.4091  -10.0173  -29.2331 H         1 R78         0.0815
     56 H          -2.3419   -8.8411  -26.5861 H         1 R78         0.1844
     57 H          -5.5565   -8.5748  -27.3729 H         1 R78         0.0339
     58 H          -4.6086  -10.0841  -27.5973 H         1 R78         0.0339
     59 H          -4.3677  -10.8071  -29.9159 H         1 R78         0.2030
     60 H          -4.4482  -10.5985  -32.0697 H         1 R78         0.0777
     61 H          -5.5574   -9.2073  -31.8231 H         1 R78         0.0777
     62 H          -6.0292  -10.8442  -31.2533 H         1 R78         0.0777
     63 H          -2.4097   -9.8699  -28.7730 H         1 R78         0.0339
     64 H          -1.9109   -8.2258  -29.2974 H         1 R78         0.0339
     65 H          -2.2478   -2.0547  -22.5513 H         1 R78         0.0573
     66 H          -3.3961   -3.2874  -23.1746 H         1 R78         0.0573
     67 H          -1.9901   -2.7837  -24.1726 H         1 R78         0.0573
     68 H          -1.4944   -8.7073  -24.8929 H         1 R78         0.0548
     69 H          -0.2991   -4.8946  -21.1970 H         1 R78         0.2125
     70 H          -1.6644  -12.2186  -22.3811 H         1 R78         0.0266
     71 H          -0.9841  -10.8877  -23.3774 H         1 R78         0.0266
     72 H           1.4280  -12.6876  -20.8324 H         1 R78         0.0288
     73 H           2.5091  -11.9844  -22.0828 H         1 R78         0.0288
     74 H           1.5944  -12.0586  -17.3943 H         1 R78         0.0310
     75 H           0.4309  -11.9887  -18.7611 H         1 R78         0.0310
     76 H           4.8463   -8.7007  -16.8155 H         1 R78         0.0544
     77 H           3.6898   -7.3347  -16.6632 H         1 R78         0.0544
     78 H           4.8580   -7.3747  -18.0272 H         1 R78         0.0544
@<TRIPOS>BOND
     1    1    3 ar 
     2   29    1 ar 
     3    2    4 1  
     4    2    7 1  
     5   31    2 1  
     6    3   38 ar 
     7    4    5 1  
     8    4   34 1  
     9    5   35 2  
    10    5   36 am 
    11    6   12 ar 
    12    6   24 ar 
    13   28    6 1  
    14    7   10 1  
    15    7   33 1  
    16   34    8 1  
    17    9   32 1  
    18   33    9 1  
    19   10   32 1  
    20   11   23 ar 
    21   24   11 ar 
    22   12   27 ar 
    23   13   17 2  
    24   13   18 am 
    25   23   13 1  
    26   18   14 1  
    27   14   19 1  
    28   14   22 1  
    29   15   20 1  
    30   22   15 1  
    31   19   16 1  
    32   16   20 1  
    33   20   21 1  
    34   27   23 ar 
    35   24   25 1  
    36   25   26 1  
    37   29   28 1  
    38   30   29 ar 
    39   30   31 ar 
    40   31   38 ar 
    41   36   37 1  
    42   36   38 1  
    43    3   39 1  
    44    4   40 1  
    45    7   41 1  
    46    8   42 1  
    47    8   43 1  
    48    8   44 1  
    49    9   45 1  
    50    9   46 1  
    51   10   47 1  
    52   10   48 1  
    53   11   49 1  
    54   12   50 1  
    55   14   51 1  
    56   15   52 1  
    57   15   53 1  
    58   16   54 1  
    59   16   55 1  
    60   18   56 1  
    61   19   57 1  
    62   19   58 1  
    63   20   59 1  
    64   21   60 1  
    65   21   61 1  
    66   21   62 1  
    67   22   63 1  
    68   22   64 1  
    69   26   65 1  
    70   26   66 1  
    71   26   67 1  
    72   27   68 1  
    73   28   69 1  
    74   32   70 1  
    75   32   71 1  
    76   33   72 1  
    77   33   73 1  
    78   34   74 1  
    79   34   75 1  
    80   37   76 1  
    81   37   77 1  
    82   37   78 1  
@<TRIPOS>SUBSTRUCTURE
     1 R78         1

