### 
### Created by X-TOOL on Mon Sep 10 21:13:16 2018
### 

@<TRIPOS>MOLECULE
4o76_ligand
   72    75     1     0     0
SMALL
GAST_HUCK


@<TRIPOS>ATOM
      1 O2          7.8910    4.8690  135.3500 O.2       1 1M3        -0.1505
      2 S1          7.1740    4.5890  133.9920 S.o2      1 1M3         0.0661
      3 O1          7.0360    3.0500  133.6300 O.2       1 1M3        -0.1505
      4 N7          5.5930    5.2780  133.8270 N.am      1 1M3        -0.2423
      5 C23         5.1030    6.4900  134.5200 C.3       1 1M3         0.0405
      6 C26         4.7710    6.0640  135.9790 C.3       1 1M3        -0.0430
      7 C25         3.8940    7.0310  133.6950 C.3       1 1M3        -0.0430
      8 C24         6.1830    7.6040  134.5610 C.3       1 1M3        -0.0430
      9 C21         8.1620    5.2360  132.6880 C.ar      1 1M3         0.0987
     10 C20         9.5190    4.9680  132.6940 C.ar      1 1M3        -0.0469
     11 C19        10.3440    5.4630  131.6680 C.ar      1 1M3        -0.0697
     12 C18         9.8170    6.2330  130.6390 C.ar      1 1M3        -0.0384
     13 C22         7.6140    6.0000  131.6340 C.ar      1 1M3        -0.0120
     14 C17         8.4350    6.5220  130.6080 C.ar      1 1M3         0.0646
     15 N1          8.0430    7.2870  129.5470 N.pl3     1 1M3        -0.2584
     16 C1          6.7630    7.5150  129.1090 C.ar      1 1M3         0.1373
     17 N3          5.7120    6.7930  129.5530 N.ar      1 1M3        -0.2418
     18 C4          4.4430    7.0000  129.0710 C.ar      1 1M3         0.1856
     19 N2          4.2670    7.9030  128.0860 N.ar      1 1M3        -0.2782
     20 C3          5.2700    8.6490  127.5840 C.ar      1 1M3         0.0017
     21 C2          6.5610    8.4710  128.0640 C.ar      1 1M3         0.0147
     22 C5          7.6250    9.2990  127.4600 C.3       1 1M3        -0.0289
     23 N4          3.3940    6.2950  129.5660 N.pl3     1 1M3        -0.2551
     24 C6          3.4380    5.2400  130.4180 C.ar      1 1M3         0.0514
     25 C11         4.5220    4.3830  130.6390 C.ar      1 1M3        -0.0493
     26 C10         4.4240    3.3250  131.5530 C.ar      1 1M3        -0.0530
     27 C9          3.2490    3.0590  132.2800 C.ar      1 1M3         0.0295
     28 C8          2.1690    3.9230  132.0320 C.ar      1 1M3        -0.0530
     29 C7          2.2620    4.9810  131.1200 C.ar      1 1M3        -0.0493
     30 N5          3.1330    1.9850  133.1640 N.pl3     1 1M3        -0.3046
     31 C15         4.3380    1.4480  133.7620 C.3       1 1M3         0.0649
     32 C14         4.2670    0.1840  134.6460 C.3       1 1M3        -0.0123
     33 N6          2.9540   -0.4970  134.6790 N.4       1 1M3         0.2358
     34 C16         2.8450   -1.3800  135.8690 C.3       1 1M3        -0.0430
     35 C13         1.7930    0.3850  134.4730 C.3       1 1M3        -0.0123
     36 C12         1.9370    1.1560  133.1440 C.3       1 1M3         0.0649
     37 H           4.9561    4.8163  133.2096 H         1 1M3         0.1678
     38 H           4.4003    6.9347  136.5398 H         1 1M3         0.0250
     39 H           5.6791    5.6755  136.4632 H         1 1M3         0.0250
     40 H           3.9988    5.2807  135.9656 H         1 1M3         0.0250
     41 H           3.4969    7.9364  134.1772 H         1 1M3         0.0250
     42 H           3.1071    6.2637  133.6515 H         1 1M3         0.0250
     43 H           4.2257    7.2744  132.6748 H         1 1M3         0.0250
     44 H           5.7812    8.4852  135.0826 H         1 1M3         0.0250
     45 H           6.4625    7.8817  133.5340 H         1 1M3         0.0250
     46 H           7.0706    7.2347  135.0955 H         1 1M3         0.0250
     47 H           9.9484    4.3741  133.4927 H         1 1M3         0.0537
     48 H          11.4049    5.2407  131.6805 H         1 1M3         0.0588
     49 H          10.4672    6.6124  129.8590 H         1 1M3         0.0535
     50 H           6.5469    6.1892  131.6113 H         1 1M3         0.0554
     51 H           8.7953    7.7460  129.0138 H         1 1M3         0.2145
     52 H           5.0710    9.3827  126.8112 H         1 1M3         0.0776
     53 H           8.5894    9.0570  127.9304 H         1 1M3         0.0368
     54 H           7.3963   10.3631  127.6190 H         1 1M3         0.0368
     55 H           7.6816    9.0934  126.3809 H         1 1M3         0.0368
     56 H           2.4575    6.5953  129.2598 H         1 1M3         0.2124
     57 H           5.4478    4.5392  130.0972 H         1 1M3         0.0505
     58 H           5.2869    2.6869  131.7058 H         1 1M3         0.0489
     59 H           1.2367    3.7657  132.5623 H         1 1M3         0.0489
     60 H           1.3979    5.6146  130.9557 H         1 1M3         0.0505
     61 H           4.7659    2.2470  134.3852 H         1 1M3         0.0562
     62 H           5.0270    1.2187  132.9357 H         1 1M3         0.0562
     63 H           4.5236    0.4753  135.6752 H         1 1M3         0.0834
     64 H           5.0117   -0.5338  134.2716 H         1 1M3         0.0834
     65 H           2.9522   -1.1149  133.8826 H         1 1M3         0.2032
     66 H           1.8620   -1.8737  135.8704 H         1 1M3         0.0778
     67 H           2.9544   -0.7783  136.7833 H         1 1M3         0.0778
     68 H           3.6378   -2.1418  135.8342 H         1 1M3         0.0778
     69 H           1.7302    1.1028  135.3042 H         1 1M3         0.0834
     70 H           0.8764   -0.2223  134.4429 H         1 1M3         0.0834
     71 H           2.0082    0.4373  132.3143 H         1 1M3         0.0562
     72 H           1.0546    1.7966  132.9995 H         1 1M3         0.0562
@<TRIPOS>BOND
     1    1    2 2  
     2    2    3 2  
     3    2    4 am 
     4    2    9 1  
     5    4    5 1  
     6    5    6 1  
     7    5    7 1  
     8    5    8 1  
     9    9   10 ar 
    10    9   13 ar 
    11   10   11 ar 
    12   11   12 ar 
    13   12   14 ar 
    14   13   14 ar 
    15   14   15 1  
    16   15   16 1  
    17   16   17 ar 
    18   16   21 ar 
    19   17   18 ar 
    20   18   19 ar 
    21   18   23 1  
    22   19   20 ar 
    23   20   21 ar 
    24   21   22 1  
    25   23   24 1  
    26   24   25 ar 
    27   24   29 ar 
    28   25   26 ar 
    29   26   27 ar 
    30   27   28 ar 
    31   27   30 1  
    32   28   29 ar 
    33   30   31 1  
    34   30   36 1  
    35   31   32 1  
    36   32   33 1  
    37   33   34 1  
    38   33   35 1  
    39   35   36 1  
    40    4   37 1  
    41    6   38 1  
    42    6   39 1  
    43    6   40 1  
    44    7   41 1  
    45    7   42 1  
    46    7   43 1  
    47    8   44 1  
    48    8   45 1  
    49    8   46 1  
    50   10   47 1  
    51   11   48 1  
    52   12   49 1  
    53   13   50 1  
    54   15   51 1  
    55   20   52 1  
    56   22   53 1  
    57   22   54 1  
    58   22   55 1  
    59   23   56 1  
    60   25   57 1  
    61   26   58 1  
    62   28   59 1  
    63   29   60 1  
    64   31   61 1  
    65   31   62 1  
    66   32   63 1  
    67   32   64 1  
    68   33   65 1  
    69   34   66 1  
    70   34   67 1  
    71   34   68 1  
    72   35   69 1  
    73   35   70 1  
    74   36   71 1  
    75   36   72 1  
@<TRIPOS>SUBSTRUCTURE
     1 1M3         1

