### 
### Created by X-TOOL on Mon Sep 10 21:13:16 2018
### 

@<TRIPOS>MOLECULE
4o77_ligand
   39    42     1     0     0
SMALL
GAST_HUCK


@<TRIPOS>ATOM
      1 F01        -6.5100  -12.5910  -25.7780 F         1 2RE        -0.1831
      2 C02        -5.9200  -11.8970  -24.8290 C.ar      1 2RE         0.1326
      3 C03        -4.8480  -12.4580  -24.1130 C.ar      1 2RE        -0.0277
      4 C04        -4.2090  -11.7220  -23.0940 C.ar      1 2RE        -0.0537
      5 C05        -4.6300  -10.4110  -22.7690 C.ar      1 2RE         0.0058
      6 C06        -3.9390   -9.7160  -21.7410 C.2       1 2RE         0.0946
      7 C07        -3.6190   -8.3550  -21.6270 C.2       1 2RE         0.0450
      8 C08        -3.8740   -7.2620  -22.4860 C.ar      1 2RE        -0.0065
      9 C09        -3.6720   -7.3740  -23.8850 C.ar      1 2RE        -0.0344
     10 C10        -3.9080   -6.2540  -24.7160 C.ar      1 2RE         0.0035
     11 N11        -4.3040   -5.0800  -24.1590 N.ar      1 2RE        -0.3063
     12 C12        -4.4890   -4.9260  -22.8190 C.ar      1 2RE         0.0035
     13 C13        -4.2690   -6.0150  -21.9470 C.ar      1 2RE        -0.0344
     14 N14        -2.9440   -8.2180  -20.4780 N.2       1 2RE        -0.3107
     15 C15        -2.8510   -9.4080  -19.8740 C.2       1 2RE         0.1331
     16 C16        -2.1750   -9.6690  -18.6610 C.ar      1 2RE         0.0186
     17 C17        -1.2630   -8.7160  -18.1330 C.ar      1 2RE        -0.0548
     18 C18        -0.5590   -8.9900  -16.9420 C.ar      1 2RE        -0.0291
     19 C19        -0.7550  -10.2150  -16.2670 C.ar      1 2RE         0.0917
     20 O20        -0.0830  -10.4750  -15.1140 O.3       1 2RE        -0.3304
     21 C21        -1.6420  -11.1720  -16.7940 C.ar      1 2RE        -0.0291
     22 C22        -2.3480  -10.8990  -17.9860 C.ar      1 2RE        -0.0548
     23 N23        -3.4390  -10.3380  -20.6540 N.pl3     1 2RE        -0.2505
     24 C24        -5.7150   -9.8610  -23.4890 C.ar      1 2RE        -0.0537
     25 C25        -6.3520  -10.5940  -24.5160 C.ar      1 2RE        -0.0277
     26 H          -4.5109  -13.4617  -24.3455 H         1 2RE         0.0605
     27 H          -3.3829  -12.1673  -22.5516 H         1 2RE         0.0610
     28 H          -3.3389   -8.3118  -24.3148 H         1 2RE         0.0669
     29 H          -3.7739   -6.3319  -25.7889 H         1 2RE         0.0801
     30 H          -4.8049   -3.9682  -22.4216 H         1 2RE         0.0801
     31 H          -4.4012   -5.8968  -20.8776 H         1 2RE         0.0669
     32 H          -1.1077   -7.7746  -18.6476 H         1 2RE         0.0620
     33 H           0.1345   -8.2583  -16.5436 H         1 2RE         0.0554
     34 H          -0.3046   -9.8180  -14.4646 H         1 2RE         0.2499
     35 H          -1.7832  -12.1186  -16.2850 H         1 2RE         0.0554
     36 H          -3.0296  -11.6401  -18.3876 H         1 2RE         0.0620
     37 H          -3.4961  -11.3468  -20.4543 H         1 2RE         0.2372
     38 H          -6.0635   -8.8627  -23.2501 H         1 2RE         0.0610
     39 H          -7.1758  -10.1516  -25.0644 H         1 2RE         0.0605
@<TRIPOS>BOND
     1    1    2 1  
     2    2    3 ar 
     3    2   25 ar 
     4    3    4 ar 
     5    4    5 ar 
     6    5    6 1  
     7    5   24 ar 
     8    6    7 2  
     9    6   23 1  
    10    7    8 1  
    11    7   14 1  
    12    8    9 ar 
    13    8   13 ar 
    14    9   10 ar 
    15   10   11 ar 
    16   11   12 ar 
    17   12   13 ar 
    18   14   15 2  
    19   15   16 1  
    20   15   23 1  
    21   16   17 ar 
    22   16   22 ar 
    23   17   18 ar 
    24   18   19 ar 
    25   19   20 1  
    26   19   21 ar 
    27   21   22 ar 
    28   24   25 ar 
    29    3   26 1  
    30    4   27 1  
    31    9   28 1  
    32   10   29 1  
    33   12   30 1  
    34   13   31 1  
    35   17   32 1  
    36   18   33 1  
    37   20   34 1  
    38   21   35 1  
    39   22   36 1  
    40   23   37 1  
    41   24   38 1  
    42   25   39 1  
@<TRIPOS>SUBSTRUCTURE
     1 2RE         1

