### 
### Created by X-TOOL on Mon Sep 10 21:13:16 2018
### 

@<TRIPOS>MOLECULE
4o78_ligand
   52    55     1     0     0
SMALL
GAST_HUCK


@<TRIPOS>ATOM
      1 N1        119.7320   -6.9520    3.0590 N.pl3     1 SAV        -0.2548
      2 N3        117.0850   -9.7690    0.4750 N.pl3     1 SAV        -0.2582
      3 C4        120.8560   -6.9170    2.2940 C.ar      1 SAV         0.0377
      4 C5        118.6030   -7.6590    2.9430 C.ar      1 SAV         0.1926
      5 C6        116.5420   -8.4200    3.8220 C.ar      1 SAV         0.0009
      6 C7        116.3040   -9.1350    2.6460 C.ar      1 SAV        -0.0020
      7 C8        117.2780   -9.0930    1.6230 C.ar      1 SAV         0.1337
      8 C10       118.3630   -8.5040   -1.1550 C.ar      1 SAV        -0.0455
      9 C13       120.2930   -9.9980   -4.0800 C.2       1 SAV         0.0241
     10 C15       119.0420  -10.8860   -2.4650 C.ar      1 SAV         0.0731
     11 C17       121.7460   -5.8730    2.5880 C.ar      1 SAV        -0.0287
     12 C20       123.2900   -6.6620    0.9430 C.ar      1 SAV         0.1351
     13 C21       125.5270   -7.3740    0.7220 C.3       1 SAV         0.0517
     14 C1        122.0810   -9.7620   -0.5550 C.3       1 SAV         0.0562
     15 O1        122.8290   -8.5640   -0.3300 O.3       1 SAV        -0.3306
     16 C2        122.4160   -7.7120    0.6380 C.ar      1 SAV         0.1026
     17 C3        121.2100   -7.8510    1.3140 C.ar      1 SAV        -0.0287
     18 N2        117.6890   -7.7070    3.9380 N.ar      1 SAV        -0.2696
     19 C9        117.8900   -9.7450   -0.6450 C.ar      1 SAV         0.0559
     20 C11       119.1750   -8.4700   -2.3150 C.ar      1 SAV        -0.0690
     21 C12       119.5140   -9.6750   -2.9590 C.ar      1 SAV         0.0050
     22 C14       121.0320   -9.1160   -5.0030 C.3       1 SAV        -0.0240
     23 N4        120.2540  -11.3400   -4.1780 N.2       1 SAV        -0.2268
     24 N5        119.5010  -11.8800   -3.2560 N.pl3     1 SAV        -0.2303
     25 C16       118.2310  -10.9360   -1.3180 C.ar      1 SAV        -0.0150
     26 N6        118.3970   -8.3550    1.8010 N.ar      1 SAV        -0.2352
     27 C18       122.9650   -5.7290    1.9170 C.ar      1 SAV         0.1026
     28 O2        123.8630   -4.7320    2.1460 O.3       1 SAV        -0.3306
     29 C19       123.4920   -3.6410    3.0060 C.3       1 SAV         0.0562
     30 O3        124.4720   -6.5280    0.2540 O.3       1 SAV        -0.3368
     31 H         119.7545   -6.3213    3.8730 H         1 SAV         0.2147
     32 H         116.2479  -10.3673    0.4279 H         1 SAV         0.2162
     33 H         115.8199   -8.4351    4.6303 H         1 SAV         0.0848
     34 H         115.3930   -9.7090    2.5209 H         1 SAV         0.0582
     35 H         118.1006   -7.5796   -0.6532 H         1 SAV         0.0478
     36 H         121.4813   -5.1570    3.3576 H         1 SAV         0.0346
     37 H         126.4300   -7.2023    0.1178 H         1 SAV         0.0564
     38 H         125.2203   -8.4265    0.6319 H         1 SAV         0.0564
     39 H         125.7417   -7.1435    1.7759 H         1 SAV         0.0564
     40 H         122.5466  -10.3376   -1.3685 H         1 SAV         0.0572
     41 H         121.0488   -9.5030   -0.8333 H         1 SAV         0.0572
     42 H         122.0723  -10.3669    0.3637 H         1 SAV         0.0572
     43 H         120.5477   -8.6776    1.0837 H         1 SAV         0.0346
     44 H         119.5326   -7.5235   -2.7039 H         1 SAV         0.0582
     45 H         121.5323   -9.7250   -5.7704 H         1 SAV         0.0386
     46 H         121.7848   -8.5445   -4.4402 H         1 SAV         0.0386
     47 H         120.3301   -8.4208   -5.4868 H         1 SAV         0.0386
     48 H         119.2946  -12.8837   -3.1514 H         1 SAV         0.2366
     49 H         117.8681  -11.8894   -0.9513 H         1 SAV         0.0446
     50 H         124.3292   -2.9313    3.0799 H         1 SAV         0.0572
     51 H         123.2506   -4.0286    4.0067 H         1 SAV         0.0572
     52 H         122.6125   -3.1283    2.5893 H         1 SAV         0.0572
@<TRIPOS>BOND
     1    1    3 1  
     2    4    1 1  
     3    2    7 1  
     4   19    2 1  
     5    3   11 ar 
     6    3   17 ar 
     7    4   18 ar 
     8   26    4 ar 
     9    6    5 ar 
    10    5   18 ar 
    11    7    6 ar 
    12    7   26 ar 
    13   19    8 ar 
    14    8   20 ar 
    15   21    9 1  
    16    9   22 1  
    17    9   23 2  
    18   10   21 ar 
    19   10   24 1  
    20   25   10 ar 
    21   11   27 ar 
    22   16   12 ar 
    23   27   12 ar 
    24   12   30 1  
    25   30   13 1  
    26   15   14 1  
    27   16   15 1  
    28   17   16 ar 
    29   19   25 ar 
    30   20   21 ar 
    31   23   24 1  
    32   27   28 1  
    33   28   29 1  
    34    1   31 1  
    35    2   32 1  
    36    5   33 1  
    37    6   34 1  
    38    8   35 1  
    39   11   36 1  
    40   13   37 1  
    41   13   38 1  
    42   13   39 1  
    43   14   40 1  
    44   14   41 1  
    45   14   42 1  
    46   17   43 1  
    47   20   44 1  
    48   22   45 1  
    49   22   46 1  
    50   22   47 1  
    51   24   48 1  
    52   25   49 1  
    53   29   50 1  
    54   29   51 1  
    55   29   52 1  
@<TRIPOS>SUBSTRUCTURE
     1 SAV         1

