### 
### Created by X-TOOL on Mon Sep 10 21:13:16 2018
### 

@<TRIPOS>MOLECULE
4o7a_ligand
   33    35     1     0     0
SMALL
GAST_HUCK


@<TRIPOS>ATOM
      1 C01       122.3290   -7.6310   -3.6990 C.ar      1 2RF        -0.0678
      2 C02       121.7720   -7.8810   -2.4530 C.ar      1 2RF        -0.0632
      3 C03       120.8260   -7.0080   -1.9460 C.ar      1 2RF        -0.0262
      4 C04       120.4110   -5.9160   -2.6760 C.ar      1 2RF        -0.0494
      5 C05       120.9600   -5.6680   -3.9160 C.ar      1 2RF         0.0340
      6 C06       121.9230   -6.5220   -4.4320 C.ar      1 2RF        -0.0541
      7 CL1       120.4390   -4.2810   -4.8180 Cl        1 2RF        -0.0725
      8 C08       120.1510   -7.2250   -0.6280 C.2       1 2RF         0.0845
      9 C09       120.3710   -6.6400    0.6850 C.2       1 2RF         0.1689
     10 C10       119.3510   -7.2000    1.6030 C.2       1 2RF         0.2761
     11 O11       119.2600   -6.9190    2.7770 O.2       1 2RF        -0.3528
     12 N12       118.5150   -8.1230    0.8530 N.am      1 2RF        -0.1993
     13 C13       118.9740   -8.1440   -0.5200 C.2       1 2RF         0.2169
     14 O14       118.5090   -8.8350   -1.4030 O.2       1 2RF        -0.3823
     15 N15       121.2680   -5.7020    1.2410 N.pl3     1 2RF        -0.2584
     16 C16       122.5780   -5.3960    0.8310 C.ar      1 2RF         0.0582
     17 C17       123.3420   -6.1880    0.0000 C.ar      1 2RF        -0.0306
     18 C18       124.6310   -5.7720   -0.2950 C.ar      1 2RF         0.0599
     19 C19       125.1240   -4.5960    0.2120 C.ar      1 2RF         0.0915
     20 C20       124.3560   -3.8140    1.0580 C.ar      1 2RF        -0.0405
     21 C21       123.0860   -4.2220    1.3550 C.ar      1 2RF        -0.0443
     22 O22       126.4310   -4.1930   -0.0810 O.3       1 2RF        -0.3389
     23 CL2       125.6370   -6.7030   -1.3540 Cl        1 2RF        -0.0812
     24 H         123.0808   -8.3006   -4.1008 H         1 2RF         0.0600
     25 H         122.0750   -8.7516   -1.8826 H         1 2RF         0.0565
     26 H         119.6533   -5.2522   -2.2757 H         1 2RF         0.0569
     27 H         122.3583   -6.3251   -5.4050 H         1 2RF         0.0570
     28 H         117.7522   -8.6535    1.2227 H         1 2RF         0.2198
     29 H         120.9174   -5.1731    2.0523 H         1 2RF         0.2195
     30 H         122.9459   -7.1096   -0.4108 H         1 2RF         0.0524
     31 H         124.7541   -2.8966    1.4763 H         1 2RF         0.0518
     32 H         122.4691   -3.6173    2.0099 H         1 2RF         0.0522
     33 H         126.9342   -4.1448    0.7234 H         1 2RF         0.2452
@<TRIPOS>BOND
     1    1    2 ar 
     2    1    6 ar 
     3    2    3 ar 
     4    3    4 ar 
     5    3    8 1  
     6    4    5 ar 
     7    5    6 ar 
     8    5    7 1  
     9    8    9 2  
    10    8   13 1  
    11    9   10 1  
    12    9   15 1  
    13   10   11 2  
    14   10   12 am 
    15   12   13 am 
    16   13   14 2  
    17   15   16 1  
    18   16   17 ar 
    19   16   21 ar 
    20   17   18 ar 
    21   18   19 ar 
    22   18   23 1  
    23   19   20 ar 
    24   19   22 1  
    25   20   21 ar 
    26    1   24 1  
    27    2   25 1  
    28    4   26 1  
    29    6   27 1  
    30   12   28 1  
    31   15   29 1  
    32   17   30 1  
    33   20   31 1  
    34   21   32 1  
    35   22   33 1  
@<TRIPOS>SUBSTRUCTURE
     1 2RF         1

