### 
### Created by X-TOOL on Mon Sep 10 21:13:16 2018
### 

@<TRIPOS>MOLECULE
4o7c_ligand
   52    56     1     0     0
SMALL
GAST_HUCK


@<TRIPOS>ATOM
      1 C01       114.1370   -8.1560    2.6650 C.3       1 2RK         0.0072
      2 C02       113.0650   -8.4270    3.7530 C.3       1 2RK        -0.0309
      3 N03       112.9440   -9.8640    4.0500 N.4       1 2RK         0.2273
      4 C04       114.2100  -10.4520    4.5290 C.3       1 2RK        -0.0309
      5 C05       115.3270  -10.2680    3.4730 C.3       1 2RK         0.0072
      6 C06       115.5020   -8.7850    3.0740 C.3       1 2RK         0.0486
      7 C07       116.5530   -8.6520    2.0310 C.2       1 2RK         0.1243
      8 N08       117.7120   -8.0150    2.2020 N.2       1 2RK        -0.3162
      9 C09       118.4340   -8.1130    1.0850 C.2       1 2RK         0.0261
     10 C10       119.7070   -7.5400    0.9960 C.ar      1 2RK        -0.0359
     11 C11       120.7530   -8.1280    0.2200 C.ar      1 2RK        -0.0709
     12 C12       122.0470   -7.5440    0.1810 C.ar      1 2RK        -0.0656
     13 C13       122.3120   -6.3630    0.8670 C.ar      1 2RK        -0.0095
     14 C14       123.4380   -5.6050    0.9430 C.3       1 2RK         0.1402
     15 C15       123.2360   -4.4580    1.8140 C.3       1 2RK        -0.0048
     16 C16       121.7700   -4.5610    2.2430 C.3       1 2RK        -0.0178
     17 C17       121.3070   -5.7810    1.5930 C.ar      1 2RK        -0.0401
     18 C18       120.0260   -6.3470    1.7040 C.ar      1 2RK        -0.0630
     19 N19       124.5690   -5.8190    0.3480 N.2       1 2RK        -0.0455
     20 O20       125.4400   -4.9670    0.3320 O.2       1 2RK        -0.1895
     21 C21       117.7020   -8.8510    0.1470 C.2       1 2RK         0.0920
     22 C22       117.9640   -9.2170   -1.1860 C.ar      1 2RK         0.0162
     23 C23       118.6500   -8.3690   -2.0420 C.ar      1 2RK        -0.0316
     24 C24       118.8980   -8.7110   -3.3240 C.ar      1 2RK         0.0038
     25 N25       118.4580   -9.8950   -3.7930 N.ar      1 2RK        -0.3061
     26 C26       117.7700  -10.7380   -2.9960 C.ar      1 2RK         0.0038
     27 C27       117.5150  -10.4190   -1.7070 C.ar      1 2RK        -0.0316
     28 N28       116.5490   -9.1680    0.7760 N.pl3     1 2RK        -0.2491
     29 H         114.2614   -7.0700    2.5422 H         1 2RK         0.0349
     30 H         113.8061   -8.5971    1.7132 H         1 2RK         0.0349
     31 H         112.0935   -8.0531    3.3976 H         1 2RK         0.0816
     32 H         113.3482   -7.8951    4.6733 H         1 2RK         0.0816
     33 H         112.6619  -10.3448    3.2102 H         1 2RK         0.2013
     34 H         112.2405   -9.9888    4.7610 H         1 2RK         0.2013
     35 H         114.0624  -11.5258    4.7164 H         1 2RK         0.0816
     36 H         114.5096   -9.9545    5.4632 H         1 2RK         0.0816
     37 H         115.0682  -10.8497    2.5760 H         1 2RK         0.0349
     38 H         116.2752  -10.6387    3.8895 H         1 2RK         0.0349
     39 H         115.8552   -8.2397    3.9616 H         1 2RK         0.0556
     40 H         120.5563   -9.0313   -0.3461 H         1 2RK         0.0526
     41 H         122.8354   -8.0228   -0.3885 H         1 2RK         0.0536
     42 H         123.1201   -5.0298    0.0609 H         1 2RK         0.0791
     43 H         123.4176   -3.5192    1.2702 H         1 2RK         0.0333
     44 H         123.9021   -4.5104    2.6878 H         1 2RK         0.0333
     45 H         121.1968   -3.6890    1.8951 H         1 2RK         0.0413
     46 H         121.6857   -4.6426    3.3367 H         1 2RK         0.0413
     47 H         119.2785   -5.8740    2.3305 H         1 2RK         0.0514
     48 H         118.9949   -7.4097   -1.6734 H         1 2RK         0.0675
     49 H         119.4475   -8.0376   -3.9719 H         1 2RK         0.0801
     50 H         117.4172  -11.6827   -3.3937 H         1 2RK         0.0801
     51 H         116.9579  -11.1057   -1.0800 H         1 2RK         0.0675
     52 H         115.7820   -9.7188    0.3646 H         1 2RK         0.2373
@<TRIPOS>BOND
     1    1    2 1  
     2    1    6 1  
     3    2    3 1  
     4    3    4 1  
     5    4    5 1  
     6    5    6 1  
     7    6    7 1  
     8    7    8 2  
     9    7   28 1  
    10    8    9 1  
    11    9   10 1  
    12    9   21 2  
    13   10   11 ar 
    14   10   18 ar 
    15   11   12 ar 
    16   12   13 ar 
    17   13   14 1  
    18   13   17 ar 
    19   14   15 1  
    20   14   19 1  
    21   15   16 1  
    22   16   17 1  
    23   17   18 ar 
    24   19   20 2  
    25   21   22 1  
    26   21   28 1  
    27   22   23 ar 
    28   22   27 ar 
    29   23   24 ar 
    30   24   25 ar 
    31   25   26 ar 
    32   26   27 ar 
    33    1   29 1  
    34    1   30 1  
    35    2   31 1  
    36    2   32 1  
    37    3   33 1  
    38    3   34 1  
    39    4   35 1  
    40    4   36 1  
    41    5   37 1  
    42    5   38 1  
    43    6   39 1  
    44   11   40 1  
    45   12   41 1  
    46   14   42 1  
    47   15   43 1  
    48   15   44 1  
    49   16   45 1  
    50   16   46 1  
    51   18   47 1  
    52   23   48 1  
    53   24   49 1  
    54   26   50 1  
    55   27   51 1  
    56   28   52 1  
@<TRIPOS>SUBSTRUCTURE
     1 2RK         1

