### 
### Created by X-TOOL on Mon Sep 10 21:13:18 2018
### 

@<TRIPOS>MOLECULE
4o7d_ligand
   21    20     1     0     0
SMALL
GAST_HUCK


@<TRIPOS>ATOM
      1 N          20.9380   -8.5420   64.5200 N.4       1 ONL         0.2328
      2 CA         20.0680   -7.4010   64.8690 C.3       1 ONL         0.0305
      3 C          18.9540   -7.9190   65.8330 C.2       1 ONL         0.0846
      4 O          18.4710   -7.1450   66.7100 O.co2     1 ONL        -0.5643
      5 OXT        18.6250   -9.1200   65.6710 O.co2     1 ONL        -0.5643
      6 CB         19.4960   -6.7460   63.5950 C.3       1 ONL         0.0182
      7 CG         18.6550   -5.4680   63.7700 C.3       1 ONL         0.0275
      8 CD         18.1860   -5.1520   62.3590 C.2       1 ONL         0.1022
      9 OD         18.9740   -5.0170   61.4330 O.2       1 ONL        -0.3919
     10 CE         16.6900   -5.3960   62.0850 C.3       1 ONL         0.0094
     11 H1         21.6665   -8.2307   63.8968 H         1 ONL         0.2010
     12 H2         20.3900   -9.2559   64.0662 H         1 ONL         0.2010
     13 H3         21.3515   -8.9182   65.3588 H         1 ONL         0.2010
     14 H4         20.6658   -6.6459   65.4004 H         1 ONL         0.1026
     15 H5         18.8606   -7.4931   63.0970 H         1 ONL         0.0364
     16 H6         20.3459   -6.4947   62.9435 H         1 ONL         0.0364
     17 H7         19.2667   -4.6476   64.1734 H         1 ONL         0.0497
     18 H8         17.7992   -5.6494   64.4368 H         1 ONL         0.0497
     19 H9         16.4614   -5.1364   61.0408 H         1 ONL         0.0458
     20 H10        16.0869   -4.7699   62.7589 H         1 ONL         0.0458
     21 H11        16.4534   -6.4560   62.2595 H         1 ONL         0.0458
@<TRIPOS>BOND
     1    1    2 1  
     2    2    3 1  
     3    2    6 1  
     4    3    4 ar 
     5    3    5 ar 
     6    6    7 1  
     7    7    8 1  
     8    8    9 2  
     9    8   10 1  
    10    1   11 1  
    11    1   12 1  
    12    1   13 1  
    13    2   14 1  
    14    6   15 1  
    15    6   16 1  
    16    7   17 1  
    17    7   18 1  
    18   10   19 1  
    19   10   20 1  
    20   10   21 1  
@<TRIPOS>SUBSTRUCTURE
     1 ONL         1

