### 
### Created by X-TOOL on Mon Sep 10 21:13:16 2018
### 

@<TRIPOS>MOLECULE
4o7e_ligand
   39    42     1     0     0
SMALL
GAST_HUCK


@<TRIPOS>ATOM
      1 C01        66.0920  121.5140   32.4270 C.ar      1 2RN        -0.0602
      2 C02        65.2060  121.6710   33.4870 C.ar      1 2RN        -0.0593
      3 C03        64.9350  122.9380   33.9830 C.ar      1 2RN        -0.0475
      4 C04        65.5700  124.0600   33.3950 C.ar      1 2RN         0.0288
      5 C05        66.4520  123.9130   32.3310 C.ar      1 2RN        -0.0475
      6 C06        66.7190  122.6390   31.8410 C.ar      1 2RN        -0.0593
      7 C07        65.2660  125.4740   33.9530 C.2       1 2RN         0.1417
      8 N08        65.6670  126.6350   33.4170 N.pl3     1 2RN        -0.2477
      9 C09        65.2030  127.6130   34.1910 C.2       1 2RN         0.0964
     10 C10        64.5120  127.0370   35.2340 C.2       1 2RN         0.0496
     11 N11        64.5590  125.7380   35.0790 N.2       1 2RN        -0.3046
     12 C12        63.7870  127.7030   36.4040 C.ar      1 2RN        -0.0046
     13 C13        64.2110  128.9470   36.9910 C.ar      1 2RN        -0.0338
     14 C14        63.5010  129.4610   38.0390 C.ar      1 2RN         0.0040
     15 N15        62.4240  128.8190   38.5240 N.ar      1 2RN        -0.3057
     16 C16        61.9880  127.6640   38.0190 C.ar      1 2RN         0.0040
     17 C17        62.6580  127.0780   36.9570 C.ar      1 2RN        -0.0338
     18 C18        65.4600  129.0600   33.9010 C.ar      1 2RN         0.0011
     19 C19        66.7760  129.4600   33.6830 C.ar      1 2RN        -0.0246
     20 C20        67.0500  130.8160   33.3940 C.ar      1 2RN         0.0871
     21 C21        66.0100  131.7490   33.3220 C.ar      1 2RN        -0.0337
     22 C22        64.6780  131.3340   33.5300 C.ar      1 2RN        -0.0701
     23 C23        64.4000  129.9850   33.8190 C.ar      1 2RN        -0.0630
     24 O24        68.3850  131.2250   33.1850 O.3       1 2RN        -0.3335
     25 H          66.3042  120.5215   32.0463 H         1 2RN         0.0630
     26 H          64.7269  120.8033   33.9259 H         1 2RN         0.0622
     27 H          64.2462  123.0680   34.8099 H         1 2RN         0.0642
     28 H          66.9264  124.7813   31.8881 H         1 2RN         0.0642
     29 H          67.4056  122.5083   31.0124 H         1 2RN         0.0622
     30 H          66.2309  126.7493   32.5627 H         1 2RN         0.2385
     31 H          65.0806  129.4682   36.6073 H         1 2RN         0.0672
     32 H          63.8103  130.3991   38.4855 H         1 2RN         0.0802
     33 H          61.1110  127.1846   38.4387 H         1 2RN         0.0802
     34 H          62.3096  126.1347   36.5522 H         1 2RN         0.0672
     35 H          67.5828  128.7379   33.7345 H         1 2RN         0.0536
     36 H          66.2274  132.7889   33.1068 H         1 2RN         0.0541
     37 H          63.8695  132.0533   33.4673 H         1 2RN         0.0589
     38 H          63.3781  129.6599   33.9773 H         1 2RN         0.0530
     39 H          68.9617  130.4747   33.2686 H         1 2RN         0.2479
@<TRIPOS>BOND
     1    1    2 ar 
     2    1    6 ar 
     3    2    3 ar 
     4    3    4 ar 
     5    4    5 ar 
     6    4    7 1  
     7    5    6 ar 
     8    7    8 1  
     9    7   11 2  
    10    8    9 1  
    11    9   10 2  
    12    9   18 1  
    13   10   11 1  
    14   10   12 1  
    15   12   13 ar 
    16   12   17 ar 
    17   13   14 ar 
    18   14   15 ar 
    19   15   16 ar 
    20   16   17 ar 
    21   18   19 ar 
    22   18   23 ar 
    23   19   20 ar 
    24   20   21 ar 
    25   20   24 1  
    26   21   22 ar 
    27   22   23 ar 
    28    1   25 1  
    29    2   26 1  
    30    3   27 1  
    31    5   28 1  
    32    6   29 1  
    33    8   30 1  
    34   13   31 1  
    35   14   32 1  
    36   16   33 1  
    37   17   34 1  
    38   19   35 1  
    39   21   36 1  
    40   22   37 1  
    41   23   38 1  
    42   24   39 1  
@<TRIPOS>SUBSTRUCTURE
     1 2RN         1

