### 
### Created by X-TOOL on Mon Sep 10 21:13:17 2018
### 

@<TRIPOS>MOLECULE
4o91_ligand
   71    75     1     0     0
SMALL
GAST_HUCK


@<TRIPOS>ATOM
      1 C01       -11.0070  -50.4670  -11.9500 C.3       1 NG2        -0.0298
      2 C02        -9.7960  -50.2680  -12.8730 C.ar      1 NG2        -0.0062
      3 C03        -8.4950  -50.4150  -12.3750 C.ar      1 NG2        -0.0615
      4 C04        -7.4000  -50.2240  -13.2300 C.ar      1 NG2        -0.0581
      5 C05        -7.6210  -49.9100  -14.5790 C.ar      1 NG2         0.0412
      6 C06        -8.9160  -49.7640  -15.0800 C.ar      1 NG2        -0.0138
      7 C07        -9.9940  -49.9330  -14.2270 C.ar      1 NG2         0.1270
      8 O08       -11.2840  -49.8240  -14.7660 O.3       1 NG2        -0.2533
      9 C09       -11.8780  -48.5430  -14.6910 C.ar      1 NG2         0.1252
     10 C10       -11.2370  -47.4020  -14.1230 C.ar      1 NG2        -0.0182
     11 C11       -11.9600  -46.1940  -14.1170 C.ar      1 NG2        -0.0180
     12 N12       -13.1990  -46.0880  -14.6200 N.ar      1 NG2        -0.3039
     13 C13       -13.8230  -47.1760  -15.1660 C.ar      1 NG2         0.1247
     14 C14       -13.2060  -48.4110  -15.2240 C.ar      1 NG2         0.0348
     15 C15       -14.1440  -49.3020  -15.8500 C.2       1 NG2        -0.0582
     16 C16       -15.2900  -48.5500  -16.1460 C.2       1 NG2         0.0221
     17 N17       -15.0760  -47.3000  -15.7300 N.pl3     1 NG2        -0.2712
     18 C18        -6.4630  -49.6730  -15.5480 C.2       1 NG2         0.2241
     19 N19        -5.1210  -49.8410  -15.0740 N.am      1 NG2        -0.2316
     20 C20        -3.9220  -49.6120  -15.8510 C.ar      1 NG2         0.0879
     21 C21        -2.8130  -50.4650  -15.6790 C.ar      1 NG2        -0.0148
     22 C22        -1.6260  -50.2380  -16.3890 C.ar      1 NG2        -0.0316
     23 C23        -1.5170  -49.1550  -17.2720 C.ar      1 NG2         0.0246
     24 C24        -2.6400  -48.2870  -17.4340 C.ar      1 NG2         0.0386
     25 C25        -2.5810  -47.0720  -18.3940 C.3       1 NG2         0.3645
     26 F26        -3.7870  -46.5240  -18.4510 F         1 NG2        -0.2292
     27 F27        -1.6950  -46.1660  -17.9630 F         1 NG2        -0.2292
     28 F28        -2.2290  -47.4830  -19.6320 F         1 NG2        -0.2292
     29 C29        -3.8150  -48.5040  -16.7200 C.ar      1 NG2        -0.0202
     30 C30        -0.1950  -48.9280  -18.0570 C.3       1 NG2         0.0130
     31 N31         0.3930  -50.0750  -18.3170 N.4       1 NG2         0.2588
     32 C32         1.7360  -49.8930  -18.4250 C.3       1 NG2         0.0114
     33 C33         2.4800  -51.1620  -18.8400 C.3       1 NG2         0.0095
     34 N34         1.9020  -51.8220  -19.8940 N.4       1 NG2         0.2425
     35 C35         0.5640  -51.9470  -19.7780 C.3       1 NG2         0.0095
     36 C36        -0.1390  -50.6280  -19.4350 C.3       1 NG2         0.0114
     37 C37         2.4050  -53.0060  -20.0040 C.3       1 NG2        -0.0344
     38 C38         3.7410  -53.0140  -20.7940 C.3       1 NG2        -0.0245
     39 O39        -6.7090  -49.3310  -16.6780 O.2       1 NG2        -0.3769
     40 H         -10.6588  -50.7217  -10.9381 H         1 NG2         0.0381
     41 H         -11.6338  -51.2832  -12.3383 H         1 NG2         0.0381
     42 H         -11.5958  -49.5386  -11.9123 H         1 NG2         0.0381
     43 H          -8.3356  -50.6749  -11.3348 H         1 NG2         0.0542
     44 H          -6.3889  -50.3185  -12.8506 H         1 NG2         0.0567
     45 H          -9.0758  -49.5212  -16.1243 H         1 NG2         0.0584
     46 H         -10.2353  -47.4626  -13.7132 H         1 NG2         0.0516
     47 H         -11.4962  -45.3131  -13.6881 H         1 NG2         0.0712
     48 H         -13.9933  -50.3608  -16.0556 H         1 NG2         0.0297
     49 H         -16.1932  -48.9199  -16.6290 H         1 NG2         0.0915
     50 H         -15.7554  -46.5309  -15.8182 H         1 NG2         0.2290
     51 H          -5.0034  -50.1415  -14.1275 H         1 NG2         0.2238
     52 H          -2.8786  -51.3019  -14.9932 H         1 NG2         0.0763
     53 H          -0.7837  -50.9069  -16.2538 H         1 NG2         0.0616
     54 H          -4.6495  -47.8212  -16.8312 H         1 NG2         0.0655
     55 H           0.4809  -48.3042  -17.4537 H         1 NG2         0.1043
     56 H          -0.4204  -48.4149  -19.0035 H         1 NG2         0.1043
     57 H           0.2233  -50.7030  -17.5470 H         1 NG2         0.2058
     58 H           2.1243  -49.5621  -17.4504 H         1 NG2         0.0868
     59 H           1.9246  -49.1141  -19.1785 H         1 NG2         0.0868
     60 H           2.5099  -51.8444  -17.9778 H         1 NG2         0.0868
     61 H           3.5059  -50.8854  -19.1245 H         1 NG2         0.0868
     62 H           2.1007  -51.3011  -20.7338 H         1 NG2         0.2037
     63 H           0.3487  -52.6750  -18.9820 H         1 NG2         0.0868
     64 H           0.1636  -52.3184  -20.7328 H         1 NG2         0.0868
     65 H          -0.0211  -49.9276  -20.2749 H         1 NG2         0.0868
     66 H          -1.2086  -50.8226  -19.2672 H         1 NG2         0.0868
     67 H           1.6821  -53.6490  -20.5273 H         1 NG2         0.0812
     68 H           2.5891  -53.4060  -18.9960 H         1 NG2         0.0812
     69 H           4.1234  -54.0434  -20.8571 H         1 NG2         0.0281
     70 H           4.4767  -52.3807  -20.2767 H         1 NG2         0.0281
     71 H           3.5697  -52.6237  -21.8081 H         1 NG2         0.0281
@<TRIPOS>BOND
     1    1    2 1  
     2    2    3 ar 
     3    2    7 ar 
     4    3    4 ar 
     5    4    5 ar 
     6    5    6 ar 
     7    5   18 1  
     8    6    7 ar 
     9    7    8 1  
    10    8    9 1  
    11    9   10 ar 
    12    9   14 ar 
    13   10   11 ar 
    14   11   12 ar 
    15   12   13 ar 
    16   13   14 ar 
    17   13   17 1  
    18   14   15 1  
    19   15   16 2  
    20   16   17 1  
    21   18   19 am 
    22   18   39 2  
    23   19   20 1  
    24   20   21 ar 
    25   20   29 ar 
    26   21   22 ar 
    27   22   23 ar 
    28   23   24 ar 
    29   23   30 1  
    30   24   25 1  
    31   24   29 ar 
    32   25   26 1  
    33   25   27 1  
    34   25   28 1  
    35   30   31 1  
    36   31   32 1  
    37   31   36 1  
    38   32   33 1  
    39   33   34 1  
    40   34   35 1  
    41   34   37 1  
    42   35   36 1  
    43   37   38 1  
    44    1   40 1  
    45    1   41 1  
    46    1   42 1  
    47    3   43 1  
    48    4   44 1  
    49    6   45 1  
    50   10   46 1  
    51   11   47 1  
    52   15   48 1  
    53   16   49 1  
    54   17   50 1  
    55   19   51 1  
    56   21   52 1  
    57   22   53 1  
    58   29   54 1  
    59   30   55 1  
    60   30   56 1  
    61   31   57 1  
    62   32   58 1  
    63   32   59 1  
    64   33   60 1  
    65   33   61 1  
    66   34   62 1  
    67   35   63 1  
    68   35   64 1  
    69   36   65 1  
    70   36   66 1  
    71   37   67 1  
    72   37   68 1  
    73   38   69 1  
    74   38   70 1  
    75   38   71 1  
@<TRIPOS>SUBSTRUCTURE
     1 NG2         1

