### 
### Created by X-TOOL on Mon Sep 10 21:13:18 2018
### 

@<TRIPOS>MOLECULE
4o97_ligand
   75    78     1     0     0
SMALL
GAST_HUCK


@<TRIPOS>ATOM
      1 N1         20.5680    2.7730   23.3550 N.am      1 NTX        -0.2833
      2 N3         20.1870    8.6940   32.3640 N.pl3     1 NTX        -0.2722
      3 C4         19.3470    6.0660   26.0310 C.ar      1 NTX         0.0906
      4 C5         19.8750    5.1260   25.1300 C.ar      1 NTX        -0.0243
      5 C6         19.0490    4.6370   24.1100 C.ar      1 NTX         0.0328
      6 C7         19.5850    3.6540   23.1070 C.2       1 NTX         0.2003
      7 C8         21.0150    1.8800   22.2520 C.3       1 NTX         0.0419
      8 C10        22.6020    8.3080   27.7140 C.ar      1 NTX        -0.0578
      9 C13        14.7910   10.3200   23.0520 C.ar      1 NTX        -0.0685
     10 C15        13.9780   11.0690   25.2320 C.ar      1 NTX         0.0193
     11 C17        14.8370    8.7910   24.9750 C.ar      1 NTX        -0.0129
     12 C20        21.6760    8.8050   30.3190 C.ar      1 NTX         0.0193
     13 C21        22.5180    9.7170   29.6760 C.ar      1 NTX        -0.0635
     14 C22        22.9710    9.4770   28.3820 C.ar      1 NTX        -0.0685
     15 C24        23.2010    1.0130   21.2340 C.3       1 NTX        -0.0077
     16 C26        21.4360   -0.6100   21.7380 C.3       1 NTX        -0.0077
     17 C28        21.2230    9.2080   31.6910 C.cat     1 NTX         0.2340
     18 O1         19.0950    3.7310   21.9980 O.2       1 NTX        -0.3847
     19 C23        22.5280    2.1170   22.0470 C.3       1 NTX        -0.0249
     20 C25        22.9220   -0.3150   21.9270 C.3       1 NTX        -0.0242
     21 N4         23.7830   -1.3720   21.4370 N.4       1 NTX         0.2207
     22 C27        20.6760    0.4110   22.5990 C.3       1 NTX        -0.0249
     23 O2         20.0960    6.5900   27.0630 O.3       1 NTX        -0.3073
     24 C9         21.3660    6.1390   27.5950 C.3       1 NTX         0.1041
     25 C18        21.7850    7.3790   28.3560 C.ar      1 NTX        -0.0129
     26 N2         21.9060   10.2000   32.2410 N.pl3     1 NTX        -0.2722
     27 C19        21.2990    7.6290   29.6690 C.ar      1 NTX        -0.0525
     28 C3         18.0100    6.5090   25.8860 C.ar      1 NTX        -0.0006
     29 C2         17.1510    6.0230   24.8660 C.ar      1 NTX         0.0906
     30 C1         17.7060    5.0780   23.9850 C.ar      1 NTX        -0.0243
     31 O3         15.8090    6.4440   24.7160 O.3       1 NTX        -0.3073
     32 C11        15.1540    7.4130   25.5800 C.3       1 NTX         0.1041
     33 C16        14.2790    9.8040   25.7840 C.ar      1 NTX        -0.0525
     34 C29        13.3970   12.1920   26.0770 C.cat     1 NTX         0.2340
     35 N5         12.7210   11.9990   27.2190 N.pl3     1 NTX        -0.2722
     36 N6         13.5640   13.4590   25.6790 N.pl3     1 NTX        -0.2722
     37 C14        14.2470   11.3220   23.8660 C.ar      1 NTX        -0.0635
     38 C12        15.0880    9.0640   23.6160 C.ar      1 NTX        -0.0578
     39 H          20.9897    2.7185   24.2601 H         1 NTX         0.1848
     40 H          19.9600    9.0440   33.3057 H         1 NTX         0.3181
     41 H          19.6166    7.9483   31.9403 H         1 NTX         0.3181
     42 H          20.9003    4.7863   25.2224 H         1 NTX         0.0502
     43 H          20.4854    2.1483   21.3260 H         1 NTX         0.0555
     44 H          22.9483    8.1241   26.7034 H         1 NTX         0.0557
     45 H          14.9809   10.5089   22.0016 H         1 NTX         0.0599
     46 H          22.8215   10.6213   30.1910 H         1 NTX         0.0559
     47 H          23.6124   10.2001   27.8913 H         1 NTX         0.0599
     48 H          24.2857    1.1903   21.1888 H         1 NTX         0.0320
     49 H          22.7894    0.9960   20.2141 H         1 NTX         0.0320
     50 H          21.2063   -1.6331   22.0703 H         1 NTX         0.0320
     51 H          21.1576   -0.4969   20.6799 H         1 NTX         0.0320
     52 H          23.0113    2.1696   23.0337 H         1 NTX         0.0289
     53 H          22.6647    3.0729   21.5202 H         1 NTX         0.0289
     54 H          23.1199   -0.2003   23.0029 H         1 NTX         0.0850
     55 H          24.7465   -1.1185   21.5899 H         1 NTX         0.1997
     56 H          23.6232   -1.5055   20.4508 H         1 NTX         0.1997
     57 H          23.5785   -2.2274   21.9294 H         1 NTX         0.1997
     58 H          19.5969    0.2577   22.4507 H         1 NTX         0.0289
     59 H          20.9298    0.2345   23.6547 H         1 NTX         0.0289
     60 H          22.0789    5.8902   26.7951 H         1 NTX         0.0778
     61 H          21.2452    5.2721   28.2613 H         1 NTX         0.0778
     62 H          22.7075   10.6121   31.7423 H         1 NTX         0.3181
     63 H          21.6358   10.5596   33.1676 H         1 NTX         0.3181
     64 H          20.6450    6.9161   30.1580 H         1 NTX         0.0557
     65 H          17.6277    7.2479   26.5809 H         1 NTX         0.0498
     66 H          17.0910    4.6753   23.1884 H         1 NTX         0.0502
     67 H          14.2034    6.9707   25.9126 H         1 NTX         0.0778
     68 H          15.8071    7.5756   26.4500 H         1 NTX         0.0778
     69 H          14.0808    9.6107   26.8321 H         1 NTX         0.0557
     70 H          12.3538   12.8063   27.7428 H         1 NTX         0.3181
     71 H          12.5690   11.0435   27.5723 H         1 NTX         0.3181
     72 H          14.0760   13.6622   24.8087 H         1 NTX         0.3181
     73 H          13.1805   14.2308   26.2431 H         1 NTX         0.3181
     74 H          14.0306   12.2979   23.4465 H         1 NTX         0.0559
     75 H          15.5191    8.2906   22.9907 H         1 NTX         0.0557
@<TRIPOS>BOND
     1    6    1 am 
     2    1    7 1  
     3   17    2 ar 
     4    3    4 ar 
     5    3   23 1  
     6   28    3 ar 
     7    5    4 ar 
     8    5    6 1  
     9   30    5 ar 
    10    6   18 2  
    11    7   19 1  
    12    7   22 1  
    13    8   14 ar 
    14   25    8 ar 
    15    9   37 ar 
    16   38    9 ar 
    17   33   10 ar 
    18   10   34 1  
    19   10   37 ar 
    20   32   11 1  
    21   11   33 ar 
    22   11   38 ar 
    23   12   13 ar 
    24   12   17 1  
    25   27   12 ar 
    26   14   13 ar 
    27   19   15 1  
    28   15   20 1  
    29   16   20 1  
    30   22   16 1  
    31   17   26 ar 
    32   20   21 1  
    33   23   24 1  
    34   24   25 1  
    35   25   27 ar 
    36   29   28 ar 
    37   29   30 ar 
    38   31   29 1  
    39   31   32 1  
    40   34   35 ar 
    41   34   36 ar 
    42    1   39 1  
    43    2   40 1  
    44    2   41 1  
    45    4   42 1  
    46    7   43 1  
    47    8   44 1  
    48    9   45 1  
    49   13   46 1  
    50   14   47 1  
    51   15   48 1  
    52   15   49 1  
    53   16   50 1  
    54   16   51 1  
    55   19   52 1  
    56   19   53 1  
    57   20   54 1  
    58   21   55 1  
    59   21   56 1  
    60   21   57 1  
    61   22   58 1  
    62   22   59 1  
    63   24   60 1  
    64   24   61 1  
    65   26   62 1  
    66   26   63 1  
    67   27   64 1  
    68   28   65 1  
    69   30   66 1  
    70   32   67 1  
    71   32   68 1  
    72   33   69 1  
    73   35   70 1  
    74   35   71 1  
    75   36   72 1  
    76   36   73 1  
    77   37   74 1  
    78   38   75 1  
@<TRIPOS>SUBSTRUCTURE
     1 NTX         1

