### 
### Created by X-TOOL on Mon Sep 10 21:13:20 2018
### 

@<TRIPOS>MOLECULE
4o9s_ligand
   52    56     1     0     0
SMALL
GAST_HUCK


@<TRIPOS>ATOM
      1 F1        -65.4350    3.3000   -2.2540 F         1 2RY        -0.2262
      2 C22       -66.1050    4.0220   -1.3740 C.3       1 2RY         0.3707
      3 F2        -67.2440    4.4050   -1.9210 F         1 2RY        -0.2262
      4 F3        -65.4080    5.1010   -1.0680 F         1 2RY        -0.2262
      5 C21       -66.3520    3.2060   -0.1280 C.ar      1 2RY         0.0512
      6 C20       -67.6660    3.0400    0.3260 C.ar      1 2RY        -0.0376
      7 C19       -67.9360    2.2970    1.4710 C.ar      1 2RY        -0.0390
      8 C18       -66.8950    1.7100    2.1780 C.ar      1 2RY        -0.0402
      9 C17       -65.5860    1.8700    1.7350 C.ar      1 2RY        -0.0269
     10 C16       -65.3040    2.6120    0.5870 C.ar      1 2RY         0.0096
     11 C9        -63.8430    2.7270    0.1840 C.3       1 2RY         0.0858
     12 C8        -63.3460    1.4380   -0.4470 C.2       1 2RY         0.1963
     13 O1        -64.1200    0.5010   -0.5630 O.2       1 2RY        -0.3921
     14 N4        -62.0700    1.3590   -0.8650 N.am      1 2RY        -0.2668
     15 C15       -61.5780    0.1000   -1.4540 C.3       1 2RY         0.0548
     16 C7        -60.5700    0.3430   -2.5760 C.3       1 2RY         0.0530
     17 C6        -61.1200    2.4740   -0.7170 C.3       1 2RY         0.0548
     18 C5        -60.2540    2.5810   -1.9660 C.3       1 2RY         0.0530
     19 N3        -59.5520    1.2990   -2.1150 N.pl3     1 2RY        -0.2843
     20 C1        -58.4410    1.3870   -2.9860 C.ar      1 2RY         0.1249
     21 C3        -57.2600    1.9850   -2.5480 C.ar      1 2RY         0.0403
     22 N1        -58.4850    0.8810   -4.2460 N.ar      1 2RY        -0.2686
     23 C2        -57.4260    0.9550   -5.0700 C.ar      1 2RY         0.0545
     24 N2        -56.2790    1.5310   -4.6770 N.ar      1 2RY        -0.2828
     25 C4        -56.1670    2.0510   -3.4290 C.ar      1 2RY         0.1017
     26 S1        -54.7210    2.7830   -2.9140 S.3       1 2RY        -0.0216
     27 C11       -55.5150    3.0690   -1.4040 C.2       1 2RY         0.0155
     28 C10       -56.8740    2.5910   -1.3480 C.2       1 2RY        -0.0387
     29 C12       -55.0000    3.7320   -0.1720 C.3       1 2RY        -0.0104
     30 C13       -56.2640    3.6150    0.7210 C.3       1 2RY        -0.0385
     31 C14       -57.4440    2.8970    0.0070 C.3       1 2RY        -0.0338
     32 H         -68.4831    3.4960   -0.2213 H         1 2RY         0.0821
     33 H         -68.9583    2.1765    1.8109 H         1 2RY         0.0650
     34 H         -67.1012    1.1302    3.0704 H         1 2RY         0.0834
     35 H         -64.7743    1.4123    2.2888 H         1 2RY         0.0640
     36 H         -63.2400    2.9451    1.0778 H         1 2RY         0.0736
     37 H         -63.7339    3.5470   -0.5410 H         1 2RY         0.0736
     38 H         -62.4335   -0.4587   -1.8613 H         1 2RY         0.0543
     39 H         -61.0937   -0.4946   -0.6654 H         1 2RY         0.0543
     40 H         -61.0894    0.7541   -3.4542 H         1 2RY         0.0547
     41 H         -60.0861   -0.6068   -2.8475 H         1 2RY         0.0547
     42 H         -60.4785    2.2939    0.1582 H         1 2RY         0.0543
     43 H         -61.6766    3.4123   -0.5768 H         1 2RY         0.0543
     44 H         -59.5269    3.3985   -1.8523 H         1 2RY         0.0547
     45 H         -60.8843    2.7708   -2.8473 H         1 2RY         0.0547
     46 H         -57.4993    0.5423   -6.0697 H         1 2RY         0.0982
     47 H         -54.7210    4.7802   -0.3548 H         1 2RY         0.0436
     48 H         -54.1420    3.1937    0.2569 H         1 2RY         0.0436
     49 H         -56.5887    4.6271    1.0044 H         1 2RY         0.0302
     50 H         -56.0032    3.0467    1.6260 H         1 2RY         0.0302
     51 H         -57.7255    1.9747    0.5363 H         1 2RY         0.0350
     52 H         -58.3205    3.5569   -0.0714 H         1 2RY         0.0350
@<TRIPOS>BOND
     1    1    2 1  
     2    2    3 1  
     3    2    4 1  
     4    2    5 1  
     5    5    6 ar 
     6    5   10 ar 
     7    6    7 ar 
     8    7    8 ar 
     9    8    9 ar 
    10    9   10 ar 
    11   10   11 1  
    12   11   12 1  
    13   12   13 2  
    14   12   14 am 
    15   14   15 1  
    16   14   17 1  
    17   15   16 1  
    18   16   19 1  
    19   17   18 1  
    20   18   19 1  
    21   19   20 1  
    22   20   21 ar 
    23   20   22 ar 
    24   21   25 ar 
    25   21   28 1  
    26   22   23 ar 
    27   23   24 ar 
    28   24   25 ar 
    29   25   26 1  
    30   26   27 1  
    31   27   28 2  
    32   27   29 1  
    33   28   31 1  
    34   29   30 1  
    35   30   31 1  
    36    6   32 1  
    37    7   33 1  
    38    8   34 1  
    39    9   35 1  
    40   11   36 1  
    41   11   37 1  
    42   15   38 1  
    43   15   39 1  
    44   16   40 1  
    45   16   41 1  
    46   17   42 1  
    47   17   43 1  
    48   18   44 1  
    49   18   45 1  
    50   23   46 1  
    51   29   47 1  
    52   29   48 1  
    53   30   49 1  
    54   30   50 1  
    55   31   51 1  
    56   31   52 1  
@<TRIPOS>SUBSTRUCTURE
     1 2RY         1

