### 
### Created by X-TOOL on Mon Sep 10 21:13:17 2018
### 

@<TRIPOS>MOLECULE
4o9v_ligand
   69    72     1     0     0
SMALL
GAST_HUCK


@<TRIPOS>ATOM
      1 N1         19.9830    7.5390   26.9600 N.am      1 NT4        -0.2833
      2 N3         13.0880   13.7740   25.8290 N.pl3     1 NT4        -0.2733
      3 C4         16.6500    7.6800   23.7880 C.ar      1 NT4         0.1138
      4 C5         17.1650    7.7820   25.0830 C.ar      1 NT4        -0.0191
      5 C6         18.1500    6.8810   25.5270 C.ar      1 NT4         0.0348
      6 C7         18.7200    7.1030   26.9180 C.2       1 NT4         0.2006
      7 C8         20.8100    7.8090   28.1110 C.3       1 NT4         0.0419
      8 C10        15.0710    9.4660   23.9680 C.ar      1 NT4         0.1159
      9 C13        21.5400    2.6220   21.4270 C.ar      1 NT4         0.0152
     10 C15        20.6000    4.6450   22.4190 C.ar      1 NT4        -0.0285
     11 C17        13.7380   10.1360   25.8360 C.ar      1 NT4        -0.0645
     12 C20        15.1480   10.7890   23.5110 C.ar      1 NT4        -0.0285
     13 C21        21.9460    8.6800   27.6090 C.3       1 NT4        -0.0249
     14 C22        22.9710    9.0220   28.6990 C.3       1 NT4        -0.0077
     15 C24        21.1830    8.8670   30.3610 C.3       1 NT4        -0.0077
     16 C26        13.0960   12.5250   26.2150 C.cat     1 NT4         0.2298
     17 O1         18.0380    6.9350   27.9060 O.2       1 NT4        -0.3847
     18 C23        22.2070    9.8240   29.7310 C.3       1 NT4        -0.0242
     19 N2         23.0950   10.4730   30.7080 N.4       1 NT4         0.2207
     20 C25        20.1090    8.4290   29.3420 C.3       1 NT4        -0.0249
     21 O3         15.6870    8.4630   23.2540 O.3       1 NT4        -0.2595
     22 C16        14.3770    9.1350   25.1160 C.ar      1 NT4        -0.0285
     23 C18        13.8390   11.4800   25.4130 C.ar      1 NT4         0.0152
     24 N4         12.3190   12.1760   27.2370 N.pl3     1 NT4        -0.2733
     25 C19        14.5290   11.7910   24.2530 C.ar      1 NT4        -0.0645
     26 C3         17.0390    6.6630   22.9760 C.ar      1 NT4         0.0083
     27 C2         17.9950    5.7630   23.3840 C.ar      1 NT4         0.1138
     28 C1         18.5620    5.8430   24.6740 C.ar      1 NT4        -0.0191
     29 O2         18.2100    4.8380   22.3710 O.3       1 NT4        -0.2595
     30 C9         19.3260    4.1620   22.0850 C.ar      1 NT4         0.1159
     31 C11        19.1270    2.9400   21.4360 C.ar      1 NT4        -0.0285
     32 C12        20.2360    2.1610   21.1140 C.ar      1 NT4        -0.0645
     33 C27        22.7310    1.7350   21.0820 C.cat     1 NT4         0.2298
     34 N5         23.6130    1.4670   22.0430 N.pl3     1 NT4        -0.2733
     35 N6         22.9020    1.1720   19.8680 N.pl3     1 NT4        -0.2733
     36 C14        21.7190    3.8700   22.0730 C.ar      1 NT4        -0.0645
     37 H          20.4136    7.7001   26.0720 H         1 NT4         0.1848
     38 H          12.5798   14.4802   26.3803 H         1 NT4         0.3180
     39 H          13.5899   14.0519   24.9736 H         1 NT4         0.3180
     40 H          16.8042    8.5583   25.7480 H         1 NT4         0.0517
     41 H          21.2302    6.8495   28.4468 H         1 NT4         0.0555
     42 H          20.7179    5.5929   22.9315 H         1 NT4         0.0552
     43 H          13.1631    9.8866   26.7205 H         1 NT4         0.0590
     44 H          15.6796   11.0273   22.5969 H         1 NT4         0.0552
     45 H          21.5224    9.6179   27.2205 H         1 NT4         0.0289
     46 H          22.4631    8.1472   26.7974 H         1 NT4         0.0289
     47 H          23.7941    9.6191   28.2797 H         1 NT4         0.0320
     48 H          23.3762    8.1033   29.1483 H         1 NT4         0.0320
     49 H          20.6898    9.3760   31.2022 H         1 NT4         0.0320
     50 H          21.7093    7.9744   30.7302 H         1 NT4         0.0320
     51 H          21.6568   10.6238   29.2138 H         1 NT4         0.0850
     52 H          23.7365   11.0829   30.2257 H         1 NT4         0.1997
     53 H          23.6135    9.7694   31.2101 H         1 NT4         0.1997
     54 H          22.5435   11.0115   31.3576 H         1 NT4         0.1997
     55 H          19.4447    7.6833   29.8032 H         1 NT4         0.0289
     56 H          19.5184    9.3028   29.0295 H         1 NT4         0.0289
     57 H          14.3318    8.1051   25.4511 H         1 NT4         0.0552
     58 H          12.3048   11.1990   27.5630 H         1 NT4         0.3180
     59 H          11.7317   12.8828   27.7023 H         1 NT4         0.3180
     60 H          14.5874   12.8212   23.9209 H         1 NT4         0.0590
     61 H          16.5904    6.5597   21.9946 H         1 NT4         0.0518
     62 H          19.2999    5.1189   25.0000 H         1 NT4         0.0517
     63 H          18.1267    2.6043   21.1875 H         1 NT4         0.0552
     64 H          20.1023    1.2031   20.6245 H         1 NT4         0.0590
     65 H          24.4285    0.8709   21.8419 H         1 NT4         0.3180
     66 H          23.4797    1.8558   22.9874 H         1 NT4         0.3180
     67 H          22.2311    1.3664   19.1110 H         1 NT4         0.3180
     68 H          23.7035    0.5478   19.6981 H         1 NT4         0.3180
     69 H          22.7174    4.2260   22.2998 H         1 NT4         0.0590
@<TRIPOS>BOND
     1    6    1 am 
     2    1    7 1  
     3   16    2 ar 
     4    3    4 ar 
     5    3   21 1  
     6   26    3 ar 
     7    5    4 ar 
     8    5    6 1  
     9   28    5 ar 
    10    6   17 2  
    11    7   13 1  
    12    7   20 1  
    13    8   12 ar 
    14   21    8 1  
    15    8   22 ar 
    16    9   32 ar 
    17    9   33 1  
    18   36    9 ar 
    19   30   10 ar 
    20   10   36 ar 
    21   22   11 ar 
    22   11   23 ar 
    23   12   25 ar 
    24   13   14 1  
    25   14   18 1  
    26   15   18 1  
    27   20   15 1  
    28   23   16 1  
    29   16   24 ar 
    30   18   19 1  
    31   25   23 ar 
    32   27   26 ar 
    33   27   28 ar 
    34   29   27 1  
    35   29   30 1  
    36   30   31 ar 
    37   31   32 ar 
    38   33   34 ar 
    39   33   35 ar 
    40    1   37 1  
    41    2   38 1  
    42    2   39 1  
    43    4   40 1  
    44    7   41 1  
    45   10   42 1  
    46   11   43 1  
    47   12   44 1  
    48   13   45 1  
    49   13   46 1  
    50   14   47 1  
    51   14   48 1  
    52   15   49 1  
    53   15   50 1  
    54   18   51 1  
    55   19   52 1  
    56   19   53 1  
    57   19   54 1  
    58   20   55 1  
    59   20   56 1  
    60   22   57 1  
    61   24   58 1  
    62   24   59 1  
    63   25   60 1  
    64   26   61 1  
    65   28   62 1  
    66   31   63 1  
    67   32   64 1  
    68   34   65 1  
    69   34   66 1  
    70   35   67 1  
    71   35   68 1  
    72   36   69 1  
@<TRIPOS>SUBSTRUCTURE
     1 NT4         1

