### 
### Created by X-TOOL on Mon Sep 10 21:13:18 2018
### 

@<TRIPOS>MOLECULE
4oak_ligand
   23    22     1     0     0
SMALL
GAST_HUCK


@<TRIPOS>ATOM
      1 N         -45.9150    1.6440  -32.6350 N.4       1 DAL         0.2377
      2 CA        -46.0530    3.0630  -32.9380 C.3       1 DAL         0.0621
      3 CB        -45.4750    3.3720  -34.3100 C.3       1 DAL        -0.0040
      4 C         -45.3680    3.9020  -31.8680 C.2       1 DAL         0.2259
      5 O         -44.4600    3.4280  -31.1860 O.2       1 DAL        -0.3908
      6 N         -46.0030    4.9880  -31.5120 N.am      1 DAL        -0.2671
      7 CA        -45.3020    5.8330  -30.5460 C.3       1 DAL         0.0917
      8 CB        -46.2960    6.9310  -30.2060 C.3       1 DAL        -0.0300
      9 C         -43.9990    6.4310  -31.0640 C.2       1 DAL         0.0598
     10 O         -43.8210    6.6180  -32.2690 O.co2     1 DAL        -0.5666
     11 OXT       -43.0960    6.7430  -30.2900 O.co2     1 DAL        -0.5666
     12 H         -46.3726    1.1016  -33.3508 H         1 DAL         0.2015
     13 H         -46.3397    1.4482  -31.7420 H         1 DAL         0.2015
     14 H         -44.9373    1.4008  -32.6027 H         1 DAL         0.2015
     15 H         -47.1236    3.3155  -32.9464 H         1 DAL         0.1095
     16 H         -45.5875    4.4455  -34.5219 H         1 DAL         0.0310
     17 H         -46.0113    2.7894  -35.0735 H         1 DAL         0.0310
     18 H         -44.4081    3.1047  -34.3271 H         1 DAL         0.0310
     19 H         -46.9045    5.2242  -31.8747 H         1 DAL         0.1876
     20 H         -45.0724    5.2419  -29.6472 H         1 DAL         0.0723
     21 H         -45.8457    7.6202  -29.4765 H         1 DAL         0.0270
     22 H         -47.2039    6.4833  -29.7755 H         1 DAL         0.0270
     23 H         -46.5579    7.4844  -31.1199 H         1 DAL         0.0270
@<TRIPOS>BOND
     1    1    2 1  
     2    2    3 1  
     3    2    4 1  
     4    4    5 2  
     5    4    6 am 
     6    6    7 1  
     7    7    8 1  
     8    7    9 1  
     9    9   10 ar 
    10    9   11 ar 
    11    1   12 1  
    12    1   13 1  
    13    1   14 1  
    14    2   15 1  
    15    3   16 1  
    16    3   17 1  
    17    3   18 1  
    18    6   19 1  
    19    7   20 1  
    20    8   21 1  
    21    8   22 1  
    22    8   23 1  
@<TRIPOS>SUBSTRUCTURE
     1 DAL         1

