### 
### Created by X-TOOL on Mon Sep 10 21:13:19 2018
### 

@<TRIPOS>MOLECULE
4oar_ligand
   72    76     1     0     0
SMALL
GAST_HUCK


@<TRIPOS>ATOM
      1 C1         14.6120   26.4420   16.7630 C.3       1 2S0        -0.0177
      2 C2         14.8220   27.8180   17.3480 C.3       1 2S0         0.0152
      3 C3         14.4440   29.0670   16.4020 C.2       1 2S0         0.0822
      4 C4         14.0010   28.8070   15.1200 C.2       1 2S0        -0.0445
      5 C5         13.9050   27.5120   14.5770 C.2       1 2S0        -0.0540
      6 C6         13.3950   27.4430   13.1360 C.3       1 2S0        -0.0157
      7 C7         14.0670   26.3360   12.3250 C.3       1 2S0        -0.0245
      8 C8         14.2300   25.0090   13.0450 C.3       1 2S0         0.0083
      9 C9         14.5270   25.0450   14.5900 C.2       1 2S0        -0.0245
     10 C10        14.3520   26.3230   15.3000 C.2       1 2S0        -0.0336
     11 C11        14.9820   23.7010   15.3110 C.3       1 2S0         0.0289
     12 C12        15.4270   22.6520   14.4330 C.3       1 2S0        -0.0209
     13 C13        14.8640   22.4760   13.0030 C.3       1 2S0         0.0164
     14 C14        14.8580   23.8010   12.3010 C.3       1 2S0        -0.0168
     15 C15        14.6400   23.4920   10.8220 C.3       1 2S0        -0.0451
     16 C16        15.2600   22.0880   10.6720 C.3       1 2S0        -0.0131
     17 C17        15.7360   21.6480   12.0840 C.3       1 2S0         0.1651
     18 C18        13.4770   21.8280   13.1250 C.3       1 2S0        -0.0568
     19 C20        15.9430   20.1230   12.2820 C.2       1 2S0         0.1606
     20 C21        16.6920   19.5260   13.4650 C.3       1 2S0         0.0139
     21 O3         14.5150   30.2490   16.8900 O.2       1 2S0        -0.4132
     22 O20        15.5180   19.3120   11.4970 O.2       1 2S0        -0.3296
     23 C32        13.7480   23.0950   16.1330 C.ar      1 2S0        -0.0368
     24 C33        12.4780   23.6530   16.0270 C.ar      1 2S0        -0.0683
     25 C34        11.3910   23.0800   16.6730 C.ar      1 2S0        -0.0499
     26 C35        11.5660   21.9330   17.4410 C.ar      1 2S0         0.0336
     27 C36        12.8230   21.3600   17.5560 C.ar      1 2S0        -0.0499
     28 C37        13.9060   21.9430   16.9030 C.ar      1 2S0        -0.0683
     29 N38        10.4950   21.3880   18.1140 N.pl3     1 2S0        -0.3183
     30 C39         9.2100   21.8130   17.9310 C.3       1 2S0         0.0139
     31 C40        10.6430   20.3850   19.0220 C.3       1 2S0         0.0139
     32 C31        19.8150   22.0430   11.6140 C.3       1 2S0         0.0370
     33 C30        18.4430   21.4060   11.5110 C.2       1 2S0         0.2298
     34 O30        18.3270   20.3970   10.7910 O.2       1 2S0        -0.3709
     35 O17        17.2550   21.9660   12.1740 O.3       1 2S0        -0.2665
     36 H          13.7514   25.9960   17.2830 H         1 2S0         0.0369
     37 H          15.5165   25.8551   16.9808 H         1 2S0         0.0369
     38 H          15.8856   27.9096   17.6133 H         1 2S0         0.0481
     39 H          14.2093   27.8911   18.2586 H         1 2S0         0.0481
     40 H          13.7100   29.6500   14.4951 H         1 2S0         0.0233
     41 H          13.5929   28.4078   12.6461 H         1 2S0         0.0461
     42 H          12.3110   27.2568   13.1548 H         1 2S0         0.0461
     43 H          15.0671   26.6886   12.0327 H         1 2S0         0.0325
     44 H          13.4619   26.1608   11.4232 H         1 2S0         0.0325
     45 H          13.1773   24.6901   13.0591 H         1 2S0         0.0530
     46 H          15.8015   23.9494   16.0014 H         1 2S0         0.0659
     47 H          15.2276   21.7068   14.9592 H         1 2S0         0.0322
     48 H          16.5128   22.7869   14.3202 H         1 2S0         0.0322
     49 H          15.9162   24.1008   12.3173 H         1 2S0         0.0339
     50 H          15.1570   24.2237   10.1838 H         1 2S0         0.0270
     51 H          13.5686   23.4807   10.5732 H         1 2S0         0.0270
     52 H          16.1141   22.1243    9.9798 H         1 2S0         0.0281
     53 H          14.5081   21.3819   10.2899 H         1 2S0         0.0281
     54 H          12.8471   22.4331   13.7936 H         1 2S0         0.0235
     55 H          13.5811   20.8138   13.5379 H         1 2S0         0.0235
     56 H          13.0092   21.7730   12.1309 H         1 2S0         0.0235
     57 H          16.7018   18.4296   13.3772 H         1 2S0         0.0452
     58 H          16.1899   19.8145   14.4003 H         1 2S0         0.0452
     59 H          17.7255   19.9024   13.4724 H         1 2S0         0.0452
     60 H          12.3352   24.5476   15.4317 H         1 2S0         0.0532
     61 H          10.4072   23.5255   16.5792 H         1 2S0         0.0500
     62 H          12.9620   20.4641   18.1503 H         1 2S0         0.0500
     63 H          14.8883   21.4939   16.9947 H         1 2S0         0.0532
     64 H           8.5357   21.2297   18.5752 H         1 2S0         0.0475
     65 H           8.9237   21.6726   16.8782 H         1 2S0         0.0475
     66 H           9.1356   22.8789   18.1922 H         1 2S0         0.0475
     67 H          11.7063   20.1138   19.0986 H         1 2S0         0.0475
     68 H          10.0634   19.5082   18.6976 H         1 2S0         0.0475
     69 H          10.2790   20.7224   20.0037 H         1 2S0         0.0475
     70 H          20.5395   21.4483   11.0383 H         1 2S0         0.0483
     71 H          20.1250   22.0776   12.6688 H         1 2S0         0.0483
     72 H          19.7760   23.0652   11.2095 H         1 2S0         0.0483
@<TRIPOS>BOND
     1    1    2 1  
     2   10    1 1  
     3    2    3 1  
     4    4    3 1  
     5    3   21 2  
     6    5    4 2  
     7    6    5 1  
     8   10    5 1  
     9    7    6 1  
    10    8    7 1  
    11    8    9 1  
    12   14    8 1  
    13    9   10 2  
    14   11    9 1  
    15   12   11 1  
    16   11   23 1  
    17   13   12 1  
    18   13   14 1  
    19   17   13 1  
    20   13   18 1  
    21   15   14 1  
    22   16   15 1  
    23   17   16 1  
    24   17   19 1  
    25   35   17 1  
    26   19   20 1  
    27   19   22 2  
    28   23   24 ar 
    29   23   28 ar 
    30   24   25 ar 
    31   25   26 ar 
    32   27   26 ar 
    33   26   29 1  
    34   28   27 ar 
    35   29   30 1  
    36   29   31 1  
    37   33   32 1  
    38   33   34 2  
    39   33   35 1  
    40    1   36 1  
    41    1   37 1  
    42    2   38 1  
    43    2   39 1  
    44    4   40 1  
    45    6   41 1  
    46    6   42 1  
    47    7   43 1  
    48    7   44 1  
    49    8   45 1  
    50   11   46 1  
    51   12   47 1  
    52   12   48 1  
    53   14   49 1  
    54   15   50 1  
    55   15   51 1  
    56   16   52 1  
    57   16   53 1  
    58   18   54 1  
    59   18   55 1  
    60   18   56 1  
    61   20   57 1  
    62   20   58 1  
    63   20   59 1  
    64   24   60 1  
    65   25   61 1  
    66   27   62 1  
    67   28   63 1  
    68   30   64 1  
    69   30   65 1  
    70   30   66 1  
    71   31   67 1  
    72   31   68 1  
    73   31   69 1  
    74   32   70 1  
    75   32   71 1  
    76   32   72 1  
@<TRIPOS>SUBSTRUCTURE
     1 2S0         1

