### 
### Created by X-TOOL on Mon Sep 10 21:13:19 2018
### 

@<TRIPOS>MOLECULE
4oas_ligand
   71    73     1     0     0
SMALL
GAST_HUCK


@<TRIPOS>ATOM
      1 C17       -16.0120    3.0270  -15.7780 C.ar      1 2SW        -0.0460
      2 C16       -16.9390    4.0660  -15.5440 C.ar      1 2SW         0.0338
      3 CL2       -16.4520    5.3650  -14.5300 Cl        1 2SW        -0.0725
      4 C15       -18.2000    4.0670  -16.1460 C.ar      1 2SW        -0.0548
      5 C14       -18.5400    3.0040  -17.0060 C.ar      1 2SW        -0.0680
      6 C13       -17.6060    1.9560  -17.2510 C.ar      1 2SW        -0.0597
      7 C6        -16.3300    1.9580  -16.6380 C.ar      1 2SW        -0.0354
      8 C2        -15.3130    0.8650  -16.9090 C.3       1 2SW         0.0256
      9 C3        -15.8930   -0.5580  -16.7550 C.3       1 2SW        -0.0228
     10 C4        -14.8150   -1.6680  -16.8590 C.3       1 2SW         0.0624
     11 C21       -13.9810   -1.7520  -15.5640 C.3       1 2SW         0.0125
     12 C23       -14.7430   -2.2270  -14.3030 C.2       1 2SW         0.0343
     13 O3        -15.6060   -1.5260  -13.7570 O.co2     1 2SW        -0.5692
     14 O2        -14.4850   -3.3320  -13.8150 O.co2     1 2SW        -0.5692
     15 C24       -15.5690   -2.9800  -17.1800 C.3       1 2SW        -0.0512
     16 C5        -13.7840   -1.4060  -17.9750 C.2       1 2SW         0.2083
     17 O1        -13.0070   -2.3110  -18.2850 O.2       1 2SW        -0.3438
     18 N1        -13.7240   -0.1990  -18.6130 N.am      1 2SW        -0.2508
     19 C18       -12.7590   -0.0730  -19.7620 C.3       1 2SW         0.0668
     20 C19       -11.2920   -0.2550  -19.2930 C.3       1 2SW        -0.0307
     21 C22       -10.3320    0.7970  -19.7760 C.3       1 2SW        -0.0631
     22 C20       -13.0510   -0.9050  -21.0210 C.3       1 2SW         0.0897
     23 C1        -14.5420    0.9960  -18.2490 C.3       1 2SW         0.0912
     24 C7        -13.7610    2.2980  -18.3030 C.ar      1 2SW        -0.0151
     25 C8        -12.6780    2.5490  -17.4350 C.ar      1 2SW        -0.0573
     26 C9        -11.9870    3.7670  -17.4780 C.ar      1 2SW        -0.0545
     27 C10       -12.4110    4.7400  -18.4200 C.ar      1 2SW         0.0330
     28 CL1       -11.6260    6.2370  -18.5030 Cl        1 2SW        -0.0771
     29 C11       -13.4680    4.5220  -19.2870 C.ar      1 2SW        -0.0545
     30 C12       -14.1400    3.3010  -19.2280 C.ar      1 2SW        -0.0573
     31 S1        -14.7810   -0.7010  -21.5250 S.o2      1 2SW        -0.0240
     32 O4        -15.0860    0.6900  -21.6010 O.2       1 2SW        -0.1738
     33 O5        -15.5960   -1.5430  -20.6980 O.2       1 2SW        -0.1738
     34 C25       -14.9900   -1.3470  -23.1900 C.3       1 2SW         0.0795
     35 C26       -16.4900   -1.3880  -23.5080 C.3       1 2SW        -0.0405
     36 C27       -14.4570   -2.7830  -23.2730 C.3       1 2SW        -0.0405
     37 C28       -14.3180   -0.3760  -24.1630 C.3       1 2SW        -0.0405
     38 H         -15.0444    3.0524  -15.2901 H         1 2SW         0.0562
     39 H         -18.9029    4.8699  -15.9551 H         1 2SW         0.0565
     40 H         -19.5137    2.9833  -17.4821 H         1 2SW         0.0599
     41 H         -17.8768    1.1448  -17.9170 H         1 2SW         0.0558
     42 H         -14.5561    0.9732  -16.1182 H         1 2SW         0.0505
     43 H         -16.6395   -0.7195  -17.5466 H         1 2SW         0.0285
     44 H         -16.3795   -0.6334  -15.7713 H         1 2SW         0.0285
     45 H         -13.5769   -0.7501  -15.3569 H         1 2SW         0.0422
     46 H         -13.1516   -2.4525  -15.7412 H         1 2SW         0.0422
     47 H         -16.1420   -2.8553  -18.1107 H         1 2SW         0.0223
     48 H         -16.2566   -3.2189  -16.3554 H         1 2SW         0.0223
     49 H         -14.8446   -3.7987  -17.3023 H         1 2SW         0.0223
     50 H         -12.8454    0.9737  -20.0892 H         1 2SW         0.0578
     51 H         -10.9374   -1.2315  -19.6546 H         1 2SW         0.0286
     52 H         -11.2823   -0.2457  -18.1931 H         1 2SW         0.0286
     53 H          -9.3249    0.5788  -19.3911 H         1 2SW         0.0230
     54 H         -10.6569    1.7837  -19.4143 H         1 2SW         0.0230
     55 H         -10.3119    0.7979  -20.8758 H         1 2SW         0.0230
     56 H         -12.8585   -1.9666  -20.8068 H         1 2SW         0.0523
     57 H         -12.3937   -0.5706  -21.8372 H         1 2SW         0.0523
     58 H         -15.3118    1.0710  -19.0311 H         1 2SW         0.0750
     59 H         -12.3759    1.7884  -16.7242 H         1 2SW         0.0558
     60 H         -11.1538    3.9603  -16.8120 H         1 2SW         0.0606
     61 H         -13.7673    5.2844  -19.9971 H         1 2SW         0.0606
     62 H         -14.9679    3.1165  -19.9030 H         1 2SW         0.0558
     63 H         -16.6387   -1.7812  -24.5245 H         1 2SW         0.0251
     64 H         -16.9065   -0.3719  -23.4434 H         1 2SW         0.0251
     65 H         -17.0006   -2.0403  -22.7843 H         1 2SW         0.0251
     66 H         -14.5910   -3.1653  -24.2957 H         1 2SW         0.0251
     67 H         -15.0101   -3.4208  -22.5678 H         1 2SW         0.0251
     68 H         -13.3877   -2.7927  -23.0151 H         1 2SW         0.0251
     69 H         -14.4322   -0.7496  -25.1913 H         1 2SW         0.0251
     70 H         -13.2485   -0.2941  -23.9193 H         1 2SW         0.0251
     71 H         -14.7903    0.6138  -24.0780 H         1 2SW         0.0251
@<TRIPOS>BOND
     1    1    2 ar 
     2    1    7 ar 
     3    2    3 1  
     4    2    4 ar 
     5    4    5 ar 
     6    5    6 ar 
     7    6    7 ar 
     8    7    8 1  
     9    8    9 1  
    10    8   23 1  
    11    9   10 1  
    12   10   11 1  
    13   10   15 1  
    14   10   16 1  
    15   11   12 1  
    16   12   13 ar 
    17   12   14 ar 
    18   16   17 2  
    19   16   18 am 
    20   18   19 1  
    21   18   23 1  
    22   19   20 1  
    23   19   22 1  
    24   20   21 1  
    25   22   31 1  
    26   23   24 1  
    27   24   25 ar 
    28   24   30 ar 
    29   25   26 ar 
    30   26   27 ar 
    31   27   28 1  
    32   27   29 ar 
    33   29   30 ar 
    34   31   32 2  
    35   31   33 2  
    36   31   34 1  
    37   34   35 1  
    38   34   36 1  
    39   34   37 1  
    40    1   38 1  
    41    4   39 1  
    42    5   40 1  
    43    6   41 1  
    44    8   42 1  
    45    9   43 1  
    46    9   44 1  
    47   11   45 1  
    48   11   46 1  
    49   15   47 1  
    50   15   48 1  
    51   15   49 1  
    52   19   50 1  
    53   20   51 1  
    54   20   52 1  
    55   21   53 1  
    56   21   54 1  
    57   21   55 1  
    58   22   56 1  
    59   22   57 1  
    60   23   58 1  
    61   25   59 1  
    62   26   60 1  
    63   29   61 1  
    64   30   62 1  
    65   35   63 1  
    66   35   64 1  
    67   35   65 1  
    68   36   66 1  
    69   36   67 1  
    70   36   68 1  
    71   37   69 1  
    72   37   70 1  
    73   37   71 1  
@<TRIPOS>SUBSTRUCTURE
     1 2SW         1

