### 
### Created by X-TOOL on Mon Sep 10 21:13:20 2018
### 

@<TRIPOS>MOLECULE
4oba_ligand
   67    70     1     0     0
SMALL
GAST_HUCK


@<TRIPOS>ATOM
      1 C14        15.8350    2.9330  -37.6230 C.ar      1 2TW        -0.0438
      2 C13        16.7780    3.9400  -37.8260 C.ar      1 2TW         0.0339
      3 CL2        16.3980    5.2620  -38.8670 Cl        1 2TW        -0.0725
      4 C12        18.0210    3.8820  -37.2020 C.ar      1 2TW        -0.0548
      5 C11        18.3250    2.8140  -36.3590 C.ar      1 2TW        -0.0680
      6 C10        17.3800    1.8070  -36.1510 C.ar      1 2TW        -0.0575
      7 C9         16.1330    1.8630  -36.7810 C.ar      1 2TW        -0.0096
      8 C8         15.0930    0.7530  -36.5510 C.3       1 2TW         0.1287
      9 O1         15.7240   -0.5360  -36.6160 O.3       1 2TW        -0.3345
     10 C23        14.7780   -1.6420  -36.6090 C.3       1 2TW         0.1618
     11 C25        14.1710   -1.8300  -38.0170 C.3       1 2TW         0.0441
     12 C26        15.2300   -2.2980  -39.0260 C.2       1 2TW         0.0396
     13 O4         15.4340   -1.5790  -40.0310 O.co2     1 2TW        -0.5688
     14 O3         15.8230   -3.3650  -38.7740 O.co2     1 2TW        -0.5688
     15 C24        13.7120   -1.4680  -35.5020 C.2       1 2TW         0.2122
     16 O2         13.0090   -2.4360  -35.2090 O.2       1 2TW        -0.3937
     17 N1         13.5390   -0.2210  -34.8350 N.am      1 2TW        -0.2472
     18 C15        12.5590   -0.0820  -33.7190 C.3       1 2TW         0.0699
     19 C16        11.1210   -0.3570  -34.1820 C.3       1 2TW        -0.0160
     20 C22        10.2540    0.8780  -34.4020 C.3       1 2TW        -0.0477
     21 C27        10.0510    0.0130  -33.1640 C.3       1 2TW        -0.0477
     22 C17        12.9350   -0.9770  -32.5250 C.3       1 2TW         0.0899
     23 S1         14.6770   -0.7710  -32.0070 S.o2      1 2TW        -0.0240
     24 O5         15.5430   -1.5320  -32.9710 O.2       1 2TW        -0.1738
     25 O6         15.0450    0.6860  -31.9820 O.2       1 2TW        -0.1738
     26 C18        14.9610   -1.4390  -30.3300 C.3       1 2TW         0.0795
     27 C20        14.4690   -2.8850  -30.2690 C.3       1 2TW        -0.0405
     28 C21        16.4600   -1.3610  -30.0170 C.3       1 2TW        -0.0405
     29 C19        14.2070   -0.5700  -29.3290 C.3       1 2TW        -0.0405
     30 C7         14.4360    0.9170  -35.1660 C.3       1 2TW         0.1150
     31 C5         13.7200    2.2730  -35.0960 C.ar      1 2TW        -0.0130
     32 C4         14.1600    3.2120  -34.1660 C.ar      1 2TW        -0.0573
     33 C3         13.5360    4.4530  -34.0880 C.ar      1 2TW        -0.0545
     34 C2         12.4790    4.7350  -34.9480 C.ar      1 2TW         0.0330
     35 CL1        11.6990    6.2630  -34.8450 Cl        1 2TW        -0.0771
     36 C1         12.0330    3.8030  -35.8800 C.ar      1 2TW        -0.0545
     37 C6         12.6640    2.5670  -35.9640 C.ar      1 2TW        -0.0573
     38 H          14.8724    2.9823  -38.1189 H         1 2TW         0.0563
     39 H          18.7509    4.6654  -37.3711 H         1 2TW         0.0565
     40 H          19.2900    2.7655  -35.8675 H         1 2TW         0.0599
     41 H          17.6150    0.9757  -35.4962 H         1 2TW         0.0559
     42 H          14.3194    0.8190  -37.3302 H         1 2TW         0.0809
     43 H          15.3395   -2.5577  -36.3719 H         1 2TW         0.0861
     44 H          13.7518   -0.8715  -38.3569 H         1 2TW         0.0481
     45 H          13.3702   -2.5822  -37.9640 H         1 2TW         0.0481
     46 H          12.6000    0.9621  -33.3753 H         1 2TW         0.0579
     47 H          11.0478   -1.2481  -34.8228 H         1 2TW         0.0324
     48 H           9.4965    0.8835  -35.1996 H         1 2TW         0.0269
     49 H          10.6923    1.8823  -34.3056 H         1 2TW         0.0269
     50 H          10.3423    0.3933  -32.1738 H         1 2TW         0.0269
     51 H           9.1464   -0.6054  -33.0677 H         1 2TW         0.0269
     52 H          12.7745   -2.0276  -32.8087 H         1 2TW         0.0523
     53 H          12.2834   -0.7228  -31.6760 H         1 2TW         0.0523
     54 H          14.6395   -3.2880  -29.2598 H         1 2TW         0.0251
     55 H          15.0195   -3.4910  -31.0036 H         1 2TW         0.0251
     56 H          13.3939   -2.9166  -30.4995 H         1 2TW         0.0251
     57 H          16.6453   -1.7605  -29.0090 H         1 2TW         0.0251
     58 H          16.7900   -0.3127  -30.0623 H         1 2TW         0.0251
     59 H          17.0201   -1.9540  -30.7550 H         1 2TW         0.0251
     60 H          14.3672   -0.9585  -28.3125 H         1 2TW         0.0251
     61 H          13.1325   -0.5887  -29.5635 H         1 2TW         0.0251
     62 H          14.5775    0.4640  -29.3889 H         1 2TW         0.0251
     63 H          15.2386    0.9255  -34.4138 H         1 2TW         0.0772
     64 H          14.9862    2.9765  -33.5050 H         1 2TW         0.0558
     65 H          13.8688    5.1906  -33.3667 H         1 2TW         0.0606
     66 H          11.2015    4.0384  -36.5344 H         1 2TW         0.0606
     67 H          12.3398    1.8369  -36.6967 H         1 2TW         0.0558
@<TRIPOS>BOND
     1    1    2 ar 
     2    1    7 ar 
     3    2    3 1  
     4    2    4 ar 
     5    4    5 ar 
     6    5    6 ar 
     7    6    7 ar 
     8    7    8 1  
     9    8    9 1  
    10    8   30 1  
    11    9   10 1  
    12   10   11 1  
    13   10   15 1  
    14   11   12 1  
    15   12   13 ar 
    16   12   14 ar 
    17   15   16 2  
    18   15   17 am 
    19   17   18 1  
    20   17   30 1  
    21   18   19 1  
    22   18   22 1  
    23   19   20 1  
    24   19   21 1  
    25   20   21 1  
    26   22   23 1  
    27   23   24 2  
    28   23   25 2  
    29   23   26 1  
    30   26   27 1  
    31   26   28 1  
    32   26   29 1  
    33   30   31 1  
    34   31   32 ar 
    35   31   37 ar 
    36   32   33 ar 
    37   33   34 ar 
    38   34   35 1  
    39   34   36 ar 
    40   36   37 ar 
    41    1   38 1  
    42    4   39 1  
    43    5   40 1  
    44    6   41 1  
    45    8   42 1  
    46   10   43 1  
    47   11   44 1  
    48   11   45 1  
    49   18   46 1  
    50   19   47 1  
    51   20   48 1  
    52   20   49 1  
    53   21   50 1  
    54   21   51 1  
    55   22   52 1  
    56   22   53 1  
    57   27   54 1  
    58   27   55 1  
    59   27   56 1  
    60   28   57 1  
    61   28   58 1  
    62   28   59 1  
    63   29   60 1  
    64   29   61 1  
    65   29   62 1  
    66   30   63 1  
    67   32   64 1  
    68   33   65 1  
    69   36   66 1  
    70   37   67 1  
@<TRIPOS>SUBSTRUCTURE
     1 2TW         1

