### 
### Created by X-TOOL on Mon Sep 10 21:13:19 2018
### 

@<TRIPOS>MOLECULE
4obo_ligand
   28    30     1     0     0
SMALL
GAST_HUCK


@<TRIPOS>ATOM
      1 CL7       -20.2370  -10.1060   31.0960 Cl        1 2QV        -0.0708
      2 C1        -19.5950   -8.2250   27.5310 C.ar      1 2QV        -0.0610
      3 C2        -18.6190   -7.3190   27.9570 C.ar      1 2QV        -0.0541
      4 C3        -18.1590   -7.2640   29.4490 C.ar      1 2QV        -0.0165
      5 C4        -18.6820   -8.1330   30.3820 C.ar      1 2QV        -0.0403
      6 C5        -19.6280   -9.0380   29.9590 C.ar      1 2QV         0.0408
      7 C6        -20.0940   -9.1090   28.6160 C.ar      1 2QV        -0.0480
      8 C8        -17.1720   -6.2840   29.8570 C.ar      1 2QV        -0.0105
      9 C9        -17.1110   -5.0270   29.0250 C.ar      1 2QV        -0.0476
     10 C10       -16.1960   -3.9860   29.3300 C.ar      1 2QV        -0.0394
     11 C11       -15.3490   -4.1610   30.4370 C.ar      1 2QV         0.0447
     12 C12       -15.4530   -5.4930   31.2620 C.ar      1 2QV         0.0556
     13 C13       -16.3500   -6.4840   30.9440 C.ar      1 2QV        -0.0321
     14 C14       -14.5170   -5.5280   32.3220 C.ar      1 2QV         0.1416
     15 N15       -13.6820   -4.4600   32.5210 N.ar      1 2QV        -0.2542
     16 C16       -13.6320   -3.3620   31.8420 C.ar      1 2QV         0.0605
     17 N17       -14.4450   -3.2130   30.7840 N.ar      1 2QV        -0.2935
     18 N18       -14.4420   -6.5270   33.1070 N.pl3     1 2QV        -0.3061
     19 H         -19.9527   -8.2774   26.5090 H         1 2QV         0.0617
     20 H         -18.1728   -6.6415   27.2380 H         1 2QV         0.0623
     21 H         -18.3584   -8.1044   31.4162 H         1 2QV         0.0628
     22 H         -20.8513   -9.8453   28.3724 H         1 2QV         0.0621
     23 H         -17.7787   -4.9169   28.1782 H         1 2QV         0.0681
     24 H         -16.1521   -3.0853   28.7285 H         1 2QV         0.0628
     25 H         -16.4089   -7.3942   31.5298 H         1 2QV         0.0694
     26 H         -12.9438   -2.5728   32.1224 H         1 2QV         0.1060
     27 H         -13.7524   -6.5302   33.8721 H         1 2QV         0.1880
     28 H         -15.0709   -7.3323   32.9772 H         1 2QV         0.1880
@<TRIPOS>BOND
     1    6    1 1  
     2    3    2 ar 
     3    2    7 ar 
     4    4    3 ar 
     5    5    4 ar 
     6    4    8 1  
     7    5    6 ar 
     8    6    7 ar 
     9    8    9 ar 
    10    8   13 ar 
    11    9   10 ar 
    12   10   11 ar 
    13   11   12 ar 
    14   11   17 ar 
    15   12   13 ar 
    16   12   14 ar 
    17   14   15 ar 
    18   14   18 1  
    19   15   16 ar 
    20   16   17 ar 
    21    2   19 1  
    22    3   20 1  
    23    5   21 1  
    24    7   22 1  
    25    9   23 1  
    26   10   24 1  
    27   13   25 1  
    28   16   26 1  
    29   18   27 1  
    30   18   28 1  
@<TRIPOS>SUBSTRUCTURE
     1 2QV         1

