### 
### Created by X-TOOL on Mon Sep 10 21:13:19 2018
### 

@<TRIPOS>MOLECULE
4obp_ligand
   26    28     1     0     0
SMALL
GAST_HUCK


@<TRIPOS>ATOM
      1 C1        -15.9410   -4.2320   27.9200 C.ar      1 2QU        -0.0196
      2 C2        -16.7460   -5.2760   27.5700 C.ar      1 2QU        -0.0174
      3 C3        -16.8590   -6.3700   28.4280 C.ar      1 2QU         0.0664
      4 N4        -16.1680   -6.4390   29.5620 N.ar      1 2QU        -0.2701
      5 C5        -15.3300   -5.4320   29.9410 C.ar      1 2QU         0.1218
      6 C6        -15.2110   -4.2770   29.1230 C.ar      1 2QU         0.0707
      7 N7        -14.3930   -3.2220   29.4390 N.ar      1 2QU        -0.2840
      8 C8        -13.7020   -3.3550   30.5560 C.ar      1 2QU         0.0663
      9 N9        -13.6860   -4.3880   31.4050 N.ar      1 2QU        -0.2477
     10 C10       -14.4950   -5.4810   31.1120 C.ar      1 2QU         0.1582
     11 N11       -14.4270   -6.6100   31.8520 N.pl3     1 2QU        -0.3042
     12 C12       -17.8260   -7.4670   28.1750 C.ar      1 2QU         0.0170
     13 C13       -18.3510   -7.6860   26.9020 C.ar      1 2QU        -0.0303
     14 C14       -19.3230   -8.6480   26.7260 C.ar      1 2QU         0.0072
     15 N15       -19.7860   -9.4360   27.7070 N.ar      1 2QU        -0.2645
     16 C16       -19.2310   -9.2440   28.9410 C.ar      1 2QU         0.2142
     17 C17       -18.2730   -8.2680   29.2290 C.ar      1 2QU         0.0133
     18 F18       -19.5860  -10.1400   29.8880 F         1 2QU        -0.1536
     19 H         -15.8632   -3.3670   27.2714 H         1 2QU         0.0768
     20 H         -17.2927   -5.2557   26.6341 H         1 2QU         0.0765
     21 H         -13.0650   -2.5183   30.8191 H         1 2QU         0.1085
     22 H         -13.8283   -6.6415   32.6895 H         1 2QU         0.1885
     23 H         -14.9739   -7.4388   31.5784 H         1 2QU         0.1885
     24 H         -17.9980   -7.1049   26.0578 H         1 2QU         0.0673
     25 H         -19.7386   -8.7751   25.7329 H         1 2QU         0.0804
     26 H         -17.8902   -8.1370   30.2347 H         1 2QU         0.0696
@<TRIPOS>BOND
     1    1    2 ar 
     2    1    6 ar 
     3    2    3 ar 
     4    3    4 ar 
     5    3   12 1  
     6    4    5 ar 
     7    5    6 ar 
     8    5   10 ar 
     9    6    7 ar 
    10    7    8 ar 
    11    8    9 ar 
    12    9   10 ar 
    13   10   11 1  
    14   12   13 ar 
    15   12   17 ar 
    16   13   14 ar 
    17   14   15 ar 
    18   15   16 ar 
    19   16   17 ar 
    20   16   18 1  
    21    1   19 1  
    22    2   20 1  
    23    8   21 1  
    24   11   22 1  
    25   11   23 1  
    26   13   24 1  
    27   14   25 1  
    28   17   26 1  
@<TRIPOS>SUBSTRUCTURE
     1 2QU         1

