### 
### Created by X-TOOL on Mon Sep 10 21:13:19 2018
### 

@<TRIPOS>MOLECULE
4obq_ligand
   48    51     1     0     0
SMALL
GAST_HUCK


@<TRIPOS>ATOM
      1 C1        -17.2270   -5.5050   27.7590 C.ar      1 2QT        -0.0479
      2 C2        -16.3360   -4.5110   28.0570 C.ar      1 2QT        -0.0394
      3 C3        -15.5460   -4.5790   29.2260 C.ar      1 2QT         0.0447
      4 C4        -15.6740   -5.7170   30.0620 C.ar      1 2QT         0.0557
      5 C5        -16.6390   -6.6820   29.7400 C.ar      1 2QT        -0.0324
      6 C6        -17.4300   -6.5880   28.6190 C.ar      1 2QT        -0.0151
      7 C7        -18.4420   -7.6320   28.3360 C.ar      1 2QT        -0.0326
      8 C8        -19.0310   -7.7590   27.0710 C.ar      1 2QT        -0.0383
      9 C9        -20.0120   -8.7210   26.8350 C.ar      1 2QT         0.0646
     10 C10       -20.4250   -9.5640   27.8650 C.ar      1 2QT        -0.0082
     11 C11       -19.8650   -9.3860   29.1040 C.ar      1 2QT         0.1197
     12 C12       -18.8840   -8.4640   29.3660 C.ar      1 2QT        -0.0361
     13 N14       -20.6270   -8.8230   25.5630 N.am      1 2QT        -0.2306
     14 C15       -21.9510   -8.8540   25.2910 C.2       1 2QT         0.2489
     15 O16       -22.8340   -8.6480   26.1230 O.2       1 2QT        -0.3790
     16 C17       -22.2910   -9.1970   23.8530 C.3       1 2QT         0.0638
     17 N18       -23.5400   -9.9460   23.7390 N.4       1 2QT         0.2524
     18 C19       -23.5940  -11.0630   22.7930 C.3       1 2QT        -0.0299
     19 C20       -25.0740  -11.3850   22.6920 C.3       1 2QT        -0.0077
     20 C21       -25.7940  -10.1470   23.1270 C.3       1 2QT        -0.0077
     21 C22       -24.7050   -9.1280   23.3950 C.3       1 2QT        -0.0299
     22 C23       -14.7660   -5.7700   31.1880 C.ar      1 2QT         0.1416
     23 N24       -13.9540   -4.7510   31.4550 N.ar      1 2QT        -0.2542
     24 C25       -13.9570   -3.7070   30.6170 C.ar      1 2QT         0.0605
     25 N26       -14.6750   -3.5540   29.5030 N.ar      1 2QT        -0.2935
     26 N27       -14.6440   -6.8990   31.9180 N.pl3     1 2QT        -0.3061
     27 F13       -20.3600  -10.1060   30.1480 F         1 2QT        -0.1876
     28 H         -17.7892   -5.4516   26.8337 H         1 2QT         0.0681
     29 H         -16.2351   -3.6628   27.3896 H         1 2QT         0.0628
     30 H         -16.7662   -7.5333   30.3989 H         1 2QT         0.0695
     31 H         -18.7204   -7.1018   26.2668 H         1 2QT         0.0469
     32 H         -21.1658  -10.3363   27.6921 H         1 2QT         0.0488
     33 H         -18.4577   -8.3825   30.3593 H         1 2QT         0.0482
     34 H         -20.0118   -8.8784   24.7766 H         1 2QT         0.2256
     35 H         -21.4757   -9.8039   23.4324 H         1 2QT         0.1068
     36 H         -22.3859   -8.2628   23.2800 H         1 2QT         0.1068
     37 H         -23.6970  -10.3318   24.6569 H         1 2QT         0.2053
     38 H         -23.0308  -11.9271   23.1752 H         1 2QT         0.0815
     39 H         -23.1904  -10.7663   21.8137 H         1 2QT         0.0815
     40 H         -25.3282  -12.2273   23.3522 H         1 2QT         0.0319
     41 H         -25.3406  -11.6382   21.6553 H         1 2QT         0.0319
     42 H         -26.3753  -10.3397   24.0407 H         1 2QT         0.0319
     43 H         -26.4668   -9.7926   22.3322 H         1 2QT         0.0319
     44 H         -24.5072   -8.5209   22.4993 H         1 2QT         0.0815
     45 H         -24.9820   -8.4689   24.2310 H         1 2QT         0.0815
     46 H         -13.2964   -2.8871   30.8747 H         1 2QT         0.1060
     47 H         -13.9954   -6.9277   32.7176 H         1 2QT         0.1880
     48 H         -15.1995   -7.7317   31.6754 H         1 2QT         0.1880
@<TRIPOS>BOND
     1    1    2 ar 
     2    1    6 ar 
     3    2    3 ar 
     4    3    4 ar 
     5    3   25 ar 
     6    4    5 ar 
     7    4   22 ar 
     8    5    6 ar 
     9    6    7 1  
    10    7    8 ar 
    11    7   12 ar 
    12    8    9 ar 
    13    9   10 ar 
    14    9   13 1  
    15   10   11 ar 
    16   11   12 ar 
    17   11   27 1  
    18   13   14 am 
    19   14   15 2  
    20   14   16 1  
    21   16   17 1  
    22   17   18 1  
    23   17   21 1  
    24   18   19 1  
    25   19   20 1  
    26   20   21 1  
    27   22   23 ar 
    28   22   26 1  
    29   23   24 ar 
    30   24   25 ar 
    31    1   28 1  
    32    2   29 1  
    33    5   30 1  
    34    8   31 1  
    35   10   32 1  
    36   12   33 1  
    37   13   34 1  
    38   16   35 1  
    39   16   36 1  
    40   17   37 1  
    41   18   38 1  
    42   18   39 1  
    43   19   40 1  
    44   19   41 1  
    45   20   42 1  
    46   20   43 1  
    47   21   44 1  
    48   21   45 1  
    49   24   46 1  
    50   26   47 1  
    51   26   48 1  
@<TRIPOS>SUBSTRUCTURE
     1 2QT         1

