### 
### Created by X-TOOL on Mon Sep 10 21:13:19 2018
### 

@<TRIPOS>MOLECULE
4obv_ligand
   30    31     1     0     0
SMALL
GAST_HUCK


@<TRIPOS>ATOM
      1 F01       124.9150  120.7460  -43.7250 F         1 2SU        -0.2434
      2 O02       126.2410  118.5200  -41.1830 O.co2     1 2SU        -0.5420
      3 O03       126.7300  119.1190  -43.2240 O.co2     1 2SU        -0.5420
      4 N04       124.2030  114.3050  -42.7700 N.pl3     1 2SU        -0.2891
      5 N05       123.6850  118.2440  -41.5990 N.4       1 2SU         0.2257
      6 C06       124.4330  118.7270  -42.7220 C.3       1 2SU         0.0650
      7 C07       124.2610  117.8210  -43.8980 C.3       1 2SU         0.0174
      8 C08       123.9530  116.4310  -43.4450 C.2       1 2SU        -0.0411
      9 C09       122.7030  115.9050  -43.2410 C.ar      1 2SU        -0.0215
     10 C10       123.9510  120.0920  -43.0780 C.3       1 2SU         0.1417
     11 C11       122.8570  114.5810  -42.8200 C.ar      1 2SU         0.0603
     12 C12       124.8880  115.4400  -43.1550 C.2       1 2SU         0.0166
     13 C13       125.8760  118.7930  -42.3570 C.2       1 2SU         0.0999
     14 C14       121.3080  116.5030  -43.3920 C.ar      1 2SU        -0.0747
     15 C15       121.6300  113.7290  -42.5120 C.ar      1 2SU        -0.0443
     16 C16       120.1200  115.6830  -43.0940 C.ar      1 2SU        -0.0792
     17 C17       120.2800  114.3040  -42.6560 C.ar      1 2SU        -0.0768
     18 H         124.6265  113.4077  -42.4935 H         1 2SU         0.2216
     19 H         122.7076  118.1976  -41.8412 H         1 2SU         0.2001
     20 H         123.8084  118.8701  -40.8187 H         1 2SU         0.2001
     21 H         124.0128  117.3246  -41.3473 H         1 2SU         0.2001
     22 H         125.1896  117.8124  -44.4876 H         1 2SU         0.0401
     23 H         123.4338  118.1903  -44.5220 H         1 2SU         0.0401
     24 H         123.0644  120.0114  -43.7241 H         1 2SU         0.0669
     25 H         123.6878  120.6392  -42.1608 H         1 2SU         0.0669
     26 H         125.9702  115.5427  -43.2205 H         1 2SU         0.0795
     27 H         121.1904  117.5301  -43.7182 H         1 2SU         0.0540
     28 H         121.7504  112.7017  -42.1875 H         1 2SU         0.0541
     29 H         119.1279  116.1065  -43.2009 H         1 2SU         0.0510
     30 H         119.4071  113.7002  -42.4358 H         1 2SU         0.0530
@<TRIPOS>BOND
     1   10    1 1  
     2   13    2 ar 
     3   13    3 ar 
     4    4   11 1  
     5   12    4 1  
     6    6    5 1  
     7    7    6 1  
     8    6   10 1  
     9    6   13 1  
    10    8    7 1  
    11    8    9 1  
    12    8   12 2  
    13    9   11 ar 
    14    9   14 ar 
    15   11   15 ar 
    16   14   16 ar 
    17   15   17 ar 
    18   16   17 ar 
    19    4   18 1  
    20    5   19 1  
    21    5   20 1  
    22    5   21 1  
    23    7   22 1  
    24    7   23 1  
    25   10   24 1  
    26   10   25 1  
    27   12   26 1  
    28   14   27 1  
    29   15   28 1  
    30   16   29 1  
    31   17   30 1  
@<TRIPOS>SUBSTRUCTURE
     1 2SU         1

