### 
### Created by X-TOOL on Mon Sep 10 21:13:17 2018
### 

@<TRIPOS>MOLECULE
4obz_ligand
   49    50     1     0     0
SMALL
GAST_HUCK


@<TRIPOS>ATOM
      1 C1        -31.3930    1.3260  -17.3320 C.ar      1 2S4        -0.0375
      2 C2        -32.4980    1.9960  -17.8690 C.ar      1 2S4        -0.0439
      3 C3        -31.4660   -0.0660  -17.1620 C.ar      1 2S4         0.1136
      4 C8        -30.1880   -1.0890  -15.3630 C.3       1 2S4         0.0568
      5 C10       -33.9850   -2.8870  -17.0800 C.3       1 2S4         0.0554
      6 C11       -32.5470    3.5030  -18.0490 C.3       1 2S4         0.0627
      7 C12       -33.3800    4.0700  -16.9140 C.2       1 2S4         0.1867
      8 C14       -35.6720    4.3440  -16.0870 C.cat     1 2S4         0.3301
      9 C19       -36.6250    6.6180  -13.3890 C.ar      1 2S4        -0.0046
     10 C20       -37.5600    8.7420  -13.9970 C.ar      1 2S4        -0.0669
     11 C21       -37.1150    9.2690  -12.7850 C.ar      1 2S4        -0.0528
     12 C22       -37.3150    7.4160  -14.3070 C.ar      1 2S4        -0.0627
     13 C24       -36.2070    7.1370  -12.1500 C.ar      1 2S4        -0.0627
     14 O15       -32.8510    4.4520  -15.8840 O.2       1 2S4        -0.3948
     15 C4        -33.6540    1.2780  -18.1720 C.ar      1 2S4        -0.0777
     16 C6        -33.7440   -0.0870  -17.9750 C.ar      1 2S4        -0.0475
     17 C5        -32.6530   -0.7860  -17.4650 C.ar      1 2S4         0.1125
     18 O9        -32.7660   -2.1590  -17.2810 O.3       1 2S4        -0.3292
     19 O7        -30.3570   -0.7160  -16.7240 O.3       1 2S4        -0.3265
     20 N13       -34.7510    3.9970  -17.0470 N.am      1 2S4        -0.2226
     21 N17       -36.8720    4.1800  -16.4890 N.pl3     1 2S4        -0.2541
     22 N16       -35.3930    4.8580  -14.8220 N.pl3     1 2S4        -0.2313
     23 C18       -36.4020    5.1700  -13.7880 C.3       1 2S4         0.1193
     24 C23       -36.4250    8.4790  -11.8580 C.ar      1 2S4        -0.0669
     25 C25       -37.4040   10.7230  -12.4970 C.3       1 2S4        -0.0343
     26 H         -30.4984    1.8708  -17.0528 H         1 2S4         0.0454
     27 H         -29.2219   -1.6005  -15.2403 H         1 2S4         0.0573
     28 H         -31.0019   -1.7662  -15.0646 H         1 2S4         0.0573
     29 H         -30.2093   -0.1891  -14.7308 H         1 2S4         0.0573
     30 H         -33.7582   -3.9572  -16.9647 H         1 2S4         0.0570
     31 H         -34.6451   -2.7436  -17.9481 H         1 2S4         0.0570
     32 H         -34.4867   -2.5188  -16.1730 H         1 2S4         0.0570
     33 H         -33.0102    3.7512  -19.0154 H         1 2S4         0.0637
     34 H         -31.5294    3.9191  -18.0125 H         1 2S4         0.0637
     35 H         -38.0981    9.3715  -14.6965 H         1 2S4         0.0540
     36 H         -37.6536    7.0010  -15.2494 H         1 2S4         0.0541
     37 H         -35.7177    6.4944  -11.4270 H         1 2S4         0.0541
     38 H         -34.5098    1.8074  -18.5751 H         1 2S4         0.0440
     39 H         -34.6611   -0.6119  -18.2168 H         1 2S4         0.0493
     40 H         -35.1067    3.6618  -17.9194 H         1 2S4         0.1858
     41 H         -37.6596    4.4037  -15.8641 H         1 2S4         0.3199
     42 H         -37.0530    3.8240  -17.4384 H         1 2S4         0.3199
     43 H         -34.4053    5.0345  -14.5892 H         1 2S4         0.3246
     44 H         -37.3657    4.7839  -14.1515 H         1 2S4         0.0951
     45 H         -36.1090    4.6264  -12.8777 H         1 2S4         0.0951
     46 H         -36.0667    8.9061  -10.9283 H         1 2S4         0.0540
     47 H         -37.9509   11.1629  -13.3440 H         1 2S4         0.0378
     48 H         -36.4569   11.2633  -12.3518 H         1 2S4         0.0378
     49 H         -38.0147   10.8019  -11.5855 H         1 2S4         0.0378
@<TRIPOS>BOND
     1    2    1 ar 
     2    1    3 ar 
     3    6    2 1  
     4    2   15 ar 
     5    3   17 ar 
     6    3   19 1  
     7   19    4 1  
     8   18    5 1  
     9    7    6 1  
    10    7   14 2  
    11   20    7 am 
    12    8   20 ar 
    13    8   21 ar 
    14   22    8 ar 
    15    9   12 ar 
    16    9   13 ar 
    17   23    9 1  
    18   10   11 ar 
    19   12   10 ar 
    20   24   11 ar 
    21   11   25 1  
    22   13   24 ar 
    23   15   16 ar 
    24   16   17 ar 
    25   17   18 1  
    26   22   23 1  
    27    1   26 1  
    28    4   27 1  
    29    4   28 1  
    30    4   29 1  
    31    5   30 1  
    32    5   31 1  
    33    5   32 1  
    34    6   33 1  
    35    6   34 1  
    36   10   35 1  
    37   12   36 1  
    38   13   37 1  
    39   15   38 1  
    40   16   39 1  
    41   20   40 1  
    42   21   41 1  
    43   21   42 1  
    44   22   43 1  
    45   23   44 1  
    46   23   45 1  
    47   24   46 1  
    48   25   47 1  
    49   25   48 1  
    50   25   49 1  
@<TRIPOS>SUBSTRUCTURE
     1 2S4         1

