### 
### Created by X-TOOL on Mon Sep 10 21:13:16 2018
### 

@<TRIPOS>MOLECULE
4oc0_ligand
   48    49     1     0     0
SMALL
GAST_HUCK


@<TRIPOS>ATOM
      1 CAP        15.2970   43.6630   41.3870 C.3       1 2R7        -0.0205
      2 CAQ        14.7500   45.0580   41.1550 C.3       1 2R7        -0.0205
      3 CBB        16.1670   44.8730   41.1560 C.3       1 2R7         0.0984
      4 CAV        17.0990   44.7220   40.0650 C.2       1 2R7         0.0729
      5 OAF        16.8080   43.8550   39.1950 O.co2     1 2R7        -0.5454
      6 OAB        18.1020   45.4510   40.0410 O.co2     1 2R7        -0.5454
      7 NAT        16.9500   45.2590   42.3690 N.am      1 2R7        -0.2638
      8 CAW        18.0740   44.5970   42.7600 C.2       1 2R7         0.2588
      9 OAC        18.4240   43.5100   42.2710 O.2       1 2R7        -0.4008
     10 N          18.7200   45.1500   43.8000 N.am      1 2R7        -0.2577
     11 CA         19.9710   44.7070   44.3710 C.3       1 2R7         0.0947
     12 C          20.1150   45.4360   45.7360 C.2       1 2R7         0.0599
     13 OXT        20.6640   44.7280   46.6370 O.co2     1 2R7        -0.5666
     14 O          19.6710   46.6550   45.8230 O.co2     1 2R7        -0.5666
     15 CB         20.9990   45.3150   43.3350 C.3       1 2R7        -0.0181
     16 CAM        22.4930   45.3110   43.6720 C.3       1 2R7        -0.0476
     17 CAL        23.2890   45.9600   42.4910 C.3       1 2R7        -0.0326
     18 CAN        23.4960   47.4960   42.6500 C.3       1 2R7         0.0305
     19 NAR        23.6700   47.9020   44.0750 N.am      1 2R7        -0.2858
     20 CAX        23.2190   49.0610   44.5920 C.2       1 2R7         0.2067
     21 OAD        22.5780   49.8730   43.9100 O.2       1 2R7        -0.3836
     22 CAZ        23.3590   49.2830   46.1420 C.ar      1 2R7         0.0523
     23 CAJ        23.3680   50.5890   46.6860 C.ar      1 2R7        -0.0391
     24 CAH        23.4660   50.8090   48.0840 C.ar      1 2R7        -0.0453
     25 CAY        23.5350   49.7620   49.0180 C.ar      1 2R7         0.0137
     26 IAG        23.6630   50.1400   51.1870 I         1 2R7        -0.0459
     27 CAI        23.5130   48.4640   48.4710 C.ar      1 2R7        -0.0453
     28 CAK        23.4220   48.2220   47.0680 C.ar      1 2R7        -0.0391
     29 H          15.1996   42.8877   40.6128 H         1 2R7         0.0282
     30 H          15.2388   43.1972   42.3818 H         1 2R7         0.0282
     31 H          14.2699   45.6006   41.9827 H         1 2R7         0.0282
     32 H          14.2307   45.2910   40.2137 H         1 2R7         0.0282
     33 H          16.6357   46.0350   42.9158 H         1 2R7         0.1839
     34 H          18.2916   45.9492   44.2216 H         1 2R7         0.1869
     35 H          20.0526   43.6149   44.4740 H         1 2R7         0.0723
     36 H          20.7093   46.3637   43.1731 H         1 2R7         0.0305
     37 H          20.8801   44.7527   42.3971 H         1 2R7         0.0305
     38 H          22.8339   44.2757   43.8203 H         1 2R7         0.0268
     39 H          22.6641   45.8888   44.5923 H         1 2R7         0.0268
     40 H          22.7365   45.7781   41.5574 H         1 2R7         0.0285
     41 H          24.2770   45.4800   42.4319 H         1 2R7         0.0285
     42 H          22.6174   48.0152   42.2396 H         1 2R7         0.0519
     43 H          24.3931   47.7918   42.0864 H         1 2R7         0.0519
     44 H          24.1523   47.2735   44.6852 H         1 2R7         0.1845
     45 H          23.2984   51.4409   46.0194 H         1 2R7         0.0675
     46 H          23.4886   51.8300   48.4475 H         1 2R7         0.0657
     47 H          23.5674   47.6152   49.1430 H         1 2R7         0.0657
     48 H          23.4008   47.2003   46.7063 H         1 2R7         0.0675
@<TRIPOS>BOND
     1    1    2 1  
     2    1    3 1  
     3    2    3 1  
     4    3    4 1  
     5    3    7 1  
     6    4    5 ar 
     7    4    6 ar 
     8    7    8 am 
     9    8    9 2  
    10    8   10 am 
    11   10   11 1  
    12   11   12 1  
    13   11   15 1  
    14   12   13 ar 
    15   12   14 ar 
    16   15   16 1  
    17   16   17 1  
    18   17   18 1  
    19   18   19 1  
    20   19   20 am 
    21   20   21 2  
    22   20   22 1  
    23   22   23 ar 
    24   22   28 ar 
    25   23   24 ar 
    26   24   25 ar 
    27   25   26 1  
    28   25   27 ar 
    29   27   28 ar 
    30    1   29 1  
    31    1   30 1  
    32    2   31 1  
    33    2   32 1  
    34    7   33 1  
    35   10   34 1  
    36   11   35 1  
    37   15   36 1  
    38   15   37 1  
    39   16   38 1  
    40   16   39 1  
    41   17   40 1  
    42   17   41 1  
    43   18   42 1  
    44   18   43 1  
    45   19   44 1  
    46   23   45 1  
    47   24   46 1  
    48   27   47 1  
    49   28   48 1  
@<TRIPOS>SUBSTRUCTURE
     1 2R7         1

