### 
### Created by X-TOOL on Mon Sep 10 21:13:17 2018
### 

@<TRIPOS>MOLECULE
4oc1_ligand
   52    53     1     0     0
SMALL
GAST_HUCK


@<TRIPOS>ATOM
      1 CAP        12.9560   47.6400   40.7000 C.3       1 2QS         0.0745
      2 OAU        13.1960   47.0750   39.4660 O.3       1 2QS        -0.3716
      3 CBB        13.3950   46.2580   40.6990 C.3       1 2QS         0.0856
      4 CAQ        14.8010   46.2320   41.4460 C.3       1 2QS         0.0104
      5 CBD        15.9040   45.1010   41.3540 C.3       1 2QS         0.0971
      6 CAW        16.7610   45.0290   40.0780 C.2       1 2QS         0.0599
      7 OAF        17.6040   45.9340   39.9080 O.co2     1 2QS        -0.5666
      8 OAB        16.6760   44.0070   39.3430 O.co2     1 2QS        -0.5666
      9 NAT        16.8470   45.5960   42.3690 N.am      1 2QS        -0.2575
     10 CAX        18.0300   45.0700   42.6600 C.2       1 2QS         0.2608
     11 OAC        18.4580   44.0450   42.1080 O.2       1 2QS        -0.4006
     12 N          18.6940   45.7750   43.5640 N.am      1 2QS        -0.2576
     13 CA         20.0230   45.4460   44.0810 C.3       1 2QS         0.0947
     14 C          20.1500   46.0430   45.4820 C.2       1 2QS         0.0599
     15 OXT        20.7070   45.3240   46.3400 O.co2     1 2QS        -0.5666
     16 O          19.7070   47.2080   45.6740 O.co2     1 2QS        -0.5666
     17 CB         21.0790   46.1100   43.1810 C.3       1 2QS        -0.0181
     18 CAM        22.3670   46.3130   43.9690 C.3       1 2QS        -0.0476
     19 CAL        23.4950   46.8660   43.0800 C.3       1 2QS        -0.0326
     20 CAN        23.7470   48.3410   43.4420 C.3       1 2QS         0.0305
     21 NAR        23.7200   48.5350   44.9110 N.am      1 2QS        -0.2858
     22 CAY        23.3280   49.6830   45.4680 C.2       1 2QS         0.2067
     23 OAD        22.8640   50.6300   44.8410 O.2       1 2QS        -0.3836
     24 CBA        23.3140   49.7180   46.9950 C.ar      1 2QS         0.0523
     25 CAJ        23.6500   50.8650   47.7090 C.ar      1 2QS        -0.0391
     26 CAH        23.5970   50.8590   49.1030 C.ar      1 2QS        -0.0453
     27 CAZ        23.1890   49.6920   49.7340 C.ar      1 2QS         0.0137
     28 IAG        23.0330   49.5500   51.7880 I         1 2QS        -0.0459
     29 CAI        22.8320   48.5640   49.0160 C.ar      1 2QS        -0.0453
     30 CAK        22.8980   48.5750   47.6440 C.ar      1 2QS        -0.0391
     31 H          11.9227   47.8777   40.9929 H         1 2QS         0.0586
     32 H          13.6329   48.4209   41.0768 H         1 2QS         0.0586
     33 H          12.7744   45.3741   40.9077 H         1 2QS         0.0621
     34 H          14.5556   46.3031   42.5159 H         1 2QS         0.0331
     35 H          15.3105   47.1524   41.1247 H         1 2QS         0.0331
     36 H          15.4755   44.1138   41.5814 H         1 2QS         0.0724
     37 H          16.5705   46.4047   42.8883 H         1 2QS         0.1869
     38 H          18.2518   46.5976   43.9216 H         1 2QS         0.1869
     39 H          20.1683   44.3560   44.1084 H         1 2QS         0.0723
     40 H          20.7043   47.0845   42.8346 H         1 2QS         0.0305
     41 H          21.2787   45.4643   42.3131 H         1 2QS         0.0305
     42 H          22.6846   45.3471   44.3887 H         1 2QS         0.0268
     43 H          22.1767   47.0234   44.7870 H         1 2QS         0.0268
     44 H          23.2004   46.7917   42.0228 H         1 2QS         0.0285
     45 H          24.4136   46.2842   43.2464 H         1 2QS         0.0285
     46 H          22.9658   48.9637   42.9817 H         1 2QS         0.0519
     47 H          24.7317   48.6437   43.0565 H         1 2QS         0.0519
     48 H          24.0046   47.7817   45.5040 H         1 2QS         0.1845
     49 H          23.9527   51.7625   47.1818 H         1 2QS         0.0675
     50 H          23.8663   51.7389   49.6760 H         1 2QS         0.0657
     51 H          22.5005   47.6725   49.5360 H         1 2QS         0.0657
     52 H          22.6253   47.6926   47.0765 H         1 2QS         0.0675
@<TRIPOS>BOND
     1    1    2 1  
     2    1    3 1  
     3    2    3 1  
     4    3    4 1  
     5    4    5 1  
     6    5    6 1  
     7    5    9 1  
     8    6    7 ar 
     9    6    8 ar 
    10    9   10 am 
    11   10   11 2  
    12   10   12 am 
    13   12   13 1  
    14   13   14 1  
    15   13   17 1  
    16   14   15 ar 
    17   14   16 ar 
    18   17   18 1  
    19   18   19 1  
    20   19   20 1  
    21   20   21 1  
    22   21   22 am 
    23   22   23 2  
    24   22   24 1  
    25   24   25 ar 
    26   24   30 ar 
    27   25   26 ar 
    28   26   27 ar 
    29   27   28 1  
    30   27   29 ar 
    31   29   30 ar 
    32    1   31 1  
    33    1   32 1  
    34    3   33 1  
    35    4   34 1  
    36    4   35 1  
    37    5   36 1  
    38    9   37 1  
    39   12   38 1  
    40   13   39 1  
    41   17   40 1  
    42   17   41 1  
    43   18   42 1  
    44   18   43 1  
    45   19   44 1  
    46   19   45 1  
    47   20   46 1  
    48   20   47 1  
    49   21   48 1  
    50   25   49 1  
    51   26   50 1  
    52   29   51 1  
    53   30   52 1  
@<TRIPOS>SUBSTRUCTURE
     1 2QS         1

