### 
### Created by X-TOOL on Mon Sep 10 21:13:17 2018
### 

@<TRIPOS>MOLECULE
4oc2_ligand
   49    49     1     0     0
SMALL
GAST_HUCK


@<TRIPOS>ATOM
      1 CAL        23.4060   48.3390   47.1410 C.ar      1 2QQ        -0.0391
      2 CAJ        23.5040   48.6100   48.5410 C.ar      1 2QQ        -0.0453
      3 CAZ        23.4150   49.8880   49.1390 C.ar      1 2QQ         0.0137
      4 IAH        23.5670   50.1990   51.3770 I         1 2QQ        -0.0459
      5 CAK        23.2180   50.8800   48.1310 C.ar      1 2QQ        -0.0453
      6 CAM        23.1000   50.6340   46.7220 C.ar      1 2QQ        -0.0391
      7 CBA        23.2230   49.3240   46.1650 C.ar      1 2QQ         0.0523
      8 CAY        23.0630   48.9510   44.6260 C.2       1 2QQ         0.2067
      9 OAE        22.2030   49.5190   43.9400 O.2       1 2QQ        -0.3836
     10 NAS        23.6880   47.8730   44.1020 N.am      1 2QQ        -0.2858
     11 CAP        23.4520   47.4250   42.7110 C.3       1 2QQ         0.0305
     12 CAN        23.3630   45.8930   42.5920 C.3       1 2QQ        -0.0326
     13 CAO        22.4200   45.2030   43.6470 C.3       1 2QQ        -0.0476
     14 CAR        20.9380   45.6070   43.4030 C.3       1 2QQ        -0.0181
     15 CBC        19.9160   44.9690   44.4090 C.3       1 2QQ         0.0947
     16 CAW        20.1170   45.6100   45.7720 C.2       1 2QQ         0.0599
     17 OAG        19.6120   46.7580   45.9910 O.co2     1 2QQ        -0.5666
     18 OAC        20.7530   44.8950   46.5730 O.co2     1 2QQ        -0.5666
     19 NAU        18.5790   45.3400   43.9190 N.am      1 2QQ        -0.2576
     20 CAX        17.9050   44.6000   43.0580 C.2       1 2QQ         0.2608
     21 OAD        18.3790   43.5520   42.5750 O.2       1 2QQ        -0.4006
     22 N          16.6610   45.0090   42.7190 N.am      1 2QQ        -0.2566
     23 CA         16.0410   44.2750   41.6060 C.3       1 2QQ         0.1054
     24 C          16.9270   44.5360   40.3180 C.2       1 2QQ         0.0608
     25 OXT        16.7890   43.7520   39.3470 O.co2     1 2QQ        -0.5666
     26 O          17.7530   45.4950   40.3300 O.co2     1 2QQ        -0.5666
     27 CB         14.6010   44.7460   41.2950 C.3       1 2QQ         0.0435
     28 CAI        14.4130   46.1490   40.9720 C.1       1 2QQ        -0.1015
     29 CAA        14.2500   47.2880   40.7080 C.1       1 2QQ        -0.1190
     30 H          23.4779   47.3074   46.8159 H         1 2QQ         0.0675
     31 H          23.6598   47.7637   49.2003 H         1 2QQ         0.0657
     32 H          23.1516   51.9110   48.4593 H         1 2QQ         0.0657
     33 H          22.9113   51.4700   46.0582 H         1 2QQ         0.0675
     34 H          24.3306   47.3616   44.6725 H         1 2QQ         0.1845
     35 H          24.2806   47.7801   42.0807 H         1 2QQ         0.0519
     36 H          22.5072   47.8618   42.3552 H         1 2QQ         0.0519
     37 H          24.3752   45.4806   42.7163 H         1 2QQ         0.0285
     38 H          22.9885   45.6489   41.5869 H         1 2QQ         0.0285
     39 H          22.7184   45.5165   44.6583 H         1 2QQ         0.0268
     40 H          22.5163   44.1108   43.5583 H         1 2QQ         0.0268
     41 H          20.6596   45.2944   42.3858 H         1 2QQ         0.0305
     42 H          20.8623   46.7014   43.4840 H         1 2QQ         0.0305
     43 H          20.0359   43.8770   44.4655 H         1 2QQ         0.0723
     44 H          18.1641   46.1869   44.2516 H         1 2QQ         0.1869
     45 H          16.1960   45.7575   43.1918 H         1 2QQ         0.1869
     46 H          16.0242   43.2016   41.8456 H         1 2QQ         0.0732
     47 H          13.9834   44.5249   42.1780 H         1 2QQ         0.0438
     48 H          14.2393   44.1587   40.4381 H         1 2QQ         0.0438
     49 H          14.1042   48.3069   40.4718 H         1 2QQ         0.1228
@<TRIPOS>BOND
     1    1    2 ar 
     2    1    7 ar 
     3    2    3 ar 
     4    3    4 1  
     5    3    5 ar 
     6    5    6 ar 
     7    6    7 ar 
     8    7    8 1  
     9    8    9 2  
    10    8   10 am 
    11   10   11 1  
    12   11   12 1  
    13   12   13 1  
    14   13   14 1  
    15   14   15 1  
    16   15   16 1  
    17   15   19 1  
    18   16   17 ar 
    19   16   18 ar 
    20   19   20 am 
    21   20   21 2  
    22   20   22 am 
    23   22   23 1  
    24   23   24 1  
    25   23   27 1  
    26   24   25 ar 
    27   24   26 ar 
    28   27   28 1  
    29   28   29 3  
    30    1   30 1  
    31    2   31 1  
    32    5   32 1  
    33    6   33 1  
    34   10   34 1  
    35   11   35 1  
    36   11   36 1  
    37   12   37 1  
    38   12   38 1  
    39   13   39 1  
    40   13   40 1  
    41   14   41 1  
    42   14   42 1  
    43   15   43 1  
    44   19   44 1  
    45   22   45 1  
    46   23   46 1  
    47   27   47 1  
    48   27   48 1  
    49   29   49 1  
@<TRIPOS>SUBSTRUCTURE
     1 2QQ         1

