### 
### Created by X-TOOL on Mon Sep 10 21:13:16 2018
### 

@<TRIPOS>MOLECULE
4oc3_ligand
   54    55     1     0     0
SMALL
GAST_HUCK


@<TRIPOS>ATOM
      1 CAM        23.5420   48.4170   46.9890 C.ar      1 2QP        -0.0391
      2 CAK        23.6350   48.6930   48.4010 C.ar      1 2QP        -0.0453
      3 CBB        23.4960   49.9610   49.0240 C.ar      1 2QP         0.0137
      4 IAG        23.6330   50.3120   51.2530 I         1 2QP        -0.0459
      5 CAL        23.2600   50.9540   48.0470 C.ar      1 2QP        -0.0453
      6 CAN        23.1480   50.7100   46.6430 C.ar      1 2QP        -0.0391
      7 CBC        23.3180   49.4300   46.0500 C.ar      1 2QP         0.0523
      8 CBA        23.0690   49.3140   44.4840 C.2       1 2QP         0.2067
      9 OAD        22.2040   50.0610   44.0340 O.2       1 2QP        -0.3836
     10 NAT        23.3180   48.3290   43.6230 N.am      1 2QP        -0.2858
     11 CAQ        24.1610   47.1780   43.5600 C.3       1 2QP         0.0305
     12 CAO        23.3880   46.1990   42.6170 C.3       1 2QP        -0.0326
     13 CAP        22.4410   45.3200   43.4960 C.3       1 2QP        -0.0476
     14 CB         20.9780   45.8210   43.3730 C.3       1 2QP        -0.0181
     15 CA         19.9930   45.0680   44.2890 C.3       1 2QP         0.0947
     16 C          20.1320   45.6530   45.7000 C.2       1 2QP         0.0599
     17 OXT        20.7440   44.9330   46.5430 O.co2     1 2QP        -0.5666
     18 O          19.5890   46.7800   45.9150 O.co2     1 2QP        -0.5666
     19 N          18.6620   45.4640   43.7910 N.am      1 2QP        -0.2576
     20 CAZ        17.9510   44.7800   42.9120 C.2       1 2QP         0.2609
     21 OAC        18.3610   43.7350   42.4370 O.2       1 2QP        -0.4006
     22 NAV        16.7260   45.1980   42.5800 N.am      1 2QP        -0.2556
     23 CBF        16.0350   44.5370   41.4640 C.3       1 2QP         0.1069
     24 CAY        16.9810   44.6730   40.1930 C.2       1 2QP         0.0620
     25 OAF        16.7710   43.8720   39.2410 O.co2     1 2QP        -0.5665
     26 OAB        17.9360   45.5130   40.2140 O.co2     1 2QP        -0.5665
     27 CAS        14.6310   45.0830   41.1990 C.3       1 2QP         0.0455
     28 CBD        14.5230   46.5450   40.7410 C.2       1 2QP         0.0990
     29 CAJ        13.4670   47.3200   40.7650 C.2       1 2QP        -0.0704
     30 CAH        13.7530   48.5240   40.2640 C.2       1 2QP        -0.0808
     31 CAI        15.0000   48.5480   39.8370 C.2       1 2QP         0.0669
     32 OAW        15.5370   47.2750   40.1480 O.3       1 2QP        -0.2686
     33 H          23.6487   47.3947   46.6446 H         1 2QP         0.0675
     34 H          23.8305   47.8483   49.0516 H         1 2QP         0.0657
     35 H          23.1561   51.9778   48.3877 H         1 2QP         0.0657
     36 H          22.9207   51.5483   45.9945 H         1 2QP         0.0675
     37 H          22.7640   48.4201   42.7955 H         1 2QP         0.1845
     38 H          24.2954   46.7359   44.5582 H         1 2QP         0.0519
     39 H          25.1435   47.4348   43.1373 H         1 2QP         0.0519
     40 H          24.1021   45.5561   42.0816 H         1 2QP         0.0285
     41 H          22.7948   46.7730   41.8899 H         1 2QP         0.0285
     42 H          22.7592   45.3822   44.5471 H         1 2QP         0.0268
     43 H          22.4969   44.2750   43.1572 H         1 2QP         0.0268
     44 H          20.6520   45.6923   42.3303 H         1 2QP         0.0305
     45 H          20.9519   46.8887   43.6363 H         1 2QP         0.0305
     46 H          20.1478   43.9791   44.2745 H         1 2QP         0.0723
     47 H          18.2688   46.3127   44.1448 H         1 2QP         0.1869
     48 H          16.2885   45.9451   43.0805 H         1 2QP         0.1871
     49 H          15.9282   43.4699   41.7086 H         1 2QP         0.0748
     50 H          14.0559   44.9848   42.1315 H         1 2QP         0.0496
     51 H          14.1739   44.4569   40.4186 H         1 2QP         0.0496
     52 H          12.4896   47.0228   41.1421 H         1 2QP         0.0219
     53 H          13.0591   49.3619   40.2153 H         1 2QP         0.0296
     54 H          15.5112   49.3752   39.3468 H         1 2QP         0.0854
@<TRIPOS>BOND
     1    1    2 ar 
     2    1    7 ar 
     3    2    3 ar 
     4    3    4 1  
     5    3    5 ar 
     6    5    6 ar 
     7    6    7 ar 
     8    7    8 1  
     9    8    9 2  
    10    8   10 am 
    11   10   11 1  
    12   11   12 1  
    13   12   13 1  
    14   13   14 1  
    15   14   15 1  
    16   15   16 1  
    17   15   19 1  
    18   16   17 ar 
    19   16   18 ar 
    20   19   20 am 
    21   20   21 2  
    22   20   22 am 
    23   22   23 1  
    24   23   24 1  
    25   23   27 1  
    26   24   25 ar 
    27   24   26 ar 
    28   27   28 1  
    29   28   29 2  
    30   28   32 1  
    31   29   30 1  
    32   30   31 2  
    33   31   32 1  
    34    1   33 1  
    35    2   34 1  
    36    5   35 1  
    37    6   36 1  
    38   10   37 1  
    39   11   38 1  
    40   11   39 1  
    41   12   40 1  
    42   12   41 1  
    43   13   42 1  
    44   13   43 1  
    45   14   44 1  
    46   14   45 1  
    47   15   46 1  
    48   19   47 1  
    49   22   48 1  
    50   23   49 1  
    51   27   50 1  
    52   27   51 1  
    53   29   52 1  
    54   30   53 1  
    55   31   54 1  
@<TRIPOS>SUBSTRUCTURE
     1 2QP         1

