### 
### Created by X-TOOL on Mon Sep 10 21:13:16 2018
### 

@<TRIPOS>MOLECULE
4oc4_ligand
   56    57     1     0     0
SMALL
GAST_HUCK


@<TRIPOS>ATOM
      1 CAN        23.2960   50.7440   46.6560 C.ar      1 2QN        -0.0391
      2 CAL        23.4510   50.9390   48.0460 C.ar      1 2QN        -0.0453
      3 CBC        23.5090   49.9010   48.9860 C.ar      1 2QN         0.0137
      4 IAG        23.6950   50.1830   51.1830 I         1 2QN        -0.0459
      5 CAM        23.4480   48.6220   48.4080 C.ar      1 2QN        -0.0453
      6 CAO        23.3190   48.3940   47.0170 C.ar      1 2QN        -0.0391
      7 CBE        23.2590   49.4490   46.1110 C.ar      1 2QN         0.0523
      8 CBB        23.0470   49.2240   44.5880 C.2       1 2QN         0.2067
      9 OAD        22.2670   49.9660   43.9810 O.2       1 2QN        -0.3836
     10 NAV        23.5680   48.1400   44.0410 N.am      1 2QN        -0.2858
     11 CAR        23.3400   47.7820   42.6430 C.3       1 2QN         0.0305
     12 CAP        23.2760   46.2680   42.5080 C.3       1 2QN        -0.0326
     13 CAQ        22.3470   45.4970   43.5300 C.3       1 2QN        -0.0476
     14 CB         20.8530   45.8460   43.3020 C.3       1 2QN        -0.0181
     15 CA         19.9190   45.1240   44.3140 C.3       1 2QN         0.0947
     16 C          20.0960   45.7000   45.7190 C.2       1 2QN         0.0599
     17 OXT        20.7630   44.9740   46.4720 O.co2     1 2QN        -0.5666
     18 O          19.5980   46.8240   45.9680 O.co2     1 2QN        -0.5666
     19 N          18.5700   45.4360   43.8590 N.am      1 2QN        -0.2576
     20 CBA        17.9360   44.7080   42.9610 C.2       1 2QN         0.2609
     21 OAC        18.4020   43.6300   42.5120 O.2       1 2QN        -0.4006
     22 NAX        16.7060   45.1020   42.6110 N.am      1 2QN        -0.2555
     23 CBG        16.1230   44.4280   41.4400 C.3       1 2QN         0.1060
     24 CAZ        17.0560   44.6900   40.2200 C.2       1 2QN         0.0621
     25 OAF        16.9630   43.9100   39.2290 O.co2     1 2QN        -0.5664
     26 OAB        17.9010   45.6100   40.2800 O.co2     1 2QN        -0.5664
     27 CAT        14.7280   44.9290   41.0220 C.3       1 2QN         0.0230
     28 CBD        14.5940   46.4220   40.7360 C.ar      1 2QN        -0.0193
     29 CAJ        15.1310   47.0210   39.5950 C.ar      1 2QN        -0.0323
     30 CAH        14.9460   48.3780   39.3410 C.ar      1 2QN         0.0031
     31 NAU        14.2200   49.1220   40.1640 N.ar      1 2QN        -0.3066
     32 CAI        13.6920   48.5790   41.2670 C.ar      1 2QN         0.0031
     33 CAK        13.8640   47.2310   41.6050 C.ar      1 2QN        -0.0323
     34 H          23.2045   51.6033   46.0016 H         1 2QN         0.0675
     35 H          23.5302   51.9572   48.4094 H         1 2QN         0.0657
     36 H          23.5028   47.7611   49.0644 H         1 2QN         0.0657
     37 H          23.2658   47.3757   46.6493 H         1 2QN         0.0675
     38 H          24.1391   47.5429   44.6043 H         1 2QN         0.1845
     39 H          24.1643   48.1700   42.0266 H         1 2QN         0.0519
     40 H          22.3901   48.2203   42.3030 H         1 2QN         0.0519
     41 H          24.2980   45.8800   42.6301 H         1 2QN         0.0285
     42 H          22.9157   46.0397   41.4941 H         1 2QN         0.0285
     43 H          22.6291   45.7793   44.5550 H         1 2QN         0.0268
     44 H          22.4871   44.4142   43.3961 H         1 2QN         0.0268
     45 H          20.5706   45.5447   42.2825 H         1 2QN         0.0305
     46 H          20.7223   46.9326   43.4127 H         1 2QN         0.0305
     47 H          20.1037   44.0396   44.3187 H         1 2QN         0.0723
     48 H          18.1066   46.2344   44.2434 H         1 2QN         0.1869
     49 H          16.2129   45.8114   43.1146 H         1 2QN         0.1871
     50 H          16.0646   43.3502   41.6518 H         1 2QN         0.0749
     51 H          14.0277   44.6807   41.8331 H         1 2QN         0.0493
     52 H          14.4389   44.3874   40.1093 H         1 2QN         0.0493
     53 H          15.7011   46.4204   38.8955 H         1 2QN         0.0651
     54 H          15.3984   48.8286   38.4650 H         1 2QN         0.0803
     55 H          13.1065   49.2091   41.9267 H         1 2QN         0.0803
     56 H          13.4408   46.8276   42.5178 H         1 2QN         0.0651
@<TRIPOS>BOND
     1    1    2 ar 
     2    1    7 ar 
     3    2    3 ar 
     4    3    4 1  
     5    3    5 ar 
     6    5    6 ar 
     7    6    7 ar 
     8    7    8 1  
     9    8    9 2  
    10    8   10 am 
    11   10   11 1  
    12   11   12 1  
    13   12   13 1  
    14   13   14 1  
    15   14   15 1  
    16   15   16 1  
    17   15   19 1  
    18   16   17 ar 
    19   16   18 ar 
    20   19   20 am 
    21   20   21 2  
    22   20   22 am 
    23   22   23 1  
    24   23   24 1  
    25   23   27 1  
    26   24   25 ar 
    27   24   26 ar 
    28   27   28 1  
    29   28   29 ar 
    30   28   33 ar 
    31   29   30 ar 
    32   30   31 ar 
    33   31   32 ar 
    34   32   33 ar 
    35    1   34 1  
    36    2   35 1  
    37    5   36 1  
    38    6   37 1  
    39   10   38 1  
    40   11   39 1  
    41   11   40 1  
    42   12   41 1  
    43   12   42 1  
    44   13   43 1  
    45   13   44 1  
    46   14   45 1  
    47   14   46 1  
    48   15   47 1  
    49   19   48 1  
    50   22   49 1  
    51   23   50 1  
    52   27   51 1  
    53   27   52 1  
    54   29   53 1  
    55   30   54 1  
    56   32   55 1  
    57   33   56 1  
@<TRIPOS>SUBSTRUCTURE
     1 2QN         1

