### 
### Created by X-TOOL on Mon Sep 10 21:13:17 2018
### 

@<TRIPOS>MOLECULE
4oc5_ligand
   55    56     1     0     0
SMALL
GAST_HUCK


@<TRIPOS>ATOM
      1 CAO        14.0150   45.6150   41.2390 C.ar      1 2QM        -0.0649
      2 CAI        13.0400   46.5170   40.8730 C.ar      1 2QM        -0.0395
      3 CBB        13.3560   47.6370   40.1110 C.ar      1 2QM         0.0807
      4 OAG        12.3540   48.4870   39.7560 O.3       1 2QM        -0.3375
      5 CAJ        14.6650   47.9080   39.7220 C.ar      1 2QM        -0.0395
      6 CAP        15.6550   46.9870   40.1180 C.ar      1 2QM        -0.0649
      7 CBE        15.3370   45.8690   40.8920 C.ar      1 2QM        -0.0159
      8 CBG        16.3430   44.8250   41.3170 C.3       1 2QM         0.1232
      9 CAY        17.4220   44.7020   40.2090 C.2       1 2QM         0.0702
     10 OAF        17.2160   43.8620   39.2700 O.co2     1 2QM        -0.5644
     11 OAB        18.4030   45.5000   40.2550 O.co2     1 2QM        -0.5644
     12 NAW        17.0100   45.2940   42.5440 N.am      1 2QM        -0.2483
     13 CAZ        18.1560   44.7510   42.9320 C.2       1 2QM         0.2624
     14 OAC        18.5050   43.6610   42.4730 O.2       1 2QM        -0.4005
     15 N          18.7950   45.3650   43.9310 N.am      1 2QM        -0.2575
     16 CA         19.9990   44.8260   44.5770 C.3       1 2QM         0.0947
     17 C          20.1930   45.5610   45.9140 C.2       1 2QM         0.0599
     18 OXT        19.6720   46.7260   46.0660 O.co2     1 2QM        -0.5666
     19 O          20.8280   44.8840   46.7460 O.co2     1 2QM        -0.5666
     20 CB         21.2700   45.0020   43.7080 C.3       1 2QM        -0.0181
     21 CAR        21.6260   46.4260   43.4490 C.3       1 2QM        -0.0476
     22 CAQ        22.9620   46.5000   42.6470 C.3       1 2QM        -0.0326
     23 CAS        23.5210   47.9020   42.7750 C.3       1 2QM         0.0305
     24 NAU        23.7290   48.2110   44.1940 N.am      1 2QM        -0.2858
     25 CBA        23.2770   49.3360   44.7580 C.2       1 2QM         0.2067
     26 OAD        22.6010   50.1410   44.1100 O.2       1 2QM        -0.3836
     27 CBD        23.4470   49.5480   46.3030 C.ar      1 2QM         0.0523
     28 CAM        23.5580   50.8310   46.8600 C.ar      1 2QM        -0.0391
     29 CAK        23.6780   51.0340   48.2650 C.ar      1 2QM        -0.0453
     30 CBC        23.6310   50.0060   49.2250 C.ar      1 2QM         0.0137
     31 IAH        23.7680   50.3270   51.3800 I         1 2QM        -0.0459
     32 CAL        23.4730   48.7260   48.6380 C.ar      1 2QM        -0.0453
     33 CAN        23.3910   48.5030   47.2290 C.ar      1 2QM        -0.0391
     34 H          13.7546   44.7188   41.7904 H         1 2QM         0.0533
     35 H          12.0143   46.3519   41.1826 H         1 2QM         0.0526
     36 H          11.7093   48.0169   39.2403 H         1 2QM         0.2459
     37 H          14.9117   48.7887   39.1401 H         1 2QM         0.0526
     38 H          16.6834   47.1494   39.8160 H         1 2QM         0.0533
     39 H          15.8482   43.8575   41.4879 H         1 2QM         0.0863
     40 H          16.5967   46.0252   43.0868 H         1 2QM         0.1892
     41 H          18.4343   46.2389   44.2569 H         1 2QM         0.1869
     42 H          19.8497   43.7528   44.7665 H         1 2QM         0.0723
     43 H          21.1014   44.5048   42.7414 H         1 2QM         0.0305
     44 H          22.1137   44.5217   44.2252 H         1 2QM         0.0305
     45 H          21.7459   46.9524   44.4074 H         1 2QM         0.0268
     46 H          20.8238   46.9027   42.8666 H         1 2QM         0.0268
     47 H          22.7724   46.2712   41.5879 H         1 2QM         0.0285
     48 H          23.6811   45.7749   43.0558 H         1 2QM         0.0285
     49 H          22.8111   48.6221   42.3420 H         1 2QM         0.0519
     50 H          24.4801   47.9659   42.2402 H         1 2QM         0.0519
     51 H          24.2277   47.5554   44.7610 H         1 2QM         0.1845
     52 H          23.5523   51.6926   46.2023 H         1 2QM         0.0675
     53 H          23.8148   52.0495   48.6187 H         1 2QM         0.0657
     54 H          23.4108   47.8666   49.2957 H         1 2QM         0.0657
     55 H          23.2815   47.4876   46.8657 H         1 2QM         0.0675
@<TRIPOS>BOND
     1    1    2 ar 
     2    1    7 ar 
     3    2    3 ar 
     4    3    4 1  
     5    3    5 ar 
     6    5    6 ar 
     7    6    7 ar 
     8    7    8 1  
     9    8    9 1  
    10    8   12 1  
    11    9   10 ar 
    12    9   11 ar 
    13   12   13 am 
    14   13   14 2  
    15   13   15 am 
    16   15   16 1  
    17   16   17 1  
    18   16   20 1  
    19   17   18 ar 
    20   17   19 ar 
    21   20   21 1  
    22   21   22 1  
    23   22   23 1  
    24   23   24 1  
    25   24   25 am 
    26   25   26 2  
    27   25   27 1  
    28   27   28 ar 
    29   27   33 ar 
    30   28   29 ar 
    31   29   30 ar 
    32   30   31 1  
    33   30   32 ar 
    34   32   33 ar 
    35    1   34 1  
    36    2   35 1  
    37    4   36 1  
    38    5   37 1  
    39    6   38 1  
    40    8   39 1  
    41   12   40 1  
    42   15   41 1  
    43   16   42 1  
    44   20   43 1  
    45   20   44 1  
    46   21   45 1  
    47   21   46 1  
    48   22   47 1  
    49   22   48 1  
    50   23   49 1  
    51   23   50 1  
    52   24   51 1  
    53   28   52 1  
    54   29   53 1  
    55   32   54 1  
    56   33   55 1  
@<TRIPOS>SUBSTRUCTURE
     1 2QM         1

