### 
### Created by X-TOOL on Mon Sep 10 21:13:19 2018
### 

@<TRIPOS>MOLECULE
4occ_ligand
   66    68     1     0     0
SMALL
GAST_HUCK


@<TRIPOS>ATOM
      1 C17       -15.8840    2.9300  -15.8020 C.ar      1 2TZ        -0.0438
      2 C16       -16.7940    3.9780  -15.5720 C.ar      1 2TZ         0.0339
      3 CL2       -16.4680    5.3530  -14.5920 Cl        1 2TZ        -0.0725
      4 C15       -18.0460    3.9840  -16.1630 C.ar      1 2TZ        -0.0548
      5 C14       -18.4030    2.9190  -17.0100 C.ar      1 2TZ        -0.0680
      6 C13       -17.5030    1.8550  -17.2680 C.ar      1 2TZ        -0.0575
      7 C6        -16.2270    1.8550  -16.6620 C.ar      1 2TZ        -0.0096
      8 C19       -15.2070    0.7630  -16.9530 C.3       1 2TZ         0.1287
      9 O6        -15.7060   -0.5590  -16.8230 O.3       1 2TZ        -0.3345
     10 C4        -14.7370   -1.6070  -16.8840 C.3       1 2TZ         0.1618
     11 C21       -14.0990   -1.9370  -15.5440 C.3       1 2TZ         0.0441
     12 C23       -15.0610   -2.5410  -14.4970 C.2       1 2TZ         0.0396
     13 O3        -15.3120   -1.6580  -13.5120 O.co2     1 2TZ        -0.5688
     14 O2        -15.5240   -3.6430  -14.5460 O.co2     1 2TZ        -0.5688
     15 C5        -13.6390   -1.4090  -17.9360 C.2       1 2TZ         0.2122
     16 O1        -12.8750   -2.3440  -18.1600 O.2       1 2TZ        -0.3937
     17 N1        -13.5560   -0.2090  -18.5850 N.am      1 2TZ        -0.2475
     18 C18       -12.6630   -0.0900  -19.7410 C.3       1 2TZ         0.0669
     19 C20       -13.0570   -1.0100  -20.8850 C.3       1 2TZ         0.0896
     20 C26       -14.3620    0.9850  -18.2220 C.3       1 2TZ         0.1150
     21 C7        -13.6740    2.3370  -18.2760 C.ar      1 2TZ        -0.0130
     22 C8        -12.5800    2.6600  -17.4350 C.ar      1 2TZ        -0.0573
     23 C9        -11.9520    3.9210  -17.5060 C.ar      1 2TZ        -0.0545
     24 C10       -12.4190    4.8670  -18.4300 C.ar      1 2TZ         0.0330
     25 CL1       -11.6020    6.3530  -18.5680 Cl        1 2TZ        -0.0771
     26 C11       -13.5110    4.5710  -19.2680 C.ar      1 2TZ        -0.0545
     27 C12       -14.1350    3.3150  -19.1930 C.ar      1 2TZ        -0.0573
     28 S1        -14.7390   -0.7230  -21.3740 S.o2      1 2TZ        -0.0240
     29 O4        -14.9540    0.6880  -21.5360 O.2       1 2TZ        -0.1738
     30 O5        -15.5820   -1.4940  -20.4970 O.2       1 2TZ        -0.1738
     31 C3        -14.8170   -1.4420  -23.0150 C.3       1 2TZ         0.0795
     32 C1        -11.1600   -0.1760  -19.3780 C.3       1 2TZ        -0.0308
     33 C2        -10.2450    0.5150  -20.3310 C.3       1 2TZ        -0.0631
     34 C22       -16.3040   -1.4290  -23.3820 C.3       1 2TZ        -0.0405
     35 C24       -14.3080   -2.9010  -23.0060 C.3       1 2TZ        -0.0405
     36 C25       -14.0400   -0.4970  -23.9460 C.3       1 2TZ        -0.0405
     37 H         -14.9138    2.9440  -15.3187 H         1 2TZ         0.0563
     38 H         -18.7396    4.7958  -15.9762 H         1 2TZ         0.0565
     39 H         -19.3830    2.9121  -17.4732 H         1 2TZ         0.0599
     40 H         -17.7925    1.0448  -17.9274 H         1 2TZ         0.0559
     41 H         -14.4813    0.8561  -16.1316 H         1 2TZ         0.0809
     42 H         -15.2969   -2.5030  -17.1899 H         1 2TZ         0.0861
     43 H         -13.6795   -1.0094  -15.1275 H         1 2TZ         0.0481
     44 H         -13.2884   -2.6594  -15.7201 H         1 2TZ         0.0481
     45 H         -12.8118    0.9315  -20.1210 H         1 2TZ         0.0576
     46 H         -12.9492   -2.0555  -20.5605 H         1 2TZ         0.0523
     47 H         -12.3950   -0.8223  -21.7432 H         1 2TZ         0.0523
     48 H         -15.1041    1.0487  -19.0314 H         1 2TZ         0.0772
     49 H         -12.2194    1.9249  -16.7246 H         1 2TZ         0.0558
     50 H         -11.1184    4.1561  -16.8542 H         1 2TZ         0.0606
     51 H         -13.8704    5.3131  -19.9717 H         1 2TZ         0.0606
     52 H         -14.9750    3.0918  -19.8408 H         1 2TZ         0.0558
     53 H         -10.8771   -1.2384  -19.3418 H         1 2TZ         0.0285
     54 H         -11.0219    0.2743  -18.3840 H         1 2TZ         0.0285
     55 H          -9.2054    0.3990  -19.9906 H         1 2TZ         0.0230
     56 H         -10.4996    1.5843  -20.3738 H         1 2TZ         0.0230
     57 H         -10.3548    0.0716  -21.3316 H         1 2TZ         0.0230
     58 H         -16.4377   -1.8586  -24.3858 H         1 2TZ         0.0251
     59 H         -16.6746   -0.3933  -23.3742 H         1 2TZ         0.0251
     60 H         -16.8677   -2.0257  -22.6498 H         1 2TZ         0.0251
     61 H         -14.3669   -3.3161  -24.0230 H         1 2TZ         0.0251
     62 H         -14.9310   -3.5025  -22.3278 H         1 2TZ         0.0251
     63 H         -13.2638   -2.9229  -22.6610 H         1 2TZ         0.0251
     64 H         -14.0580   -0.8956  -24.9711 H         1 2TZ         0.0251
     65 H         -12.9983   -0.4178  -23.6017 H         1 2TZ         0.0251
     66 H         -14.5077    0.4985  -23.9314 H         1 2TZ         0.0251
@<TRIPOS>BOND
     1    1    2 ar 
     2    1    7 ar 
     3    2    3 1  
     4    2    4 ar 
     5    4    5 ar 
     6    5    6 ar 
     7    6    7 ar 
     8    7    8 1  
     9    8    9 1  
    10    8   20 1  
    11    9   10 1  
    12   10   11 1  
    13   10   15 1  
    14   11   12 1  
    15   12   13 ar 
    16   12   14 ar 
    17   15   16 2  
    18   15   17 am 
    19   17   18 1  
    20   17   20 1  
    21   18   19 1  
    22   18   32 1  
    23   19   28 1  
    24   20   21 1  
    25   21   22 ar 
    26   21   27 ar 
    27   22   23 ar 
    28   23   24 ar 
    29   24   25 1  
    30   24   26 ar 
    31   26   27 ar 
    32   28   29 2  
    33   28   30 2  
    34   28   31 1  
    35   31   34 1  
    36   31   35 1  
    37   31   36 1  
    38   32   33 1  
    39    1   37 1  
    40    4   38 1  
    41    5   39 1  
    42    6   40 1  
    43    8   41 1  
    44   10   42 1  
    45   11   43 1  
    46   11   44 1  
    47   18   45 1  
    48   19   46 1  
    49   19   47 1  
    50   20   48 1  
    51   22   49 1  
    52   23   50 1  
    53   26   51 1  
    54   27   52 1  
    55   32   53 1  
    56   32   54 1  
    57   33   55 1  
    58   33   56 1  
    59   33   57 1  
    60   34   58 1  
    61   34   59 1  
    62   34   60 1  
    63   35   61 1  
    64   35   62 1  
    65   35   63 1  
    66   36   64 1  
    67   36   65 1  
    68   36   66 1  
@<TRIPOS>SUBSTRUCTURE
     1 2TZ         1

