### 
### Created by X-TOOL on Mon Sep 10 21:13:20 2018
### 

@<TRIPOS>MOLECULE
4oct_ligand
   14    13     1     0     0
SMALL
GAST_HUCK


@<TRIPOS>ATOM
      1 C1         17.6820    3.5850    2.5700 C.2       1 AKG         0.1249
      2 O1         18.1430    2.4140    2.9210 O.co2     1 AKG        -0.5464
      3 O2         18.3450    4.6770    2.6890 O.co2     1 AKG        -0.5464
      4 C2         16.2990    3.6450    1.9870 C.2       1 AKG         0.1731
      5 O5         15.8170    2.6080    1.5950 O.2       1 AKG        -0.3576
      6 C3         15.4490    4.9200    1.9010 C.3       1 AKG         0.0423
      7 C4         13.9930    4.6220    2.3150 C.3       1 AKG         0.0164
      8 C5         13.1660    5.8920    2.5590 C.2       1 AKG         0.0371
      9 O3         13.6230    7.0140    2.2080 O.co2     1 AKG        -0.5688
     10 O4         12.0340    5.7950    3.1100 O.co2     1 AKG        -0.5688
     11 H          15.4625    5.2961    0.8674 H         1 AKG         0.0516
     12 H          15.8688    5.6821    2.5740 H         1 AKG         0.0516
     13 H          14.0065    4.0293    3.2416 H         1 AKG         0.0456
     14 H          13.5132    4.0400    1.5144 H         1 AKG         0.0456
@<TRIPOS>BOND
     1    1    2 ar 
     2    1    3 ar 
     3    1    4 1  
     4    4    5 2  
     5    4    6 1  
     6    6    7 1  
     7    7    8 1  
     8    8    9 ar 
     9    8   10 ar 
    10    6   11 1  
    11    6   12 1  
    12    7   13 1  
    13    7   14 1  
@<TRIPOS>SUBSTRUCTURE
     1 AKG         1

