### 
### Created by X-TOOL on Mon Sep 10 21:13:18 2018
### 

@<TRIPOS>MOLECULE
4ocx_ligand
   53    55     1     0     0
SMALL
GAST_HUCK


@<TRIPOS>ATOM
      1 N1         40.3370   43.3540   10.5110 N.ar      1 MT1        -0.2668
      2 C2         39.6230   42.5490    9.7150 C.ar      1 MT1         0.1670
      3 NA2        39.3710   41.2340   10.1080 N.pl3     1 MT1        -0.3051
      4 N3         39.1150   42.9130    8.5400 N.ar      1 MT1        -0.2298
      5 C4         39.3360   44.1750    8.1590 C.ar      1 MT1         0.1540
      6 NA4        38.8630   44.6090    6.9210 N.pl3     1 MT1        -0.3052
      7 C4A        40.0400   45.0810    8.9120 C.ar      1 MT1         0.1326
      8 N5         40.1870   46.3390    8.4660 N.ar      1 MT1        -0.2616
      9 C6         40.8890   47.1610    9.2430 C.ar      1 MT1         0.0826
     10 C7         41.3920   46.6960   10.4390 C.ar      1 MT1         0.0478
     11 N8         41.2350   45.4490   10.8990 N.ar      1 MT1        -0.2649
     12 C8A        40.5500   44.6140   10.1150 C.ar      1 MT1         0.1183
     13 C9         41.0870   48.5750    8.7470 C.3       1 MT1         0.0825
     14 N10        41.6340   49.4290    9.8150 N.pl3     1 MT1        -0.2945
     15 CM         42.8440   50.1410    9.4520 C.3       1 MT1         0.0191
     16 C11        38.7180   51.9050   11.6400 C.ar      1 MT1         0.0362
     17 C12        38.4270   50.6050   11.2950 C.ar      1 MT1        -0.0535
     18 C13        39.3900   49.8210   10.7070 C.ar      1 MT1        -0.0379
     19 C14        40.6540   50.3040   10.4030 C.ar      1 MT1         0.0476
     20 C15        40.9140   51.6190   10.7710 C.ar      1 MT1        -0.0379
     21 C16        39.9690   52.4110   11.3810 C.ar      1 MT1        -0.0535
     22 C          37.7170   52.7840   12.2710 C.2       1 MT1         0.1968
     23 O          37.8210   53.9930   12.1050 O.2       1 MT1        -0.3908
     24 N          36.7760   52.1190   13.0460 N.am      1 MT1        -0.2725
     25 CA         35.5180   52.6620   13.5470 C.3       1 MT1         0.0951
     26 CT         34.5460   53.4560   12.6550 C.2       1 MT1         0.0601
     27 O1         33.3250   53.2640   12.9430 O.co2     1 MT1        -0.5666
     28 O2         35.0070   54.1930   11.7400 O.co2     1 MT1        -0.5666
     29 CB         35.6650   53.4460   14.8460 C.3       1 MT1        -0.0064
     30 CG         36.9820   54.1890   14.9800 C.3       1 MT1         0.0038
     31 CD         36.9730   54.6240   16.4230 C.2       1 MT1         0.0350
     32 OE1        36.5110   55.7840   16.6300 O.co2     1 MT1        -0.5690
     33 OE2        37.4570   53.7690   17.2170 O.co2     1 MT1        -0.5690
     34 H          39.7350   40.8863   11.0066 H         1 MT1         0.1844
     35 H          38.8210   40.6110    9.4995 H         1 MT1         0.1844
     36 H          39.0280   45.5795    6.6181 H         1 MT1         0.1886
     37 H          38.3486   43.9590    6.3096 H         1 MT1         0.1886
     38 H          41.9556   47.3906   11.0514 H         1 MT1         0.0952
     39 H          40.1189   48.9818    8.4195 H         1 MT1         0.0719
     40 H          41.7867   48.5654    7.8983 H         1 MT1         0.0719
     41 H          43.1803   50.7504   10.3038 H         1 MT1         0.0482
     42 H          42.6405   50.7948    8.5912 H         1 MT1         0.0482
     43 H          43.6291   49.4180    9.1858 H         1 MT1         0.0482
     44 H          37.4398   50.2003   11.4868 H         1 MT1         0.0636
     45 H          39.1537   48.7894   10.4726 H         1 MT1         0.0530
     46 H          41.8949   52.0346   10.5705 H         1 MT1         0.0530
     47 H          40.2105   53.4312   11.6565 H         1 MT1         0.0636
     48 H          36.9819   51.1701   13.2854 H         1 MT1         0.1864
     49 H          34.9532   51.7554   13.8100 H         1 MT1         0.0726
     50 H          35.5801   52.7407   15.6859 H         1 MT1         0.0323
     51 H          34.8479   54.1804   14.8998 H         1 MT1         0.0323
     52 H          37.0183   55.0565   14.3047 H         1 MT1         0.0432
     53 H          37.8344   53.5258   14.7712 H         1 MT1         0.0432
@<TRIPOS>BOND
     1    1    2 ar 
     2   12    1 ar 
     3    2    3 1  
     4    4    2 ar 
     5    5    4 ar 
     6    5    6 1  
     7    7    5 ar 
     8    8    7 ar 
     9    7   12 ar 
    10    9    8 ar 
    11    9   10 ar 
    12   13    9 1  
    13   10   11 ar 
    14   11   12 ar 
    15   14   13 1  
    16   14   15 1  
    17   19   14 1  
    18   17   16 ar 
    19   16   21 ar 
    20   16   22 1  
    21   18   17 ar 
    22   18   19 ar 
    23   19   20 ar 
    24   20   21 ar 
    25   22   23 2  
    26   22   24 am 
    27   24   25 1  
    28   25   26 1  
    29   25   29 1  
    30   26   27 ar 
    31   26   28 ar 
    32   29   30 1  
    33   30   31 1  
    34   31   32 ar 
    35   31   33 ar 
    36    3   34 1  
    37    3   35 1  
    38    6   36 1  
    39    6   37 1  
    40   10   38 1  
    41   13   39 1  
    42   13   40 1  
    43   15   41 1  
    44   15   42 1  
    45   15   43 1  
    46   17   44 1  
    47   18   45 1  
    48   20   46 1  
    49   21   47 1  
    50   24   48 1  
    51   25   49 1  
    52   29   50 1  
    53   29   51 1  
    54   30   52 1  
    55   30   53 1  
@<TRIPOS>SUBSTRUCTURE
     1 MT1         1

