### 
### Created by X-TOOL on Mon Sep 10 21:13:18 2018
### 

@<TRIPOS>MOLECULE
4ocz_ligand
   47    48     1     0     0
SMALL
GAST_HUCK


@<TRIPOS>ATOM
      1 F23        21.3830    7.7920   12.8470 F         1 2RU        -0.2443
      2 C20        20.3700    8.2540   12.1480 C.3       1 2RU         0.3499
      3 F21        20.7830    9.0010   11.1340 F         1 2RU        -0.2443
      4 F22        19.7350    7.1590   11.8050 F         1 2RU        -0.2443
      5 C19        19.4150    9.0690   12.9500 C.ar      1 2RU         0.0208
      6 C18        19.3990   10.4640   12.9370 C.ar      1 2RU        -0.0440
      7 C17        18.4640   11.1490   13.7210 C.ar      1 2RU        -0.0046
      8 C24        18.5100    8.3690   13.7240 C.ar      1 2RU        -0.0440
      9 C25        17.5990    9.0580   14.5090 C.ar      1 2RU        -0.0046
     10 C1         17.5430   10.4520   14.5300 C.ar      1 2RU         0.1104
     11 N2         16.6870   11.1260   15.3740 N.am      1 2RU        -0.1928
     12 C3         16.0720   10.6390   16.4850 C.2       1 2RU         0.3059
     13 O16        16.2220    9.4900   16.8640 O.2       1 2RU        -0.3819
     14 N4         15.3330   11.5180   17.2030 N.am      1 2RU        -0.2611
     15 C5         14.7880   11.3370   18.5620 C.3       1 2RU         0.0470
     16 C15        13.6360   10.3440   18.7370 C.3       1 2RU        -0.0095
     17 C14        12.9990   10.3350   20.1450 C.3       1 2RU         0.0359
     18 N8         12.5870   11.7030   20.5360 N.am      1 2RU        -0.2729
     19 C7         13.6760   12.6930   20.4220 C.3       1 2RU         0.0359
     20 C6         14.2800   12.7080   19.0170 C.3       1 2RU        -0.0095
     21 C9         11.3870   12.0870   21.0410 C.2       1 2RU         0.1810
     22 O13        11.2140   13.2060   21.5580 O.2       1 2RU        -0.3966
     23 C10        10.2240   11.1270   21.0190 C.3       1 2RU         0.0432
     24 C12         9.7330   10.9710   19.6030 C.3       1 2RU        -0.0456
     25 C11         9.0720   11.6340   21.8800 C.3       1 2RU        -0.0456
     26 H          20.1052   11.0128   12.3245 H         1 2RU         0.0802
     27 H          18.4474   12.2328   13.7062 H         1 2RU         0.0628
     28 H          18.5123    7.2850   13.7174 H         1 2RU         0.0802
     29 H          16.9078    8.4958   15.1265 H         1 2RU         0.0628
     30 H          16.4967   12.0803   15.1436 H         1 2RU         0.2487
     31 H          15.1334   12.3921   16.7601 H         1 2RU         0.1861
     32 H          15.6120   11.0093   19.2128 H         1 2RU         0.0555
     33 H          14.0193    9.3343   18.5280 H         1 2RU         0.0307
     34 H          12.8520   10.5968   18.0080 H         1 2RU         0.0307
     35 H          13.7325    9.9561   20.8719 H         1 2RU         0.0523
     36 H          12.1162    9.6788   20.1389 H         1 2RU         0.0523
     37 H          14.4644   12.4412   21.1465 H         1 2RU         0.0523
     38 H          13.2752   13.6920   20.6487 H         1 2RU         0.0523
     39 H          13.5094   13.0474   18.3092 H         1 2RU         0.0307
     40 H          15.1235   13.4139   19.0071 H         1 2RU         0.0307
     41 H          10.5579   10.1514   21.4019 H         1 2RU         0.0532
     42 H           8.8846   10.2711   19.5842 H         1 2RU         0.0257
     43 H          10.5458   10.5788   18.9741 H         1 2RU         0.0257
     44 H           9.4101   11.9491   19.2170 H         1 2RU         0.0257
     45 H           9.4151   11.7532   22.9183 H         1 2RU         0.0257
     46 H           8.2443   10.9102   21.8482 H         1 2RU         0.0257
     47 H           8.7256   12.6043   21.4947 H         1 2RU         0.0257
@<TRIPOS>BOND
     1    1    2 1  
     2    2    3 1  
     3    2    4 1  
     4    2    5 1  
     5    5    6 ar 
     6    5    8 ar 
     7    6    7 ar 
     8    7   10 ar 
     9    8    9 ar 
    10    9   10 ar 
    11   10   11 1  
    12   11   12 am 
    13   12   13 2  
    14   12   14 am 
    15   14   15 1  
    16   15   16 1  
    17   15   20 1  
    18   16   17 1  
    19   17   18 1  
    20   18   19 1  
    21   18   21 am 
    22   19   20 1  
    23   21   22 2  
    24   21   23 1  
    25   23   24 1  
    26   23   25 1  
    27    6   26 1  
    28    7   27 1  
    29    8   28 1  
    30    9   29 1  
    31   11   30 1  
    32   14   31 1  
    33   15   32 1  
    34   16   33 1  
    35   16   34 1  
    36   17   35 1  
    37   17   36 1  
    38   19   37 1  
    39   19   38 1  
    40   20   39 1  
    41   20   40 1  
    42   23   41 1  
    43   24   42 1  
    44   24   43 1  
    45   24   44 1  
    46   25   45 1  
    47   25   46 1  
    48   25   47 1  
@<TRIPOS>SUBSTRUCTURE
     1 2RU         1

