### 
### Created by X-TOOL on Mon Sep 10 21:13:18 2018
### 

@<TRIPOS>MOLECULE
4od0_ligand
   45    46     1     0     0
SMALL
GAST_HUCK


@<TRIPOS>ATOM
      1 F23        21.4240    7.9250   12.9180 F         1 2RV        -0.1404
      2 C20        20.5510    7.3460   12.1190 C.3       1 2RV         0.5436
      3 F21        21.1880    6.7130   11.1610 F         1 2RV        -0.1404
      4 F22        19.8320    6.4930   12.8340 F         1 2RV        -0.1404
      5 O19        19.7050    8.3430   11.5530 O.3       1 2RV        -0.2361
      6 C18        18.9260    9.0360   12.4320 C.ar      1 2RV         0.0850
      7 C17        17.9220    8.4070   13.1770 C.ar      1 2RV        -0.0457
      8 C16        17.1470    9.1270   14.0780 C.ar      1 2RV        -0.0494
      9 C24        19.1600   10.3810   12.6120 C.ar      1 2RV        -0.0457
     10 C25        18.3720   11.0930   13.4970 C.ar      1 2RV        -0.0494
     11 C1         17.3530   10.4890   14.2360 C.ar      1 2RV         0.0559
     12 N2         16.7210   11.2580   15.1700 N.am      1 2RV        -0.2258
     13 C3         16.1110   10.8000   16.2720 C.2       1 2RV         0.2844
     14 O15        16.0890    9.6110   16.5310 O.2       1 2RV        -0.3916
     15 N4         15.4970   11.7470   17.0040 N.am      1 2RV        -0.2652
     16 C5         14.4570   11.5720   18.0120 C.3       1 2RV         0.0465
     17 C14        14.3100   12.8740   18.7920 C.3       1 2RV        -0.0095
     18 C13        13.7520   12.6800   20.2040 C.3       1 2RV         0.0359
     19 N8         12.7910   11.5660   20.2030 N.am      1 2RV        -0.2731
     20 C7         13.3540   10.2550   19.8430 C.3       1 2RV         0.0359
     21 C6         14.6500   10.4530   19.0330 C.3       1 2RV        -0.0095
     22 C9         11.5130   11.7770   20.5420 C.2       1 2RV         0.1782
     23 O12        11.1830   12.7960   21.1360 O.2       1 2RV        -0.3969
     24 C10        10.4370   10.7580   20.2240 C.3       1 2RV         0.0346
     25 C11         9.2620   10.9740   21.1670 C.3       1 2RV        -0.0482
     26 H          17.7468    7.3449   13.0496 H         1 2RV         0.0506
     27 H          16.3813    8.6238   14.6574 H         1 2RV         0.0477
     28 H          19.9541   10.8765   12.0652 H         1 2RV         0.0506
     29 H          18.5511   12.1549   13.6212 H         1 2RV         0.0477
     30 H          16.7124   12.2465   15.0193 H         1 2RV         0.2218
     31 H          15.7900   12.6883   16.8363 H         1 2RV         0.1854
     32 H          13.5192   11.3667   17.4751 H         1 2RV         0.0555
     33 H          13.6303   13.5375   18.2372 H         1 2RV         0.0307
     34 H          15.3003   13.3464   18.8708 H         1 2RV         0.0307
     35 H          13.2452   13.6010   20.5277 H         1 2RV         0.0523
     36 H          14.5763   12.4524   20.8959 H         1 2RV         0.0523
     37 H          12.6250    9.6977   19.2365 H         1 2RV         0.0523
     38 H          13.5780    9.6888   20.7591 H         1 2RV         0.0523
     39 H          15.4701   10.7194   19.7159 H         1 2RV         0.0307
     40 H          14.8987    9.5188   18.5081 H         1 2RV         0.0307
     41 H          10.8378    9.7427   20.3596 H         1 2RV         0.0500
     42 H          10.1038   10.8848   19.1834 H         1 2RV         0.0500
     43 H           8.4740   10.2392   20.9452 H         1 2RV         0.0254
     44 H           8.8643   11.9905   21.0305 H         1 2RV         0.0254
     45 H           9.5984   10.8483   22.2067 H         1 2RV         0.0254
@<TRIPOS>BOND
     1    1    2 1  
     2    2    3 1  
     3    2    4 1  
     4    2    5 1  
     5    5    6 1  
     6    6    7 ar 
     7    6    9 ar 
     8    7    8 ar 
     9    8   11 ar 
    10    9   10 ar 
    11   10   11 ar 
    12   11   12 1  
    13   12   13 am 
    14   13   14 2  
    15   13   15 am 
    16   15   16 1  
    17   16   17 1  
    18   16   21 1  
    19   17   18 1  
    20   18   19 1  
    21   19   20 1  
    22   19   22 am 
    23   20   21 1  
    24   22   23 2  
    25   22   24 1  
    26   24   25 1  
    27    7   26 1  
    28    8   27 1  
    29    9   28 1  
    30   10   29 1  
    31   12   30 1  
    32   15   31 1  
    33   16   32 1  
    34   17   33 1  
    35   17   34 1  
    36   18   35 1  
    37   18   36 1  
    38   20   37 1  
    39   20   38 1  
    40   21   39 1  
    41   21   40 1  
    42   24   41 1  
    43   24   42 1  
    44   25   43 1  
    45   25   44 1  
    46   25   45 1  
@<TRIPOS>SUBSTRUCTURE
     1 2RV         1

