### 
### Created by X-TOOL on Mon Sep 10 21:13:18 2018
### 

@<TRIPOS>MOLECULE
4od9_ligand
   74    76     1     0     0
SMALL
GAST_HUCK


@<TRIPOS>ATOM
      1 C1         -9.4870   11.8840  -38.2550 C.ar      1 2RZ        -0.0687
      2 C2         -8.9030   12.9180  -38.9920 C.ar      1 2RZ        -0.0686
      3 C3         -8.0060   13.8010  -38.3880 C.ar      1 2RZ        -0.0600
      4 C7         -5.3180   14.2750  -36.7360 C.3       1 2RZ         0.1968
      5 C9         -4.8180   12.9450  -36.1860 C.2       1 2RZ         0.2293
      6 C12        -8.3100   12.6160  -36.2890 C.ar      1 2RZ        -0.0600
      7 C13        -3.6920   10.7370  -36.6550 C.3       1 2RZ         0.0573
      8 C14        -4.6360    9.8460  -35.8930 C.ar      1 2RZ        -0.0407
      9 C15        -4.1650    9.1450  -34.7810 C.ar      1 2RZ        -0.0379
     10 C16        -5.0190    8.2860  -34.0630 C.ar      1 2RZ         0.1132
     11 C21         0.5060   16.8510  -31.4510 C.ar      1 2RZ        -0.0475
     12 C22         1.5370   16.6820  -32.3870 C.ar      1 2RZ         0.1125
     13 C24         0.1090   17.5840  -34.1100 C.ar      1 2RZ        -0.0375
     14 O28         2.4140   16.8950  -34.5650 O.3       1 2RZ        -0.3265
     15 C30         3.0800   15.8400  -30.6900 C.3       1 2RZ         0.0554
     16 C31        -2.2740   18.2220  -33.6320 C.3       1 2RZ         0.0627
     17 C32        -2.9920   17.1160  -34.3670 C.2       1 2RZ         0.1867
     18 C34        -6.8200    8.8870  -35.5640 C.ar      1 2RZ        -0.0479
     19 C35        -6.3630    8.1690  -34.4480 C.ar      1 2RZ         0.1122
     20 C4         -7.7440   13.6640  -37.0260 C.ar      1 2RZ        -0.0362
     21 C5         -9.1940   11.7300  -36.9040 C.ar      1 2RZ        -0.0686
     22 C6         -6.7780   14.5910  -36.3300 C.3       1 2RZ         0.0433
     23 N8         -4.4930   15.2380  -36.0170 N.pl3     1 2RZ        -0.2196
     24 O10        -4.8150   12.7710  -34.9710 O.2       1 2RZ        -0.3915
     25 N11        -4.2940   12.0340  -37.0460 N.am      1 2RZ        -0.2734
     26 C17        -5.9500    9.6820  -36.3130 C.ar      1 2RZ        -0.0782
     27 C18        -4.2500   16.5480  -36.3980 C.cat     1 2RZ         0.3307
     28 N19        -4.6140   17.0140  -37.5580 N.pl3     1 2RZ        -0.2541
     29 N20        -3.5500   17.3960  -35.5630 N.am      1 2RZ        -0.2226
     30 C23         1.3450   17.0560  -33.7190 C.ar      1 2RZ         0.1136
     31 C25        -0.9240   17.7060  -33.1890 C.ar      1 2RZ        -0.0439
     32 C26        -0.7300   17.3500  -31.8510 C.ar      1 2RZ        -0.0777
     33 O27         2.7880   16.2340  -32.0480 O.3       1 2RZ        -0.3292
     34 C29         2.3560   17.1290  -35.9750 C.3       1 2RZ         0.0568
     35 O33        -3.0530   16.0150  -33.8770 O.2       1 2RZ        -0.3948
     36 O36        -7.1940    7.3360  -33.7360 O.3       1 2RZ        -0.3294
     37 O37        -4.5910    7.5970  -32.9640 O.3       1 2RZ        -0.3266
     38 C38        -3.1930    7.3090  -32.7850 C.3       1 2RZ         0.0568
     39 C39        -8.5690    7.1720  -34.1300 C.3       1 2RZ         0.0554
     40 H         -10.1725   11.1979  -38.7392 H         1 2RZ         0.0559
     41 H          -9.1486   13.0353  -40.0413 H         1 2RZ         0.0599
     42 H          -7.5222   14.5788  -38.9677 H         1 2RZ         0.0557
     43 H          -5.1944   14.3316  -37.8276 H         1 2RZ         0.1109
     44 H          -8.0610   12.4937  -35.2411 H         1 2RZ         0.0557
     45 H          -3.3752   10.2104  -37.5673 H         1 2RZ         0.0661
     46 H          -2.8140   10.9364  -36.0231 H         1 2RZ         0.0661
     47 H          -3.1339    9.2630  -34.4680 H         1 2RZ         0.0451
     48 H           0.6727   16.5918  -30.4117 H         1 2RZ         0.0493
     49 H          -0.0429   17.8991  -35.1360 H         1 2RZ         0.0454
     50 H           4.1280   15.5132  -30.6204 H         1 2RZ         0.0570
     51 H           2.4175   15.0118  -30.3980 H         1 2RZ         0.0570
     52 H           2.9170   16.6947  -30.0171 H         1 2RZ         0.0570
     53 H          -2.8616   18.5259  -32.7532 H         1 2RZ         0.0637
     54 H          -2.1401   19.0855  -34.3001 H         1 2RZ         0.0637
     55 H          -7.8640    8.8234  -35.8488 H         1 2RZ         0.0493
     56 H          -9.6490   10.9280  -36.3340 H         1 2RZ         0.0599
     57 H          -7.0122   15.6293  -36.6076 H         1 2RZ         0.0498
     58 H          -6.8834   14.4697  -35.2418 H         1 2RZ         0.0498
     59 H          -4.0497   14.9149  -35.1452 H         1 2RZ         0.3255
     60 H          -4.3160   12.2558  -38.0209 H         1 2RZ         0.1876
     61 H          -6.2980   10.1684  -37.2171 H         1 2RZ         0.0437
     62 H          -4.4153   17.9941  -37.8047 H         1 2RZ         0.3199
     63 H          -5.1006   16.4025  -38.2290 H         1 2RZ         0.3199
     64 H          -3.4431   18.3365  -35.8855 H         1 2RZ         0.1858
     65 H          -1.5340   17.4615  -31.1326 H         1 2RZ         0.0440
     66 H           3.3415   16.9289  -36.4207 H         1 2RZ         0.0573
     67 H           2.0750   18.1760  -36.1617 H         1 2RZ         0.0573
     68 H           1.6070   16.4621  -36.4269 H         1 2RZ         0.0573
     69 H          -3.0507    6.7509  -31.8478 H         1 2RZ         0.0573
     70 H          -2.6273    8.2513  -32.7401 H         1 2RZ         0.0573
     71 H          -2.8320    6.7045  -33.6301 H         1 2RZ         0.0573
     72 H          -9.0663    6.4718  -33.4427 H         1 2RZ         0.0570
     73 H          -8.6119    6.7731  -35.1542 H         1 2RZ         0.0570
     74 H          -9.0794    8.1457  -34.0940 H         1 2RZ         0.0570
@<TRIPOS>BOND
     1    2    1 ar 
     2   21    1 ar 
     3    3    2 ar 
     4   20    3 ar 
     5    4    5 1  
     6    4   22 1  
     7   23    4 1  
     8    5   24 2  
     9    5   25 am 
    10   20    6 ar 
    11    6   21 ar 
    12    7    8 1  
    13   25    7 1  
    14    8    9 ar 
    15    8   26 ar 
    16    9   10 ar 
    17   10   19 ar 
    18   10   37 1  
    19   12   11 ar 
    20   11   32 ar 
    21   30   12 ar 
    22   12   33 1  
    23   13   30 ar 
    24   31   13 ar 
    25   30   14 1  
    26   14   34 1  
    27   33   15 1  
    28   17   16 1  
    29   16   31 1  
    30   29   17 am 
    31   17   35 2  
    32   18   19 ar 
    33   26   18 ar 
    34   19   36 1  
    35   22   20 1  
    36   27   23 ar 
    37   27   28 ar 
    38   27   29 ar 
    39   31   32 ar 
    40   36   39 1  
    41   37   38 1  
    42    1   40 1  
    43    2   41 1  
    44    3   42 1  
    45    4   43 1  
    46    6   44 1  
    47    7   45 1  
    48    7   46 1  
    49    9   47 1  
    50   11   48 1  
    51   13   49 1  
    52   15   50 1  
    53   15   51 1  
    54   15   52 1  
    55   16   53 1  
    56   16   54 1  
    57   18   55 1  
    58   21   56 1  
    59   22   57 1  
    60   22   58 1  
    61   23   59 1  
    62   25   60 1  
    63   26   61 1  
    64   28   62 1  
    65   28   63 1  
    66   29   64 1  
    67   32   65 1  
    68   34   66 1  
    69   34   67 1  
    70   34   68 1  
    71   38   69 1  
    72   38   70 1  
    73   38   71 1  
    74   39   72 1  
    75   39   73 1  
    76   39   74 1  
@<TRIPOS>SUBSTRUCTURE
     1 2RZ         1

