### 
### Created by X-TOOL on Mon Sep 10 21:13:18 2018
### 

@<TRIPOS>MOLECULE
4ode_ligand
   81    85     1     0     0
SMALL
GAST_HUCK


@<TRIPOS>ATOM
      1 C10        12.6700  -23.6660   -2.2260 C.ar      1 2U0        -0.0460
      2 C9         13.7000  -23.0470   -1.5140 C.ar      1 2U0         0.0338
      3 CL1        15.3070  -23.0110   -2.1750 Cl        1 2U0        -0.0725
      4 C8         13.4520  -22.4620   -0.2740 C.ar      1 2U0        -0.0548
      5 C7         12.1670  -22.4930    0.2620 C.ar      1 2U0        -0.0680
      6 C6         11.1390  -23.1080   -0.4580 C.ar      1 2U0        -0.0597
      7 C4         11.3780  -23.6970   -1.7000 C.ar      1 2U0        -0.0354
      8 C3         10.2210  -24.3640   -2.4660 C.3       1 2U0         0.0256
      9 C5          9.3550  -25.2310   -1.5640 C.3       1 2U0        -0.0219
     10 C2          9.3240  -23.1960   -2.9420 C.3       1 2U0         0.0903
     11 C1         10.1540  -22.3440   -3.9280 C.ar      1 2U0        -0.0170
     12 C25        10.6940  -22.9230   -5.0670 C.ar      1 2U0        -0.0239
     13 C24        11.4440  -22.1620   -5.9550 C.ar      1 2U0         0.1401
     14 F1         11.9480  -22.7490   -7.0580 F         1 2U0        -0.1844
     15 C23        11.6750  -20.8150   -5.6990 C.ar      1 2U0         0.0659
     16 CL2        12.6270  -19.8500   -6.7810 Cl        1 2U0        -0.0785
     17 C22        11.1430  -20.2320   -4.5550 C.ar      1 2U0        -0.0563
     18 C21        10.3890  -20.9990   -3.6720 C.ar      1 2U0        -0.0613
     19 N1          8.0810  -23.6450   -3.6100 N.am      1 2U0        -0.2506
     20 C11         7.2160  -22.6660   -4.3250 C.3       1 2U0         0.0698
     21 C12         6.7940  -22.9900   -5.7630 C.3       1 2U0        -0.0159
     22 C27         6.9860  -21.8450   -6.7490 C.3       1 2U0        -0.0477
     23 C28         7.8850  -23.0870   -6.8240 C.3       1 2U0        -0.0477
     24 C13         5.9490  -22.3860   -3.4970 C.3       1 2U0         0.0900
     25 S1          6.2100  -21.7290   -1.8190 S.o2      1 2U0        -0.0240
     26 O2          6.9690  -22.7130   -0.9690 O.2       1 2U0        -0.1738
     27 O3          6.9630  -20.4370   -1.8680 O.2       1 2U0        -0.1738
     28 C14         4.5740  -21.4650   -1.0420 C.3       1 2U0         0.0795
     29 C16         3.8410  -22.8060   -1.0010 C.3       1 2U0        -0.0405
     30 C29         4.7760  -20.9200    0.3670 C.3       1 2U0        -0.0405
     31 C15         3.7800  -20.4630   -1.8700 C.3       1 2U0        -0.0405
     32 C17         7.5890  -24.9420   -3.3550 C.2       1 2U0         0.2093
     33 O1          6.5050  -25.3090   -3.8060 O.2       1 2U0        -0.3437
     34 C18         8.2780  -25.9200   -2.4170 C.3       1 2U0         0.0661
     35 C26         7.1990  -26.4700   -1.4840 C.3       1 2U0        -0.0503
     36 C19         8.7890  -27.0150   -3.3620 C.3       1 2U0         0.0260
     37 C20         9.2960  -28.2400   -2.5880 C.2       1 2U0         0.0833
     38 S2          8.2890  -29.6030   -2.3930 S.3       1 2U0         0.0003
     39 N2         10.4530  -28.5060   -1.9680 N.2       1 2U0        -0.3391
     40 C30        10.4900  -29.7330   -1.3830 C.2       1 2U0        -0.0335
     41 C31         9.3750  -30.4730   -1.5200 C.2       1 2U0         0.0347
     42 C32         9.0370  -31.8740   -1.0230 C.3       1 2U0         0.0424
     43 C33        10.3060  -32.5010   -0.4750 C.2       1 2U0         0.0470
     44 O5         10.8770  -33.3370   -1.2100 O.co2     1 2U0        -0.5663
     45 O4         10.6830  -32.1170    0.6560 O.co2     1 2U0        -0.5663
     46 H          12.8745  -24.1225   -3.1877 H         1 2U0         0.0562
     47 H          14.2572  -21.9840    0.2721 H         1 2U0         0.0565
     48 H          11.9661  -22.0445    1.2282 H         1 2U0         0.0599
     49 H          10.1374  -23.1277   -0.0438 H         1 2U0         0.0558
     50 H          10.6055  -24.9548   -3.3105 H         1 2U0         0.0505
     51 H           8.8741  -24.6029   -0.7996 H         1 2U0         0.0286
     52 H           9.9797  -25.9920   -1.0734 H         1 2U0         0.0286
     53 H           9.0477  -22.5850   -2.0700 H         1 2U0         0.0750
     54 H          10.5298  -23.9759   -5.2655 H         1 2U0         0.0543
     55 H          11.3152  -19.1814   -4.3509 H         1 2U0         0.0596
     56 H           9.9816  -20.5431   -2.7769 H         1 2U0         0.0524
     57 H           7.7966  -21.7332   -4.3787 H         1 2U0         0.0581
     58 H           5.9130  -23.6481   -5.7902 H         1 2U0         0.0324
     59 H           7.4000  -20.8858   -6.4049 H         1 2U0         0.0269
     60 H           6.2353  -21.6608   -7.5316 H         1 2U0         0.0269
     61 H           7.7790  -23.7940   -7.6600 H         1 2U0         0.0269
     62 H           8.9437  -23.0190   -6.5333 H         1 2U0         0.0269
     63 H           5.3938  -23.3310   -3.4041 H         1 2U0         0.0523
     64 H           5.3408  -21.6563   -4.0516 H         1 2U0         0.0523
     65 H           2.8531  -22.6698   -0.5367 H         1 2U0         0.0251
     66 H           4.4270  -23.5264   -0.4114 H         1 2U0         0.0251
     67 H           3.7153  -23.1867   -2.0253 H         1 2U0         0.0251
     68 H           3.7968  -20.7584    0.8415 H         1 2U0         0.0251
     69 H           5.3209  -19.9658    0.3165 H         1 2U0         0.0251
     70 H           5.3560  -21.6425    0.9600 H         1 2U0         0.0251
     71 H           2.7959  -20.3019   -1.4058 H         1 2U0         0.0251
     72 H           3.6450  -20.8546   -2.8890 H         1 2U0         0.0251
     73 H           4.3256  -19.5089   -1.9131 H         1 2U0         0.0251
     74 H           6.4187  -26.9674   -2.0788 H         1 2U0         0.0224
     75 H           6.7527  -25.6433   -0.9119 H         1 2U0         0.0224
     76 H           7.6491  -27.1952   -0.7901 H         1 2U0         0.0224
     77 H           9.6134  -26.6086   -3.9662 H         1 2U0         0.0495
     78 H           7.9678  -27.3264   -4.0243 H         1 2U0         0.0495
     79 H          11.3632  -30.0922   -0.8403 H         1 2U0         0.0389
     80 H           8.6507  -32.4813   -1.8549 H         1 2U0         0.0596
     81 H           8.2780  -31.8146   -0.2290 H         1 2U0         0.0596
@<TRIPOS>BOND
     1    1    2 ar 
     2    1    7 ar 
     3    2    3 1  
     4    2    4 ar 
     5    4    5 ar 
     6    5    6 ar 
     7    6    7 ar 
     8    7    8 1  
     9    8    9 1  
    10    8   10 1  
    11    9   34 1  
    12   10   11 1  
    13   10   19 1  
    14   11   12 ar 
    15   11   18 ar 
    16   12   13 ar 
    17   13   14 1  
    18   13   15 ar 
    19   15   16 1  
    20   15   17 ar 
    21   17   18 ar 
    22   19   20 1  
    23   19   32 am 
    24   20   21 1  
    25   20   24 1  
    26   21   22 1  
    27   21   23 1  
    28   22   23 1  
    29   24   25 1  
    30   25   26 2  
    31   25   27 2  
    32   25   28 1  
    33   28   29 1  
    34   28   30 1  
    35   28   31 1  
    36   32   33 2  
    37   32   34 1  
    38   34   35 1  
    39   34   36 1  
    40   36   37 1  
    41   37   38 1  
    42   37   39 2  
    43   38   41 1  
    44   39   40 1  
    45   40   41 2  
    46   41   42 1  
    47   42   43 1  
    48   43   44 ar 
    49   43   45 ar 
    50    1   46 1  
    51    4   47 1  
    52    5   48 1  
    53    6   49 1  
    54    8   50 1  
    55    9   51 1  
    56    9   52 1  
    57   10   53 1  
    58   12   54 1  
    59   17   55 1  
    60   18   56 1  
    61   20   57 1  
    62   21   58 1  
    63   22   59 1  
    64   22   60 1  
    65   23   61 1  
    66   23   62 1  
    67   24   63 1  
    68   24   64 1  
    69   29   65 1  
    70   29   66 1  
    71   29   67 1  
    72   30   68 1  
    73   30   69 1  
    74   30   70 1  
    75   31   71 1  
    76   31   72 1  
    77   31   73 1  
    78   35   74 1  
    79   35   75 1  
    80   35   76 1  
    81   36   77 1  
    82   36   78 1  
    83   40   79 1  
    84   42   80 1  
    85   42   81 1  
@<TRIPOS>SUBSTRUCTURE
     1 2U0         1

