### 
### Created by X-TOOL on Mon Sep 10 21:13:20 2018
### 

@<TRIPOS>MOLECULE
4odf_ligand
   79    83     1     0     0
SMALL
GAST_HUCK


@<TRIPOS>ATOM
      1 C11        11.8820  -22.8840   -2.4840 C.ar      1 2U1        -0.0438
      2 C10        12.8710  -22.1990   -1.7960 C.ar      1 2U1         0.0339
      3 CL1        14.4960  -22.2540   -2.3770 Cl        1 2U1        -0.0725
      4 C9         12.5610  -21.4830   -0.6470 C.ar      1 2U1        -0.0548
      5 C8         11.2490  -21.4460   -0.1910 C.ar      1 2U1        -0.0680
      6 C7         10.2580  -22.1310   -0.8860 C.ar      1 2U1        -0.0575
      7 C6         10.5740  -22.8450   -2.0340 C.ar      1 2U1        -0.0100
      8 C2          9.4830  -23.5880   -2.7800 C.3       1 2U1         0.1249
      9 O1          8.7140  -24.2390   -1.8520 O.3       1 2U1        -0.3456
     10 C3          7.7640  -25.0920   -2.4530 C.3       1 2U1         0.1604
     11 C22         6.8470  -25.4510   -1.2810 C.3       1 2U1         0.0339
     12 C24         7.6600  -26.0360   -0.1260 C.ar      1 2U1         0.0325
     13 C25         8.0840  -25.1600    0.8690 C.ar      1 2U1        -0.0291
     14 C26         8.8300  -25.6370    1.9310 C.ar      1 2U1        -0.0349
     15 C27         9.1190  -26.9900    1.9610 C.ar      1 2U1         0.0307
     16 C29         9.9390  -27.5490    3.1110 C.2       1 2U1         0.0659
     17 O4         10.1980  -28.7700    3.0920 O.co2     1 2U1        -0.5605
     18 O3         10.3250  -26.7490    3.9890 O.co2     1 2U1        -0.5605
     19 C28         8.6710  -27.8230    0.9430 C.ar      1 2U1         0.0172
     20 N2          7.9630  -27.3410   -0.0650 N.ar      1 2U1        -0.2939
     21 C23         8.4090  -26.3050   -3.1270 C.3       1 2U1        -0.0263
     22 C4          6.8960  -24.2950   -3.4240 C.2       1 2U1         0.2352
     23 O2          5.8360  -24.7990   -3.7990 O.2       1 2U1        -0.3411
     24 N1          7.3060  -23.0010   -3.8240 N.am      1 2U1        -0.2463
     25 C17         6.4330  -22.1390   -4.6480 C.3       1 2U1         0.0700
     26 C18         6.0110  -22.7140   -6.0040 C.3       1 2U1        -0.0159
     27 C20         6.2550  -21.7710   -7.1770 C.3       1 2U1        -0.0477
     28 C21         7.1290  -23.0150   -6.9910 C.3       1 2U1        -0.0477
     29 C19         5.1880  -21.8040   -3.8250 C.3       1 2U1         0.0900
     30 S1          5.4260  -20.8770   -2.2690 S.o2      1 2U1        -0.0240
     31 O5          5.8060  -19.4560   -2.5810 O.2       1 2U1        -0.1738
     32 O6          6.4730  -21.4940   -1.3940 O.2       1 2U1        -0.1738
     33 C30         3.8160  -20.9530   -1.4140 C.3       1 2U1         0.0795
     34 C32         3.8950  -20.1560   -0.1190 C.3       1 2U1        -0.0405
     35 C33         3.5130  -22.4260   -1.1310 C.3       1 2U1        -0.0405
     36 C31         2.7500  -20.3740   -2.3360 C.3       1 2U1        -0.0405
     37 C1          8.5710  -22.4700   -3.2770 C.3       1 2U1         0.1148
     38 C5          9.3710  -21.5940   -4.2350 C.ar      1 2U1        -0.0129
     39 C12         9.9650  -22.2000   -5.3340 C.ar      1 2U1        -0.0573
     40 C13        10.7170  -21.4570   -6.2280 C.ar      1 2U1        -0.0545
     41 C14        10.8890  -20.1020   -6.0000 C.ar      1 2U1         0.0330
     42 CL2        11.8400  -19.1840   -7.1110 Cl        1 2U1        -0.0771
     43 C15        10.3100  -19.4920   -4.8900 C.ar      1 2U1        -0.0545
     44 C16         9.5530  -20.2410   -3.9970 C.ar      1 2U1        -0.0573
     45 H          12.1329  -23.4499   -3.3739 H         1 2U1         0.0563
     46 H          13.3395  -20.9551   -0.1081 H         1 2U1         0.0565
     47 H          10.9989  -20.8856    0.7026 H         1 2U1         0.0599
     48 H           9.2345  -22.1073   -0.5298 H         1 2U1         0.0559
     49 H           9.8652  -24.2479   -3.5727 H         1 2U1         0.0805
     50 H           6.1063  -26.1927   -1.6146 H         1 2U1         0.0476
     51 H           6.3283  -24.5444   -0.9360 H         1 2U1         0.0476
     52 H           7.8303  -24.1077    0.8116 H         1 2U1         0.0657
     53 H           9.1771  -24.9729    2.7143 H         1 2U1         0.0751
     54 H           8.9046  -28.8810    0.9753 H         1 2U1         0.0838
     55 H           7.6265  -26.9334   -3.5773 H         1 2U1         0.0246
     56 H           8.9627  -26.8896   -2.3776 H         1 2U1         0.0246
     57 H           9.1014  -25.9639   -3.9107 H         1 2U1         0.0246
     58 H           6.9841  -21.2084   -4.8485 H         1 2U1         0.0581
     59 H           5.1165  -23.3497   -5.9287 H         1 2U1         0.0324
     60 H           6.6765  -20.7704   -7.0009 H         1 2U1         0.0269
     61 H           5.5329  -21.7241   -8.0054 H         1 2U1         0.0269
     62 H           7.0356  -23.8620   -7.6866 H         1 2U1         0.0269
     63 H           8.1793  -22.9083   -6.6820 H         1 2U1         0.0269
     64 H           4.6968  -22.7545   -3.5697 H         1 2U1         0.0523
     65 H           4.5215  -21.2071   -4.4648 H         1 2U1         0.0523
     66 H           2.9253  -20.2003    0.3985 H         1 2U1         0.0251
     67 H           4.1411  -19.1085   -0.3475 H         1 2U1         0.0251
     68 H           4.6755  -20.5834    0.5276 H         1 2U1         0.0251
     69 H           2.5455  -22.5086   -0.6141 H         1 2U1         0.0251
     70 H           4.3054  -22.8478   -0.4953 H         1 2U1         0.0251
     71 H           3.4701  -22.9805   -2.0801 H         1 2U1         0.0251
     72 H           1.7716  -20.4124   -1.8348 H         1 2U1         0.0251
     73 H           2.7096  -20.9622   -3.2646 H         1 2U1         0.0251
     74 H           2.9992  -19.3294   -2.5741 H         1 2U1         0.0251
     75 H           8.3008  -21.8450   -2.4131 H         1 2U1         0.0774
     76 H           9.8388  -23.2647   -5.4935 H         1 2U1         0.0558
     77 H          11.1650  -21.9295   -7.0946 H         1 2U1         0.0606
     78 H          10.4501  -18.4303   -4.7221 H         1 2U1         0.0606
     79 H           9.1105  -19.7727   -3.1252 H         1 2U1         0.0558
@<TRIPOS>BOND
     1    1    2 ar 
     2    1    7 ar 
     3    2    3 1  
     4    2    4 ar 
     5    4    5 ar 
     6    5    6 ar 
     7    6    7 ar 
     8    7    8 1  
     9    8    9 1  
    10    8   37 1  
    11    9   10 1  
    12   10   11 1  
    13   10   21 1  
    14   10   22 1  
    15   11   12 1  
    16   12   13 ar 
    17   12   20 ar 
    18   13   14 ar 
    19   14   15 ar 
    20   15   16 1  
    21   15   19 ar 
    22   16   17 ar 
    23   16   18 ar 
    24   19   20 ar 
    25   22   23 2  
    26   22   24 am 
    27   24   25 1  
    28   24   37 1  
    29   25   26 1  
    30   25   29 1  
    31   26   27 1  
    32   26   28 1  
    33   27   28 1  
    34   29   30 1  
    35   30   31 2  
    36   30   32 2  
    37   30   33 1  
    38   33   34 1  
    39   33   35 1  
    40   33   36 1  
    41   37   38 1  
    42   38   39 ar 
    43   38   44 ar 
    44   39   40 ar 
    45   40   41 ar 
    46   41   42 1  
    47   41   43 ar 
    48   43   44 ar 
    49    1   45 1  
    50    4   46 1  
    51    5   47 1  
    52    6   48 1  
    53    8   49 1  
    54   11   50 1  
    55   11   51 1  
    56   13   52 1  
    57   14   53 1  
    58   19   54 1  
    59   21   55 1  
    60   21   56 1  
    61   21   57 1  
    62   25   58 1  
    63   26   59 1  
    64   27   60 1  
    65   27   61 1  
    66   28   62 1  
    67   28   63 1  
    68   29   64 1  
    69   29   65 1  
    70   34   66 1  
    71   34   67 1  
    72   34   68 1  
    73   35   69 1  
    74   35   70 1  
    75   35   71 1  
    76   36   72 1  
    77   36   73 1  
    78   36   74 1  
    79   37   75 1  
    80   39   76 1  
    81   40   77 1  
    82   43   78 1  
    83   44   79 1  
@<TRIPOS>SUBSTRUCTURE
     1 2U1         1

