### 
### Created by X-TOOL on Mon Sep 10 21:13:23 2018
### 

@<TRIPOS>MOLECULE
4odp_ligand
   95    96     1     0     0
SMALL
GAST_HUCK


@<TRIPOS>ATOM
      1 N          45.0650   55.1940   37.2140 N.4       1 MET         0.2379
      2 CA         44.1580   56.2670   36.8170 C.3       1 MET         0.0658
      3 C          44.5570   56.9170   35.4940 C.2       1 MET         0.2267
      4 O          45.7290   56.9460   35.1250 O.2       1 MET        -0.3907
      5 CB         44.0720   57.3430   37.9050 C.3       1 MET         0.0168
      6 CG         43.3140   56.9210   39.1550 C.3       1 MET         0.0007
      7 SD         42.7870   58.3400   40.1400 S.3       1 MET        -0.1638
      8 CE         42.1570   57.5340   41.6160 C.3       1 MET        -0.0181
      9 N          43.5680   57.4530   34.7890 N.am      1 LYS        -0.2610
     10 CA         43.8180   58.1800   33.5530 C.3       1 LYS         0.1313
     11 C          44.1630   59.6460   33.8490 C.2       1 LYS         0.2064
     12 O          43.7630   60.1860   34.8820 O.2       1 LYS        -0.3942
     13 CB         42.5890   58.0880   32.6460 C.3       1 LYS        -0.0122
     14 CG         42.2620   56.6810   32.2020 C.3       1 LYS        -0.0440
     15 CD         40.8210   56.5860   31.7340 C.3       1 LYS        -0.0124
     16 CE         40.5570   55.2530   31.0690 C.3       1 LYS        -0.0354
     17 NZ         39.1980   55.2370   30.4780 N.4       1 LYS         0.2185
     18 N          44.9040   60.2990   32.9360 N.am      1 PRO        -0.2498
     19 CA         45.4690   59.6860   31.7280 C.3       1 PRO         0.1338
     20 C          46.6740   58.8130   32.0590 C.2       1 PRO         0.2042
     21 O          47.3390   59.0470   33.0690 O.2       1 PRO        -0.3944
     22 CB         45.8700   60.8930   30.8710 C.3       1 PRO        -0.0104
     23 CG         46.0520   62.0040   31.8350 C.3       1 PRO        -0.0281
     24 CD         45.0950   61.7600   32.9600 C.3       1 PRO         0.0369
     25 N          46.9150   57.7980   31.2350 N.am      1 PHE        -0.2619
     26 CA         48.0410   56.8950   31.4290 C.3       1 PHE         0.1404
     27 C          49.3310   57.5970   31.0150 C.2       1 PHE         0.2054
     28 O          49.6290   57.6940   29.8250 O.2       1 PHE        -0.3942
     29 CB         47.8690   55.6170   30.5940 C.3       1 PHE         0.0214
     30 CG         46.5950   54.8600   30.8730 C.ar      1 PHE        -0.0386
     31 CD1        45.9920   54.9080   32.1200 C.ar      1 PHE        -0.0601
     32 CD2        46.0040   54.0920   29.8790 C.ar      1 PHE        -0.0601
     33 CE1        44.8240   54.2100   32.3670 C.ar      1 PHE        -0.0686
     34 CE2        44.8370   53.3930   30.1210 C.ar      1 PHE        -0.0686
     35 CZ         44.2470   53.4520   31.3670 C.ar      1 PHE        -0.0687
     36 N          50.0830   58.0980   31.9930 N.am      1 ILE        -0.2691
     37 CA         51.4070   58.6600   31.7260 C.3       1 ILE         0.0969
     38 C          52.4850   57.8490   32.4320 C.2       1 ILE         0.0604
     39 O          53.1940   57.0730   31.8000 O.co2     1 ILE        -0.5666
     40 CB         51.5420   60.1250   32.1800 C.3       1 ILE        -0.0092
     41 CG1        50.5790   61.0270   31.4160 C.3       1 ILE        -0.0497
     42 CG2        52.9560   60.6070   31.9700 C.3       1 ILE        -0.0588
     43 CD1        49.4350   61.4940   32.2530 C.3       1 ILE        -0.0649
     44 OXT        52.6570   57.9620   33.6410 O.co2     1 ILE        -0.5666
     45 H1         44.7574   54.8009   38.0897 H         1 MET         0.2015
     46 H2         45.9967   55.5637   37.3205 H         1 MET         0.2015
     47 H3         45.0671   54.4765   36.5060 H         1 MET         0.2015
     48 H4         43.1583   55.8263   36.6890 H         1 MET         0.1098
     49 H5         43.5676   58.2226   37.4785 H         1 MET         0.0354
     50 H6         45.0961   57.6149   38.2003 H         1 MET         0.0354
     51 H7         43.9688   56.2859   39.7697 H         1 MET         0.0380
     52 H8         42.4246   56.3479   38.8542 H         1 MET         0.0380
     53 H9         41.7931   58.2948   42.3222 H         1 MET         0.0340
     54 H10        42.9620   56.9512   42.0875 H         1 MET         0.0340
     55 H11        41.3300   56.8624   41.3424 H         1 MET         0.0340
     56 H12        42.6278   57.3548   35.1152 H         1 LYS         0.1884
     57 H13        44.6725   57.7171   33.0377 H         1 LYS         0.0800
     58 H14        42.7722   58.7003   31.7507 H         1 LYS         0.0312
     59 H15        41.7232   58.4888   33.1935 H         1 LYS         0.0312
     60 H16        42.4135   55.9919   33.0459 H         1 LYS         0.0269
     61 H17        42.9295   56.3994   31.3743 H         1 LYS         0.0269
     62 H18        40.6220   57.3935   31.0140 H         1 LYS         0.0317
     63 H19        40.1527   56.6947   32.6009 H         1 LYS         0.0317
     64 H20        40.6372   54.4511   31.8176 H         1 LYS         0.0813
     65 H21        41.3005   55.0892   30.2751 H         1 LYS         0.0813
     66 H22        39.0334   54.3451   30.0382 H         1 LYS         0.1994
     67 H23        39.1221   55.9699   29.7901 H         1 LYS         0.1994
     68 H24        38.5142   55.3851   31.2037 H         1 LYS         0.1994
     69 H25        44.7132   59.0763   31.2113 H         1 PRO         0.0802
     70 H26        45.0769   61.1345   30.1480 H         1 PRO         0.0313
     71 H27        46.8077   60.6906   30.3328 H         1 PRO         0.0313
     72 H28        45.8298   62.9662   31.3506 H         1 PRO         0.0287
     73 H29        47.0854   62.0132   32.2119 H         1 PRO         0.0287
     74 H30        45.5243   62.0850   33.9192 H         1 PRO         0.0524
     75 H31        44.1434   62.2841   32.7877 H         1 PRO         0.0524
     76 H32        46.3039   57.6499   30.4575 H         1 PHE         0.1885
     77 H33        48.1011   56.6220   32.4929 H         1 PHE         0.0823
     78 H34        48.7186   54.9509   30.8047 H         1 PHE         0.0474
     79 H35        47.8774   55.8968   29.5302 H         1 PHE         0.0474
     80 H36        46.4407   55.4990   32.9102 H         1 PHE         0.0557
     81 H37        46.4646   54.0400   28.8991 H         1 PHE         0.0557
     82 H38        44.3611   54.2578   33.3460 H         1 PHE         0.0599
     83 H39        44.3860   52.7996   29.3339 H         1 PHE         0.0599
     84 H40        43.3319   52.9042   31.5607 H         1 PHE         0.0559
     85 H41        49.7351   58.0899   32.9305 H         1 ILE         0.1876
     86 H42        51.5807   58.6152   30.6407 H         1 ILE         0.0729
     87 H43        51.3026   60.1822   33.2521 H         1 ILE         0.0338
     88 H44        50.1803   60.4675   30.5570 H         1 ILE         0.0267
     89 H45        51.1326   61.9066   31.0557 H         1 ILE         0.0267
     90 H46        53.6508   59.9563   32.5212 H         1 ILE         0.0234
     91 H47        53.0501   61.6392   32.3383 H         1 ILE         0.0234
     92 H48        53.1982   60.5769   30.8974 H         1 ILE         0.0234
     93 H49        48.7781   62.1378   31.6497 H         1 ILE         0.0230
     94 H50        49.8180   62.0638   33.1124 H         1 ILE         0.0230
     95 H51        48.8657   60.6247   32.6137 H         1 ILE         0.0230
@<TRIPOS>BOND
     1    1    2 1  
     2    2    3 1  
     3    2    5 1  
     4    3    4 2  
     5    3    9 am 
     6    5    6 1  
     7    6    7 1  
     8    7    8 1  
     9    9   10 1  
    10   10   11 1  
    11   10   13 1  
    12   11   12 2  
    13   11   18 am 
    14   13   14 1  
    15   14   15 1  
    16   15   16 1  
    17   16   17 1  
    18   18   19 1  
    19   18   24 1  
    20   19   20 1  
    21   19   22 1  
    22   20   21 2  
    23   20   25 am 
    24   22   23 1  
    25   23   24 1  
    26   25   26 1  
    27   26   27 1  
    28   26   29 1  
    29   27   28 2  
    30   27   36 am 
    31   29   30 1  
    32   30   31 ar 
    33   30   32 ar 
    34   31   33 ar 
    35   32   34 ar 
    36   33   35 ar 
    37   34   35 ar 
    38   36   37 1  
    39   37   38 1  
    40   37   40 1  
    41   38   39 ar 
    42   38   44 ar 
    43   40   41 1  
    44   40   42 1  
    45   41   43 1  
    46    1   45 1  
    47    1   46 1  
    48    1   47 1  
    49    2   48 1  
    50    5   49 1  
    51    5   50 1  
    52    6   51 1  
    53    6   52 1  
    54    8   53 1  
    55    8   54 1  
    56    8   55 1  
    57    9   56 1  
    58   10   57 1  
    59   13   58 1  
    60   13   59 1  
    61   14   60 1  
    62   14   61 1  
    63   15   62 1  
    64   15   63 1  
    65   16   64 1  
    66   16   65 1  
    67   17   66 1  
    68   17   67 1  
    69   17   68 1  
    70   19   69 1  
    71   22   70 1  
    72   22   71 1  
    73   23   72 1  
    74   23   73 1  
    75   24   74 1  
    76   24   75 1  
    77   25   76 1  
    78   26   77 1  
    79   29   78 1  
    80   29   79 1  
    81   31   80 1  
    82   32   81 1  
    83   33   82 1  
    84   34   83 1  
    85   35   84 1  
    86   36   85 1  
    87   37   86 1  
    88   40   87 1  
    89   41   88 1  
    90   41   89 1  
    91   42   90 1  
    92   42   91 1  
    93   42   92 1  
    94   43   93 1  
    95   43   94 1  
    96   43   95 1  
@<TRIPOS>SUBSTRUCTURE
     1 MET         1

