### 
### Created by X-TOOL on Mon Sep 10 21:13:24 2018
### 

@<TRIPOS>MOLECULE
4odq_ligand
  105   107     1     0     0
SMALL
GAST_HUCK


@<TRIPOS>ATOM
      1 N         -15.7420    2.9980    9.4770 N.4       1 GLY         0.2357
      2 CA        -15.3640    1.6300    9.7820 C.3       1 GLY         0.0545
      3 C         -14.0160    1.5580   10.4710 C.2       1 GLY         0.2236
      4 O         -12.9970    1.2710    9.8430 O.2       1 GLY        -0.3910
      5 N         -14.0100    1.8160   11.7750 N.am      1 ILE        -0.2610
      6 CA        -12.7680    1.8840   12.5320 C.3       1 ILE         0.1336
      7 C         -12.4940    0.6070   13.3120 C.2       1 ILE         0.2042
      8 O         -11.3400    0.2840   13.5950 O.2       1 ILE        -0.3944
      9 CB        -12.7810    3.0690   13.5050 C.3       1 ILE        -0.0037
     10 CG1       -14.0230    3.0100   14.3910 C.3       1 ILE        -0.0491
     11 CG2       -12.7420    4.3800   12.7400 C.3       1 ILE        -0.0582
     12 CD1       -14.2730    4.2730   15.1620 C.3       1 ILE        -0.0648
     13 N         -13.5540   -0.1160   13.6580 N.am      1 VAL        -0.2635
     14 CA        -13.4210   -1.3790   14.3710 C.3       1 VAL         0.1332
     15 C         -13.0320   -2.4880   13.3940 C.2       1 VAL         0.2041
     16 O         -12.1200   -3.2700   13.6530 O.2       1 VAL        -0.3944
     17 CB        -14.7280   -1.7500   15.1010 C.3       1 VAL        -0.0063
     18 CG1       -14.6170   -3.1100   15.7410 C.3       1 VAL        -0.0584
     19 CG2       -15.0690   -0.6940   16.1500 C.3       1 VAL        -0.0584
     20 N         -13.7320   -2.5290   12.2660 N.am      1 LYS        -0.2637
     21 CA        -13.4660   -3.4860   11.1990 C.3       1 LYS         0.1312
     22 C         -13.2060   -2.7190    9.9060 C.2       1 LYS         0.2064
     23 O         -14.1340   -2.4520    9.1430 O.2       1 LYS        -0.3942
     24 CB        -14.6430   -4.4540   11.0280 C.3       1 LYS        -0.0122
     25 CG        -14.4650   -5.4900    9.9120 C.3       1 LYS        -0.0440
     26 CD        -15.7460   -6.2790    9.6700 C.3       1 LYS        -0.0124
     27 CE        -15.5800   -7.2690    8.5220 C.3       1 LYS        -0.0354
     28 NZ        -16.8480   -7.9920    8.2140 N.4       1 LYS         0.2185
     29 N         -11.9370   -2.3470    9.6670 N.am      1 PRO        -0.2498
     30 CA        -11.5470   -1.4870    8.5380 C.3       1 PRO         0.1337
     31 C         -11.9790   -2.0340    7.1770 C.2       1 PRO         0.2036
     32 O         -12.1240   -3.2480    7.0170 O.2       1 PRO        -0.3944
     33 CB        -10.0150   -1.4490    8.6390 C.3       1 PRO        -0.0104
     34 CG         -9.7190   -1.7670   10.0630 C.3       1 PRO        -0.0281
     35 CD        -10.7740   -2.7480   10.4780 C.3       1 PRO         0.0369
     36 N         -12.1810   -1.1430    6.2090 N.am      1 TRP        -0.2684
     37 CA        -12.5580   -1.5580    4.8630 C.3       1 TRP         0.0986
     38 C         -11.3240   -1.9660    4.0640 C.2       1 TRP         0.0613
     39 O         -10.4520   -1.1420    3.7860 O.co2     1 TRP        -0.5665
     40 CB        -13.3090   -0.4390    4.1320 C.3       1 TRP        -0.0013
     41 CG        -14.3730    0.2300    4.9540 C.2       1 TRP        -0.0424
     42 CD1       -14.3400    1.4970    5.4590 C.2       1 TRP         0.0166
     43 CD2       -15.6260   -0.3340    5.3660 C.ar      1 TRP        -0.0214
     44 NE1       -15.4940    1.7590    6.1580 N.pl3     1 TRP        -0.2891
     45 CE2       -16.2990    0.6510    6.1170 C.ar      1 TRP         0.0603
     46 CE3       -16.2420   -1.5740    5.1730 C.ar      1 TRP        -0.0747
     47 CZ2       -17.5570    0.4340    6.6760 C.ar      1 TRP        -0.0443
     48 CZ3       -17.4930   -1.7870    5.7290 C.ar      1 TRP        -0.0792
     49 CH2       -18.1360   -0.7880    6.4710 C.ar      1 TRP        -0.0768
     50 OXT       -11.1760   -3.1270    3.6820 O.co2     1 TRP        -0.5665
     51 H1        -16.6409    3.0045    9.0210 H         1 GLY         0.2012
     52 H2        -15.0528    3.4090    8.8669 H         1 GLY         0.2012
     53 H3        -15.7948    3.5304   10.3313 H         1 GLY         0.2012
     54 H4        -15.3155    1.0567    8.8445 H         1 GLY         0.1061
     55 H5        -16.1252    1.1892   10.4425 H         1 GLY         0.1061
     56 H6        -14.8786    1.9669   12.2470 H         1 ILE         0.1884
     57 H7        -11.9462    2.0312   11.8157 H         1 ILE         0.0803
     58 H8        -11.8885    3.0087   14.1452 H         1 ILE         0.0345
     59 H9        -13.9001    2.1842   15.1072 H         1 ILE         0.0267
     60 H10       -14.8967    2.8142   13.7521 H         1 ILE         0.0267
     61 H11       -11.8430    4.4084   12.1068 H         1 ILE         0.0235
     62 H12       -12.7162    5.2189   13.4511 H         1 ILE         0.0235
     63 H13       -13.6384    4.4625   12.1079 H         1 ILE         0.0235
     64 H14       -15.1794    4.1556   15.7740 H         1 ILE         0.0230
     65 H15       -14.4098    5.1096   14.4610 H         1 ILE         0.0230
     66 H16       -13.4131    4.4796   15.8162 H         1 ILE         0.0230
     67 H17       -14.4674    0.2160   13.4225 H         1 VAL         0.1883
     68 H18       -12.6227   -1.2734   15.1204 H         1 VAL         0.0802
     69 H19       -15.5414   -1.7808   14.3611 H         1 VAL         0.0343
     70 H20       -15.5594   -3.3517   16.2543 H         1 VAL         0.0234
     71 H21       -13.7931   -3.1062   16.4698 H         1 VAL         0.0234
     72 H22       -14.4176   -3.8648   14.9661 H         1 VAL         0.0234
     73 H23       -15.1462    0.2912   15.6668 H         1 VAL         0.0234
     74 H24       -14.2778   -0.6668   16.9137 H         1 VAL         0.0234
     75 H25       -16.0287   -0.9456   16.6251 H         1 VAL         0.0234
     76 H26       -14.4764   -1.8727   12.1429 H         1 LYS         0.1883
     77 H27       -12.5687   -4.0679   11.4564 H         1 LYS         0.0800
     78 H28       -15.5433   -3.8625   10.8056 H         1 LYS         0.0312
     79 H29       -14.7835   -4.9932   11.9764 H         1 LYS         0.0312
     80 H30       -13.6642   -6.1881   10.1973 H         1 LYS         0.0269
     81 H31       -14.1850   -4.9704    8.9838 H         1 LYS         0.0269
     82 H32       -16.5572   -5.5781    9.4238 H         1 LYS         0.0317
     83 H33       -16.0043   -6.8320   10.5851 H         1 LYS         0.0317
     84 H34       -14.8104   -8.0051    8.7974 H         1 LYS         0.0813
     85 H35       -15.2581   -6.7203    7.6246 H         1 LYS         0.0813
     86 H36       -16.6925   -8.6333    7.4520 H         1 LYS         0.1994
     87 H37       -17.5593   -7.3269    7.9535 H         1 LYS         0.1994
     88 H38       -17.1490   -8.5043    9.0282 H         1 LYS         0.1994
     89 H39       -11.9714   -0.4801    8.6648 H         1 PRO         0.0802
     90 H40        -9.6342   -0.4506    8.3779 H         1 PRO         0.0313
     91 H41        -9.5641   -2.1992    7.9728 H         1 PRO         0.0313
     92 H42        -9.7742   -0.8581   10.6801 H         1 PRO         0.0287
     93 H43        -8.7186   -2.2144   10.1578 H         1 PRO         0.0287
     94 H44       -10.4678   -3.7790   10.2474 H         1 PRO         0.0524
     95 H45       -10.9928   -2.6622   11.5526 H         1 PRO         0.0524
     96 H46       -12.0720   -0.1693    6.4089 H         1 TRP         0.1876
     97 H47       -13.2253   -2.4287    4.9441 H         1 TRP         0.0741
     98 H48       -13.7840   -0.8696    3.2381 H         1 TRP         0.0390
     99 H49       -12.5782    0.3245    3.8272 H         1 TRP         0.0390
    100 H50       -13.5181    2.1992    5.3273 H         1 TRP         0.0795
    101 H51       -15.7173    2.6442    6.6350 H         1 TRP         0.2216
    102 H52       -15.7511   -2.3526    4.6003 H         1 TRP         0.0540
    103 H53       -18.0575    1.2044    7.2514 H         1 TRP         0.0541
    104 H54       -17.9828   -2.7436    5.5873 H         1 TRP         0.0510
    105 H55       -19.1146   -0.9879    6.8922 H         1 TRP         0.0530
@<TRIPOS>BOND
     1    1    2 1  
     2    2    3 1  
     3    3    4 2  
     4    3    5 am 
     5    5    6 1  
     6    6    7 1  
     7    6    9 1  
     8    7    8 2  
     9    7   13 am 
    10    9   10 1  
    11    9   11 1  
    12   10   12 1  
    13   13   14 1  
    14   14   15 1  
    15   14   17 1  
    16   15   16 2  
    17   15   20 am 
    18   17   18 1  
    19   17   19 1  
    20   20   21 1  
    21   21   22 1  
    22   21   24 1  
    23   22   23 2  
    24   22   29 am 
    25   24   25 1  
    26   25   26 1  
    27   26   27 1  
    28   27   28 1  
    29   29   30 1  
    30   29   35 1  
    31   30   31 1  
    32   30   33 1  
    33   31   32 2  
    34   31   36 am 
    35   33   34 1  
    36   34   35 1  
    37   36   37 1  
    38   37   38 1  
    39   37   40 1  
    40   38   39 ar 
    41   38   50 ar 
    42   40   41 1  
    43   41   42 2  
    44   41   43 1  
    45   42   44 1  
    46   43   45 ar 
    47   43   46 ar 
    48   44   45 1  
    49   45   47 ar 
    50   46   48 ar 
    51   47   49 ar 
    52   48   49 ar 
    53    1   51 1  
    54    1   52 1  
    55    1   53 1  
    56    2   54 1  
    57    2   55 1  
    58    5   56 1  
    59    6   57 1  
    60    9   58 1  
    61   10   59 1  
    62   10   60 1  
    63   11   61 1  
    64   11   62 1  
    65   11   63 1  
    66   12   64 1  
    67   12   65 1  
    68   12   66 1  
    69   13   67 1  
    70   14   68 1  
    71   17   69 1  
    72   18   70 1  
    73   18   71 1  
    74   18   72 1  
    75   19   73 1  
    76   19   74 1  
    77   19   75 1  
    78   20   76 1  
    79   21   77 1  
    80   24   78 1  
    81   24   79 1  
    82   25   80 1  
    83   25   81 1  
    84   26   82 1  
    85   26   83 1  
    86   27   84 1  
    87   27   85 1  
    88   28   86 1  
    89   28   87 1  
    90   28   88 1  
    91   30   89 1  
    92   33   90 1  
    93   33   91 1  
    94   34   92 1  
    95   34   93 1  
    96   35   94 1  
    97   35   95 1  
    98   36   96 1  
    99   37   97 1  
   100   40   98 1  
   101   40   99 1  
   102   42  100 1  
   103   44  101 1  
   104   46  102 1  
   105   47  103 1  
   106   48  104 1  
   107   49  105 1  
@<TRIPOS>SUBSTRUCTURE
     1 GLY         1

