### 
### Created by X-TOOL on Mon Sep 10 21:13:17 2018
### 

@<TRIPOS>MOLECULE
4oee_ligand
   56    57     1     0     0
SMALL
GAST_HUCK


@<TRIPOS>ATOM
      1 N         -14.1330   -7.3920   -3.1830 N.am      1 GNX        -0.2704
      2 C1        -12.7420   -5.4580   -3.7380 C.3       1 GNX         0.1822
      3 S1        -15.0800   -7.2520   -1.9730 S.o2      1 GNX        -0.1197
      4 C2        -13.9630   -6.2930   -4.1520 C.3       1 GNX         0.1163
      5 C3        -13.7600   -6.8930   -5.5470 C.3       1 GNX         0.1369
      6 O3        -14.9840   -7.4980   -5.9860 O.3       1 GNX        -0.2577
      7 C4        -13.3580   -5.7980   -6.5410 C.3       1 GNX         0.1137
      8 O4        -12.9600   -6.3950   -7.7840 O.3       1 GNX        -0.3864
      9 C5        -12.2050   -4.9580   -6.0010 C.3       1 GNX         0.1130
     10 O5        -12.5480   -4.4300   -4.7200 O.3       1 GNX        -0.3411
     11 C6        -11.8520   -3.8020   -6.9370 C.3       1 GNX         0.0730
     12 O6        -12.9510   -2.8880   -6.9750 O.3       1 GNX        -0.3924
     13 O12       -16.4900   -9.2930   -6.4390 O.co2     1 GNX        -0.4611
     14 S12       -15.0510   -8.9610   -6.4380 S.o2      1 GNX        -0.0733
     15 O1S       -16.4170   -6.9010   -2.4790 O.co2     1 GNX        -0.4676
     16 O22       -14.4670   -9.0480   -7.7870 O.co2     1 GNX        -0.4611
     17 O2S       -15.0820   -8.5460   -1.2650 O.co2     1 GNX        -0.4676
     18 O32       -14.3020   -9.7780   -5.4760 O.co2     1 GNX        -0.4611
     19 O3S       -14.5760   -6.2060   -1.0680 O.co2     1 GNX        -0.4676
     20 S         -11.4800  -10.2560   -1.8970 S.o2      1 IDY        -0.0732
     21 C1         -8.9150   -8.0890   -2.0310 C.3       1 IDY         0.1919
     22 O1         -7.9380   -7.6040   -1.1160 O.3       1 IDY        -0.3518
     23 C2        -10.3190   -7.9980   -1.4420 C.3       1 IDY         0.1635
     24 O2        -11.2000   -8.7880   -2.2470 O.3       1 IDY        -0.2546
     25 C3        -10.8590   -6.5730   -1.3700 C.3       1 IDY         0.1184
     26 O3        -10.2470   -5.9010   -0.2600 O.3       1 IDY        -0.3862
     27 C4        -10.6210   -5.7900   -2.6590 C.3       1 IDY         0.1280
     28 O4        -11.5610   -6.2560   -3.6400 O.3       1 IDY        -0.3391
     29 C5         -9.1890   -5.9830   -3.1520 C.3       1 IDY         0.1424
     30 O5         -8.8670   -7.3670   -3.2600 O.3       1 IDY        -0.3284
     31 C6         -9.0250   -5.4280   -4.5360 C.2       1 IDY         0.0664
     32 C7         -6.5410   -7.7280   -1.4770 C.3       1 IDY         0.0395
     33 O61        -9.0050   -4.1850   -4.6680 O.co2     1 IDY        -0.5662
     34 O62        -8.9080   -6.2310   -5.4930 O.co2     1 IDY        -0.5662
     35 OS1       -12.3320  -10.7620   -2.9760 O.co2     1 IDY        -0.4611
     36 OS2       -12.1220  -10.2940   -0.5690 O.co2     1 IDY        -0.4611
     37 OS3       -10.1940  -10.9720   -1.8570 O.co2     1 IDY        -0.4611
     38 H         -13.6251   -8.2436   -3.3127 H         1 GNX         0.1646
     39 H         -12.9388   -4.9969   -2.7589 H         1 GNX         0.0930
     40 H         -14.8593   -5.6554   -4.1547 H         1 GNX         0.0588
     41 H         -12.9678   -7.6549   -5.5036 H         1 GNX         0.0667
     42 H         -14.2245   -5.1431   -6.7154 H         1 GNX         0.0647
     43 H         -13.6853   -6.8941   -8.1409 H         1 GNX         0.2100
     44 H         -11.3224   -5.6061   -5.8965 H         1 GNX         0.0647
     45 H         -11.6591   -4.1904   -7.9479 H         1 GNX         0.0584
     46 H         -10.9546   -3.2859   -6.5651 H         1 GNX         0.0584
     47 H         -13.1157   -2.5559   -6.1003 H         1 GNX         0.2095
     48 H          -8.6935   -9.1462   -2.2391 H         1 GNX         0.0939
     49 H         -10.2935   -8.4084   -0.4218 H         1 GNX         0.0697
     50 H         -11.9443   -6.6234   -1.1982 H         1 GNX         0.0650
     51 H         -10.4540   -6.3648    0.5428 H         1 GNX         0.2100
     52 H         -10.7902   -4.7194   -2.4715 H         1 GNX         0.0669
     53 H          -8.4974   -5.4847   -2.4567 H         1 GNX         0.0794
     54 H          -5.9163   -7.3109   -0.6734 H         1 GNX         0.0525
     55 H          -6.3533   -7.1775   -2.4106 H         1 GNX         0.0525
     56 H          -6.2923   -8.7898   -1.6210 H         1 GNX         0.0525
@<TRIPOS>BOND
     1    1    3 am 
     2    4    1 1  
     3    2    4 1  
     4    2   10 1  
     5   28    2 1  
     6    3   15 ar 
     7    3   17 ar 
     8    3   19 ar 
     9    4    5 1  
    10    5    6 1  
    11    5    7 1  
    12    6   14 1  
    13    7    8 1  
    14    9    7 1  
    15   10    9 1  
    16    9   11 1  
    17   11   12 1  
    18   14   13 ar 
    19   14   16 ar 
    20   14   18 ar 
    21   24   20 1  
    22   20   35 ar 
    23   20   36 ar 
    24   20   37 ar 
    25   21   22 1  
    26   23   21 1  
    27   21   30 1  
    28   22   32 1  
    29   23   24 1  
    30   25   23 1  
    31   25   26 1  
    32   27   25 1  
    33   27   28 1  
    34   27   29 1  
    35   29   30 1  
    36   29   31 1  
    37   31   33 ar 
    38   31   34 ar 
    39    1   38 1  
    40    2   39 1  
    41    4   40 1  
    42    5   41 1  
    43    7   42 1  
    44    8   43 1  
    45    9   44 1  
    46   11   45 1  
    47   11   46 1  
    48   12   47 1  
    49   21   48 1  
    50   23   49 1  
    51   25   50 1  
    52   26   51 1  
    53   27   52 1  
    54   29   53 1  
    55   32   54 1  
    56   32   55 1  
    57   32   56 1  
@<TRIPOS>SUBSTRUCTURE
     1 GNX         1

