### 
### Created by X-TOOL on Mon Sep 10 21:13:17 2018
### 

@<TRIPOS>MOLECULE
4oef_ligand
   56    57     1     0     0
SMALL
GAST_HUCK


@<TRIPOS>ATOM
      1 C1         13.9380  -19.3750   21.5260 C.3       1 SGN         0.1821
      2 C2         14.5710  -19.5830   20.1490 C.3       1 SGN         0.1138
      3 C3         14.5170  -21.0570   19.7590 C.3       1 SGN         0.1076
      4 C4         15.1650  -21.8860   20.8560 C.3       1 SGN         0.1113
      5 C5         14.4740  -21.5800   22.1780 C.3       1 SGN         0.1154
      6 C6         15.1430  -22.3660   23.2950 C.3       1 SGN         0.1024
      7 N          13.8950  -18.7620   19.1540 N.am      1 SGN        -0.2705
      8 O3         15.2020  -21.2330   18.5420 O.3       1 SGN        -0.3871
      9 O4         15.0750  -23.2710   20.5550 O.3       1 SGN        -0.3865
     10 O5         14.5820  -20.2020   22.4830 O.3       1 SGN        -0.3411
     11 O6         16.4880  -21.9460   23.2900 O.3       1 SGN        -0.2631
     12 S1         14.3950  -17.2510   18.9520 S.o2      1 SGN        -0.1197
     13 O1S        13.6500  -16.6860   17.8600 O.co2     1 SGN        -0.4676
     14 O2S        15.8210  -17.3520   18.6600 O.co2     1 SGN        -0.4676
     15 O3S        14.1520  -16.5450   20.1980 O.co2     1 SGN        -0.4676
     16 S2         17.4490  -22.4740   24.3870 S.o2      1 SGN        -0.0736
     17 O4S        18.6700  -21.6840   24.3180 O.co2     1 SGN        -0.4611
     18 O5S        17.7180  -23.8510   23.9850 O.co2     1 SGN        -0.4611
     19 O6S        16.7370  -22.3130   25.6540 O.co2     1 SGN        -0.4611
     20 S          10.2310  -18.4640   17.7990 S.o2      1 IDY        -0.0732
     21 C1          9.1460  -19.4360   20.7900 C.3       1 IDY         0.1919
     22 O1          7.8540  -18.9200   21.1700 O.3       1 IDY        -0.3518
     23 C2         10.1030  -18.3280   20.3270 C.3       1 IDY         0.1635
     24 O2         10.7750  -18.8440   19.1890 O.3       1 IDY        -0.2546
     25 C3         11.1250  -17.8630   21.3550 C.3       1 IDY         0.1184
     26 O3         10.4470  -16.9500   22.2210 O.3       1 IDY        -0.3862
     27 C4         11.7290  -19.0080   22.1720 C.3       1 IDY         0.1280
     28 O4         12.5850  -19.8200   21.3440 O.3       1 IDY        -0.3391
     29 C5         10.5810  -19.8130   22.7450 C.3       1 IDY         0.1424
     30 O5          9.7720  -20.3540   21.6990 O.3       1 IDY        -0.3284
     31 C6         11.0610  -20.9860   23.5430 C.2       1 IDY         0.0664
     32 C7          7.4550  -18.8520   22.5380 C.3       1 IDY         0.0395
     33 O61        11.8500  -20.7870   24.4730 O.co2     1 IDY        -0.5662
     34 O62        10.6220  -22.1100   23.2260 O.co2     1 IDY        -0.5662
     35 OS1        11.0640  -19.1490   16.7980 O.co2     1 IDY        -0.4611
     36 OS2        10.3170  -17.0000   17.6810 O.co2     1 IDY        -0.4611
     37 OS3         8.8230  -18.9090   17.6740 O.co2     1 IDY        -0.4611
     38 H          13.9816  -18.3209   21.8374 H         1 SGN         0.0930
     39 H          15.6255  -19.2738   20.1980 H         1 SGN         0.0587
     40 H          13.4693  -21.3691   19.6368 H         1 SGN         0.0641
     41 H          16.2271  -21.6104   20.9340 H         1 SGN         0.0646
     42 H          13.4128  -21.8610   22.1084 H         1 SGN         0.0648
     43 H          15.0759  -23.4464   23.0998 H         1 SGN         0.0610
     44 H          14.6717  -22.1382   24.2624 H         1 SGN         0.0610
     45 H          13.1398  -19.1300   18.6115 H         1 SGN         0.1646
     46 H          14.7860  -20.7095   17.8672 H         1 SGN         0.2100
     47 H          15.5106  -23.4433   19.7285 H         1 SGN         0.2100
     48 H           8.9450  -20.0378   19.8914 H         1 SGN         0.0939
     49 H           9.5031  -17.4533   20.0354 H         1 SGN         0.0697
     50 H          11.9423  -17.3416   20.8352 H         1 SGN         0.0650
     51 H          10.1195  -16.2172   21.7128 H         1 SGN         0.2100
     52 H          12.3277  -18.5937   22.9966 H         1 SGN         0.0669
     53 H           9.9743  -19.1551   23.3846 H         1 SGN         0.0794
     54 H           6.4412  -18.4301   22.6037 H         1 SGN         0.0525
     55 H           8.1556  -18.2107   23.0929 H         1 SGN         0.0525
     56 H           7.4604  -19.8626   22.9722 H         1 SGN         0.0525
@<TRIPOS>BOND
     1    1    2 1  
     2    1   10 1  
     3   28    1 1  
     4    2    3 1  
     5    2    7 1  
     6    3    4 1  
     7    3    8 1  
     8    5    4 1  
     9    4    9 1  
    10    5    6 1  
    11   10    5 1  
    12    6   11 1  
    13    7   12 am 
    14   11   16 1  
    15   12   13 ar 
    16   12   14 ar 
    17   12   15 ar 
    18   16   17 ar 
    19   16   18 ar 
    20   16   19 ar 
    21   24   20 1  
    22   20   35 ar 
    23   20   36 ar 
    24   20   37 ar 
    25   21   22 1  
    26   23   21 1  
    27   21   30 1  
    28   22   32 1  
    29   23   24 1  
    30   25   23 1  
    31   25   26 1  
    32   27   25 1  
    33   27   28 1  
    34   27   29 1  
    35   29   30 1  
    36   29   31 1  
    37   31   33 ar 
    38   31   34 ar 
    39    1   38 1  
    40    2   39 1  
    41    3   40 1  
    42    4   41 1  
    43    5   42 1  
    44    6   43 1  
    45    6   44 1  
    46    7   45 1  
    47    8   46 1  
    48    9   47 1  
    49   21   48 1  
    50   23   49 1  
    51   25   50 1  
    52   26   51 1  
    53   27   52 1  
    54   29   53 1  
    55   32   54 1  
    56   32   55 1  
    57   32   56 1  
@<TRIPOS>SUBSTRUCTURE
     1 SGN         1

