### 
### Created by X-TOOL on Mon Sep 10 21:13:17 2018
### 

@<TRIPOS>MOLECULE
4oeg_ligand
   59    60     1     0     0
SMALL
GAST_HUCK


@<TRIPOS>ATOM
      1 N          13.5200  -18.8250   19.8740 N.am      1 SUS        -0.2704
      2 C1         13.4050  -19.3160   22.2420 C.3       1 SUS         0.1822
      3 S1         13.9550  -17.3650   19.5970 S.o2      1 SUS        -0.1197
      4 C2         14.2010  -19.5650   20.9560 C.3       1 SUS         0.1163
      5 S2         16.7500  -22.4500   25.3920 S.o2      1 SUS        -0.0736
      6 C3         14.2580  -21.0710   20.6510 C.3       1 SUS         0.1369
      7 O3         15.1770  -21.3130   19.5870 O.3       1 SUS        -0.2577
      8 S3         14.8420  -22.2570   18.4250 S.o2      1 SUS        -0.0733
      9 C4         14.7380  -21.8220   21.8900 C.3       1 SUS         0.1138
     10 O4         14.7080  -23.2370   21.6680 O.3       1 SUS        -0.3864
     11 C5         13.8890  -21.4780   23.1040 C.3       1 SUS         0.1155
     12 O5         13.9590  -20.0700   23.3330 O.3       1 SUS        -0.3411
     13 C6         14.4360  -22.1930   24.3300 C.3       1 SUS         0.1024
     14 O6         15.7460  -21.6780   24.5340 O.3       1 SUS        -0.2631
     15 O1S        13.6170  -16.5240   20.7560 O.co2     1 SUS        -0.4676
     16 O2S        15.4130  -17.3900   19.3700 O.co2     1 SUS        -0.4676
     17 O3S        13.2230  -16.8990   18.3970 O.co2     1 SUS        -0.4676
     18 O4S        16.9040  -23.7980   24.7940 O.co2     1 SUS        -0.4611
     19 O5S        18.0420  -21.7400   25.4000 O.co2     1 SUS        -0.4611
     20 O6S        16.2000  -22.5420   26.7590 O.co2     1 SUS        -0.4611
     21 O7S        15.6410  -23.4910   18.5990 O.co2     1 SUS        -0.4611
     22 O8S        13.3980  -22.5560   18.4690 O.co2     1 SUS        -0.4611
     23 O9S        15.1730  -21.6220   17.1330 O.co2     1 SUS        -0.4611
     24 S           9.7610  -18.3400   18.4610 S.o2      1 IDY        -0.0732
     25 C1          8.5910  -19.2870   21.5270 C.3       1 IDY         0.1919
     26 O1          7.5780  -18.6470   22.2990 O.3       1 IDY        -0.3518
     27 C2          9.5740  -18.2280   21.0200 C.3       1 IDY         0.1635
     28 O2         10.2570  -18.7260   19.8630 O.3       1 IDY        -0.2546
     29 C3         10.5750  -17.7710   22.0830 C.3       1 IDY         0.1184
     30 O3          9.9380  -16.8240   22.9430 O.3       1 IDY        -0.3862
     31 C4         11.1110  -18.9140   22.9400 C.3       1 IDY         0.1280
     32 O4         12.0280  -19.7010   22.1700 O.3       1 IDY        -0.3391
     33 C5          9.9610  -19.7840   23.4280 C.3       1 IDY         0.1424
     34 O5          9.2590  -20.2970   22.2980 O.3       1 IDY        -0.3284
     35 C6         10.5120  -20.9190   24.2330 C.2       1 IDY         0.0664
     36 C7          6.4140  -19.4640   22.4240 C.3       1 IDY         0.0395
     37 O61        10.0890  -22.0710   24.0040 O.co2     1 IDY        -0.5662
     38 O62        11.3760  -20.6650   25.0970 O.co2     1 IDY        -0.5662
     39 OS1        10.6270  -19.0500   17.4990 O.co2     1 IDY        -0.4611
     40 OS2         9.8620  -16.8760   18.3620 O.co2     1 IDY        -0.4611
     41 OS3         8.3600  -18.8170   18.3450 O.co2     1 IDY        -0.4611
     42 H          12.7967  -19.2558   19.3343 H         1 SUS         0.1646
     43 H          13.4611  -18.2414   22.4702 H         1 SUS         0.0930
     44 H          15.2266  -19.1851   21.0734 H         1 SUS         0.0588
     45 H          13.2572  -21.4267   20.3648 H         1 SUS         0.0667
     46 H          15.7762  -21.5215   22.0944 H         1 SUS         0.0647
     47 H          15.2756  -23.4540   20.9378 H         1 SUS         0.2100
     48 H          12.8462  -21.7805   22.9280 H         1 SUS         0.0648
     49 H          14.4754  -23.2780   24.1535 H         1 SUS         0.0610
     50 H          13.8038  -21.9867   25.2062 H         1 SUS         0.0610
     51 H           8.1199  -19.7721   20.6594 H         1 SUS         0.0939
     52 H           8.9884  -17.3467   20.7196 H         1 SUS         0.0697
     53 H          11.4234  -17.2891   21.5752 H         1 SUS         0.0650
     54 H           9.6492  -16.0774   22.4314 H         1 SUS         0.2100
     55 H          11.6379  -18.4953   23.8101 H         1 SUS         0.0669
     56 H           9.2783  -19.1859   24.0495 H         1 SUS         0.0794
     57 H           5.6584  -18.9363   23.0245 H         1 SUS         0.0525
     58 H           6.6809  -20.4093   22.9190 H         1 SUS         0.0525
     59 H           6.0056  -19.6758   21.4248 H         1 SUS         0.0525
@<TRIPOS>BOND
     1    1    3 am 
     2    4    1 1  
     3    2    4 1  
     4    2   12 1  
     5   32    2 1  
     6    3   15 ar 
     7    3   16 ar 
     8    3   17 ar 
     9    4    6 1  
    10   14    5 1  
    11    5   18 ar 
    12    5   19 ar 
    13    5   20 ar 
    14    6    7 1  
    15    6    9 1  
    16    7    8 1  
    17    8   21 ar 
    18    8   22 ar 
    19    8   23 ar 
    20    9   10 1  
    21   11    9 1  
    22   12   11 1  
    23   11   13 1  
    24   13   14 1  
    25   28   24 1  
    26   24   39 ar 
    27   24   40 ar 
    28   24   41 ar 
    29   25   26 1  
    30   27   25 1  
    31   25   34 1  
    32   26   36 1  
    33   27   28 1  
    34   29   27 1  
    35   29   30 1  
    36   31   29 1  
    37   31   32 1  
    38   31   33 1  
    39   33   34 1  
    40   33   35 1  
    41   35   37 ar 
    42   35   38 ar 
    43    1   42 1  
    44    2   43 1  
    45    4   44 1  
    46    6   45 1  
    47    9   46 1  
    48   10   47 1  
    49   11   48 1  
    50   13   49 1  
    51   13   50 1  
    52   25   51 1  
    53   27   52 1  
    54   29   53 1  
    55   30   54 1  
    56   31   55 1  
    57   33   56 1  
    58   36   57 1  
    59   36   58 1  
    60   36   59 1  
@<TRIPOS>SUBSTRUCTURE
     1 SUS         1

