### 
### Created by X-TOOL on Mon Sep 10 21:13:18 2018
### 

@<TRIPOS>MOLECULE
4oeu_ligand
   20    20     1     0     0
SMALL
GAST_HUCK


@<TRIPOS>ATOM
      1 N         -76.9780   -9.2480   40.0560 N.4       1 HIS         0.2337
      2 CA        -77.7040   -7.9840   40.1470 C.3       1 HIS         0.0342
      3 C         -77.1350   -7.1180   41.2600 C.2       1 HIS         0.0860
      4 O         -76.3850   -7.6180   42.0910 O.co2     1 HIS        -0.5642
      5 CB        -79.1880   -8.2380   40.4130 C.3       1 HIS         0.0292
      6 CG        -79.4690   -8.8400   41.7520 C.2       1 HIS        -0.0001
      7 ND1       -78.5950   -9.7200   42.3750 N.2       1 HIS        -0.3251
      8 CD2       -80.5150   -8.7060   42.6020 C.2       1 HIS         0.0292
      9 CE1       -79.0980  -10.0940   43.5320 C.2       1 HIS         0.0907
     10 NE2       -80.2650   -9.4890   43.7000 N.pl3     1 HIS        -0.2752
     11 OXT       -77.4450   -5.9290   41.3890 O.co2     1 HIS        -0.5642
     12 H         -77.3689   -9.8073   39.3141 H         1 HIS         0.2011
     13 H         -77.0579   -9.7450   40.9293 H         1 HIS         0.2011
     14 H         -76.0062   -9.0641   39.8617 H         1 HIS         0.2011
     15 H         -77.5997   -7.4491   39.1915 H         1 HIS         0.1042
     16 H         -79.5664   -8.9223   39.6394 H         1 HIS         0.0446
     17 H         -79.7211   -7.2782   40.3461 H         1 HIS         0.0446
     18 H         -81.3968   -8.0872   42.4422 H         1 HIS         0.0729
     19 H         -78.6332  -10.7849   44.2338 H         1 HIS         0.1199
     20 H         -80.8816   -9.5900   44.5188 H         1 HIS         0.2361
@<TRIPOS>BOND
     1    1    2 1  
     2    2    3 1  
     3    2    5 1  
     4    3    4 ar 
     5    3   11 ar 
     6    5    6 1  
     7    6    7 1  
     8    6    8 2  
     9    7    9 2  
    10    8   10 1  
    11    9   10 1  
    12    1   12 1  
    13    1   13 1  
    14    1   14 1  
    15    2   15 1  
    16    5   16 1  
    17    5   17 1  
    18    8   18 1  
    19    9   19 1  
    20   10   20 1  
@<TRIPOS>SUBSTRUCTURE
     1 HIS         1

