### 
### Created by X-TOOL on Mon Sep 10 21:13:24 2018
### 

@<TRIPOS>MOLECULE
4oew_ligand
   58    60     1     0     0
SMALL
GAST_HUCK


@<TRIPOS>ATOM
      1 CAA       -25.2180   18.8870  -19.2840 C.3       1 5IO        -0.0628
      2 CAB       -29.8350   13.5760  -15.0940 C.3       1 5IO        -0.0515
      3 CAC       -29.4720    9.6800  -19.7340 C.3       1 5IO        -0.0430
      4 OAD       -28.9300   19.1680  -16.6340 O.3       1 5IO        -0.3065
      5 OAE       -31.0240   13.5310  -24.0910 O.2       1 5IO        -0.1514
      6 OAF       -32.6380   14.3540  -22.4650 O.2       1 5IO        -0.1514
      7 IAG       -30.5490   17.6170  -14.0150 I         1 5IO        -0.0500
      8 CAH       -28.7320   14.8660  -22.6480 C.ar      1 5IO        -0.0395
      9 CAI       -27.6580   15.5620  -22.0500 C.ar      1 5IO        -0.0247
     10 CAJ       -29.9720   14.9780  -20.6210 C.ar      1 5IO        -0.0270
     11 CAK       -24.5550   17.9120  -20.2110 C.3       1 5IO        -0.0276
     12 CAL       -30.8200   14.6100  -15.6370 C.3       1 5IO        -0.0028
     13 CAM       -25.5030   16.9870  -20.9280 C.3       1 5IO         0.0722
     14 CAN       -29.9440   10.0030  -22.1510 C.3       1 5IO        -0.0146
     15 CAO       -31.5030   10.1150  -20.5250 C.3       1 5IO        -0.0146
     16 CAP       -30.0800   11.5250  -22.3670 C.3       1 5IO         0.0697
     17 CAQ       -31.6280   11.6060  -20.5650 C.3       1 5IO         0.0697
     18 NAR       -29.7810   15.2910  -17.7350 N.ar      1 5IO        -0.2785
     19 NAS       -28.9420   17.3640  -18.1260 N.ar      1 5IO        -0.2479
     20 OAT       -26.6550   16.6660  -20.1680 O.3       1 5IO        -0.3120
     21 CAU       -29.9300   14.5680  -21.9010 C.ar      1 5IO         0.1026
     22 CAV       -27.7280   15.9820  -20.7210 C.ar      1 5IO         0.1104
     23 CAW       -30.1500   15.6860  -16.4780 C.ar      1 5IO         0.0404
     24 CAX       -29.9110   16.9950  -15.9640 C.ar      1 5IO         0.0852
     25 CAY       -28.8590   15.6680  -19.9600 C.ar      1 5IO         0.0498
     26 CAZ       -29.1690   16.0930  -18.5370 C.ar      1 5IO         0.1029
     27 CBA       -29.2760   17.8210  -16.8850 C.ar      1 5IO         0.1773
     28 NBB       -30.2700    9.6680  -20.8820 N.4       1 5IO         0.2354
     29 NBC       -31.4030   12.1830  -21.8660 N.am      1 5IO        -0.2250
     30 SBD       -31.2900   13.6580  -22.6560 S.o2      1 5IO         0.0671
     31 H1        -24.4532   19.5178  -18.8073 H         1 5IO         0.0231
     32 H2        -25.7742   18.3373  -18.5104 H         1 5IO         0.0231
     33 H3        -25.9127   19.5210  -19.8544 H         1 5IO         0.0231
     34 H4        -30.3793   12.8291  -14.4974 H         1 5IO         0.0258
     35 H5        -29.0885   14.0778  -14.4608 H         1 5IO         0.0258
     36 H6        -29.3281   13.0765  -15.9328 H         1 5IO         0.0258
     37 H7        -28.4624    9.3229  -19.9855 H         1 5IO         0.0778
     38 H8        -29.9149    9.0211  -18.9727 H         1 5IO         0.0778
     39 H9        -29.4108   10.7054  -19.3407 H         1 5IO         0.0778
     40 H10       -27.9898   19.2737  -16.7206 H         1 5IO         0.2585
     41 H11       -28.6551   14.5514  -23.6825 H         1 5IO         0.0644
     42 H12       -26.7676   15.7727  -22.6312 H         1 5IO         0.0555
     43 H13       -30.8733   14.7892  -20.0491 H         1 5IO         0.0653
     44 H14       -23.8566   17.2990  -19.6224 H         1 5IO         0.0289
     45 H15       -23.9950   18.4827  -20.9664 H         1 5IO         0.0289
     46 H16       -31.3247   15.0931  -14.7874 H         1 5IO         0.0479
     47 H17       -31.5644   14.0918  -16.2594 H         1 5IO         0.0479
     48 H18       -24.9694   16.0545  -21.1639 H         1 5IO         0.0618
     49 H19       -25.8246   17.4717  -21.8616 H         1 5IO         0.0618
     50 H20       -28.9045    9.7021  -22.3479 H         1 5IO         0.0830
     51 H21       -30.6156    9.4784  -22.8465 H         1 5IO         0.0830
     52 H22       -32.2435    9.6841  -21.2149 H         1 5IO         0.0830
     53 H23       -31.7144    9.7745  -19.5006 H         1 5IO         0.0830
     54 H24       -29.9987   11.7180  -23.4469 H         1 5IO         0.0531
     55 H25       -29.2448   12.0130  -21.8433 H         1 5IO         0.0531
     56 H26       -30.8930   12.0327  -19.8667 H         1 5IO         0.0531
     57 H27       -32.6433   11.8759  -20.2389 H         1 5IO         0.0531
     58 H28       -30.4011    8.6757  -21.0014 H         1 5IO         0.2032
@<TRIPOS>BOND
     1   11    1 1  
     2   12    2 1  
     3   28    3 1  
     4   27    4 1  
     5   30    5 2  
     6   30    6 2  
     7   24    7 1  
     8    8    9 ar 
     9   21    8 ar 
    10    9   22 ar 
    11   21   10 ar 
    12   10   25 ar 
    13   13   11 1  
    14   23   12 1  
    15   20   13 1  
    16   16   14 1  
    17   14   28 1  
    18   17   15 1  
    19   15   28 1  
    20   29   16 1  
    21   29   17 1  
    22   18   23 ar 
    23   26   18 ar 
    24   26   19 ar 
    25   19   27 ar 
    26   22   20 1  
    27   30   21 1  
    28   25   22 ar 
    29   23   24 ar 
    30   27   24 ar 
    31   25   26 1  
    32   29   30 am 
    33    1   31 1  
    34    1   32 1  
    35    1   33 1  
    36    2   34 1  
    37    2   35 1  
    38    2   36 1  
    39    3   37 1  
    40    3   38 1  
    41    3   39 1  
    42    4   40 1  
    43    8   41 1  
    44    9   42 1  
    45   10   43 1  
    46   11   44 1  
    47   11   45 1  
    48   12   46 1  
    49   12   47 1  
    50   13   48 1  
    51   13   49 1  
    52   14   50 1  
    53   14   51 1  
    54   15   52 1  
    55   15   53 1  
    56   16   54 1  
    57   16   55 1  
    58   17   56 1  
    59   17   57 1  
    60   28   58 1  
@<TRIPOS>SUBSTRUCTURE
     1 5IO         1

