### 
### Created by X-TOOL on Mon Sep 10 21:13:24 2018
### 

@<TRIPOS>MOLECULE
4oex_ligand
   58    60     1     0     0
SMALL
GAST_HUCK


@<TRIPOS>ATOM
      1 CAA        28.9580  -12.5950   19.5450 C.3       1 5EO        -0.0628
      2 CAB        26.3380  -18.4680   15.0600 C.3       1 5EO        -0.0519
      3 CAC        23.4640  -22.0070   19.7440 C.3       1 5EO        -0.0430
      4 OAD        30.8850  -15.3640   16.8220 O.3       1 5EO        -0.3084
      5 OAE        28.0890  -20.7550   24.1910 O.2       1 5EO        -0.1514
      6 OAF        29.1820  -21.6490   22.1830 O.2       1 5EO        -0.1514
      7 CAG        27.6820  -18.1110   22.8420 C.ar      1 5EO        -0.0398
      8 CAH        27.6510  -16.7810   22.3260 C.ar      1 5EO        -0.0251
      9 CAI        28.3090  -18.9490   20.6990 C.ar      1 5EO        -0.0276
     10 CAJ        29.3700  -17.0780   16.1160 C.ar      1 5EO         0.0157
     11 CAK        27.8400  -12.8050   20.5230 C.3       1 5EO        -0.0276
     12 CAL        27.7250  -18.9110   15.3930 C.3       1 5EO        -0.0043
     13 CAM        27.8170  -14.1180   21.2150 C.3       1 5EO         0.0721
     14 CAN        24.1910  -21.7180   22.1010 C.3       1 5EO        -0.0146
     15 CAO        25.5330  -22.9940   20.5340 C.3       1 5EO        -0.0146
     16 CAP        25.3630  -20.8230   22.3260 C.3       1 5EO         0.0697
     17 CAQ        26.7040  -22.1110   20.8360 C.3       1 5EO         0.0697
     18 NAR        28.0720  -18.1660   17.7510 N.ar      1 5EO        -0.2815
     19 NAS        29.5650  -16.4960   18.3810 N.ar      1 5EO        -0.2509
     20 OAT        27.9340  -15.2310   20.3970 O.3       1 5EO        -0.3123
     21 CAU        28.4140  -18.0270   16.4670 C.ar      1 5EO         0.0296
     22 CAV        28.0190  -19.1590   22.0270 C.ar      1 5EO         0.1023
     23 CAW        27.9570  -16.5670   20.9640 C.ar      1 5EO         0.1097
     24 CAX        28.2620  -17.6020   20.1750 C.ar      1 5EO         0.0483
     25 CAY        28.6380  -17.4000   18.6810 C.ar      1 5EO         0.1006
     26 CAZ        29.9500  -16.2980   17.1140 C.ar      1 5EO         0.1663
     27 NBA        24.2660  -22.3750   20.8290 N.4       1 5EO         0.2354
     28 NBB        26.6180  -21.4970   22.1310 N.am      1 5EO        -0.2250
     29 SBC        28.0470  -20.8430   22.6840 S.o2      1 5EO         0.0670
     30 H1         28.8712  -11.5935   19.0984 H         1 5EO         0.0231
     31 H2         28.9000  -13.3560   18.7528 H         1 5EO         0.0231
     32 H3         29.9226  -12.6815   20.0666 H         1 5EO         0.0231
     33 H4         25.9131  -19.1362   14.2964 H         1 5EO         0.0257
     34 H5         26.3648  -17.4388   14.6726 H         1 5EO         0.0257
     35 H6         25.7146  -18.5028   15.9656 H         1 5EO         0.0257
     36 H7         22.5343  -21.5499   20.1137 H         1 5EO         0.0778
     37 H8         23.2221  -22.8991   19.1476 H         1 5EO         0.0778
     38 H9         24.0048  -21.2825   19.1173 H         1 5EO         0.0778
     39 H10        31.0394  -15.3544   15.8847 H         1 5EO         0.2573
     40 H11        27.4380  -18.2926   23.8825 H         1 5EO         0.0641
     41 H12        27.3963  -15.9471   22.9700 H         1 5EO         0.0554
     42 H13        28.5690  -19.7810   20.0546 H         1 5EO         0.0650
     43 H14        29.6594  -16.9476   15.0795 H         1 5EO         0.0611
     44 H15        26.8911  -12.6958   19.9775 H         1 5EO         0.0289
     45 H16        27.9136  -12.0213   21.2913 H         1 5EO         0.0289
     46 H17        28.3306  -18.8800   14.4753 H         1 5EO         0.0472
     47 H18        27.6804  -19.9441   15.7682 H         1 5EO         0.0472
     48 H19        26.8639  -14.1969   21.7585 H         1 5EO         0.0618
     49 H20        28.6508  -14.1367   21.9322 H         1 5EO         0.0618
     50 H21        23.2704  -21.1172   22.1388 H         1 5EO         0.0830
     51 H22        24.1651  -22.4789   22.8949 H         1 5EO         0.0830
     52 H23        25.6224  -23.9113   21.1345 H         1 5EO         0.0830
     53 H24        25.5558  -23.2519   19.4649 H         1 5EO         0.0830
     54 H25        25.3235  -20.4432   23.3576 H         1 5EO         0.0531
     55 H26        25.3028  -19.9798   21.6222 H         1 5EO         0.0531
     56 H27        26.7529  -21.3191   20.0741 H         1 5EO         0.0531
     57 H28        27.6211  -22.7169   20.7945 H         1 5EO         0.0531
     58 H29        23.7533  -23.2049   21.0827 H         1 5EO         0.2032
@<TRIPOS>BOND
     1   11    1 1  
     2   12    2 1  
     3   27    3 1  
     4   26    4 1  
     5   29    5 2  
     6   29    6 2  
     7    7    8 ar 
     8   22    7 ar 
     9    8   23 ar 
    10   22    9 ar 
    11    9   24 ar 
    12   21   10 ar 
    13   26   10 ar 
    14   13   11 1  
    15   21   12 1  
    16   20   13 1  
    17   16   14 1  
    18   14   27 1  
    19   17   15 1  
    20   15   27 1  
    21   28   16 1  
    22   28   17 1  
    23   18   21 ar 
    24   25   18 ar 
    25   25   19 ar 
    26   19   26 ar 
    27   23   20 1  
    28   29   22 1  
    29   24   23 ar 
    30   24   25 1  
    31   28   29 am 
    32    1   30 1  
    33    1   31 1  
    34    1   32 1  
    35    2   33 1  
    36    2   34 1  
    37    2   35 1  
    38    3   36 1  
    39    3   37 1  
    40    3   38 1  
    41    4   39 1  
    42    7   40 1  
    43    8   41 1  
    44    9   42 1  
    45   10   43 1  
    46   11   44 1  
    47   11   45 1  
    48   12   46 1  
    49   12   47 1  
    50   13   48 1  
    51   13   49 1  
    52   14   50 1  
    53   14   51 1  
    54   15   52 1  
    55   15   53 1  
    56   16   54 1  
    57   16   55 1  
    58   17   56 1  
    59   17   57 1  
    60   27   58 1  
@<TRIPOS>SUBSTRUCTURE
     1 5EO         1

