### 
### Created by X-TOOL on Mon Sep 10 21:13:18 2018
### 

@<TRIPOS>MOLECULE
4ofl_ligand
   20    20     1     0     0
SMALL
GAST_HUCK


@<TRIPOS>ATOM
      1 N          17.1100   23.2300   39.9290 N.4       1 HIS         0.2337
      2 CA         17.7010   24.5660   39.9280 C.3       1 HIS         0.0342
      3 C          16.8570   25.5500   39.1250 C.2       1 HIS         0.0860
      4 O          17.0130   26.7660   39.2400 O.co2     1 HIS        -0.5642
      5 CB         19.1270   24.5230   39.3710 C.3       1 HIS         0.0292
      6 CG         19.2420   23.8470   38.0400 C.2       1 HIS        -0.0001
      7 ND1        18.2250   23.0910   37.4930 N.2       1 HIS        -0.3251
      8 CD2        20.2570   23.8100   37.1440 C.2       1 HIS         0.0292
      9 CE1        18.6080   22.6210   36.3220 C.2       1 HIS         0.0907
     10 NE2        19.8410   23.0440   36.0850 N.pl3     1 HIS        -0.2752
     11 OXT        15.9890   25.1470   38.3510 O.co2     1 HIS        -0.5642
     12 H          17.6909   22.6061   40.4669 H         1 HIS         0.2011
     13 H          17.0413   22.8922   38.9818 H         1 HIS         0.2011
     14 H          16.1901   23.2698   40.3391 H         1 HIS         0.2011
     15 H          17.7454   24.9206   40.9683 H         1 HIS         0.1042
     16 H          19.7624   23.9834   40.0887 H         1 HIS         0.0446
     17 H          19.4885   25.5566   39.2661 H         1 HIS         0.0446
     18 H          21.2250   24.2984   37.2457 H         1 HIS         0.0729
     19 H          18.0122   21.9922   35.6620 H         1 HIS         0.1199
     20 H          20.3961   22.8323   35.2436 H         1 HIS         0.2361
@<TRIPOS>BOND
     1    1    2 1  
     2    2    3 1  
     3    2    5 1  
     4    3    4 ar 
     5    3   11 ar 
     6    5    6 1  
     7    6    7 1  
     8    6    8 2  
     9    7    9 2  
    10    8   10 1  
    11    9   10 1  
    12    1   12 1  
    13    1   13 1  
    14    1   14 1  
    15    2   15 1  
    16    5   16 1  
    17    5   17 1  
    18    8   18 1  
    19    9   19 1  
    20   10   20 1  
@<TRIPOS>SUBSTRUCTURE
     1 HIS         1

