### 
### Created by X-TOOL on Mon Sep 10 21:13:16 2018
### 

@<TRIPOS>MOLECULE
4og3_ligand
   66    69     1     0     0
SMALL
GAST_HUCK


@<TRIPOS>ATOM
      1 CAK       -10.7090   19.2530  -13.3780 C.ar      1 2S6        -0.0208
      2 CAI       -10.1450   20.4160  -13.8740 C.ar      1 2S6        -0.0352
      3 CAY        -8.7740   20.5460  -13.9560 C.ar      1 2S6         0.0840
      4 CAC        -8.2000   21.7370  -14.4730 C.1       1 2S6         0.0889
      5 NAA        -7.7710   22.7050  -14.9050 N.1       1 2S6        -0.3372
      6 CAJ        -7.9820   19.4870  -13.5260 C.ar      1 2S6        -0.0352
      7 CAL        -8.5360   18.2940  -13.0460 C.ar      1 2S6        -0.0208
      8 CAZ        -9.9140   18.1720  -12.9880 C.ar      1 2S6         0.1020
      9 OAX       -10.5430   17.0400  -12.5460 O.3       1 2S6        -0.3109
     10 CAP        -9.7970   15.8740  -12.1640 C.3       1 2S6         0.0777
     11 CAO       -10.7450   15.0020  -11.2900 C.3       1 2S6         0.0157
     12 CAU       -11.6080   14.2870  -12.2920 C.3       1 2S6        -0.0294
     13 NBD       -12.7540   13.5400  -11.6530 N.4       1 2S6         0.2353
     14 CAW       -13.4540   12.7050  -12.6230 C.3       1 2S6        -0.0323
     15 CAT       -14.6310   11.9580  -12.0290 C.3       1 2S6        -0.0143
     16 CAV       -12.1400   12.4960  -10.7160 C.3       1 2S6        -0.0323
     17 CAS       -13.2290   11.7220   -9.8950 C.3       1 2S6        -0.0143
     18 CBC       -14.1190   10.9850  -10.9790 C.3       1 2S6        -0.0257
     19 CBE       -15.2420   10.0570  -10.4050 C.3       1 2S6         0.0624
     20 CBB       -14.6060    9.0850   -9.3780 C.3       1 2S6        -0.0353
     21 CAQ       -13.5070    8.1070   -9.8940 C.3       1 2S6        -0.0550
     22 CAM       -13.2870    7.2890   -8.5970 C.3       1 2S6        -0.0534
     23 CAN       -14.6980    7.2320   -7.8840 C.3       1 2S6        -0.0534
     24 CAR       -15.6390    8.0850   -8.6670 C.3       1 2S6        -0.0550
     25 OAB       -16.1590   10.8960   -9.7320 O.3       1 2S6        -0.4226
     26 CBA       -15.9230    9.3060  -11.4220 C.ar      1 2S6        -0.0214
     27 CAG       -17.3090    9.1660  -11.4000 C.ar      1 2S6        -0.0371
     28 CAE       -17.9810    8.4190  -12.3700 C.ar      1 2S6        -0.0323
     29 CAD       -17.2430    7.8440  -13.4170 C.ar      1 2S6        -0.0340
     30 CAF       -15.8770    7.9640  -13.4680 C.ar      1 2S6        -0.0323
     31 CAH       -15.2380    8.7220  -12.5040 C.ar      1 2S6        -0.0371
     32 H         -11.7870   19.1796  -13.2906 H         1 2S6         0.0571
     33 H         -10.7840   21.2288  -14.1997 H         1 2S6         0.0692
     34 H          -6.9034   19.5881  -13.5635 H         1 2S6         0.0692
     35 H          -7.8967   17.4795  -12.7251 H         1 2S6         0.0571
     36 H          -8.9087   16.1655  -11.5845 H         1 2S6         0.0620
     37 H          -9.4843   15.3145  -13.0579 H         1 2S6         0.0620
     38 H         -11.3559   15.6324  -10.6271 H         1 2S6         0.0343
     39 H         -10.1703   14.2843  -10.6863 H         1 2S6         0.0343
     40 H         -10.9841   13.5679  -12.8430 H         1 2S6         0.0815
     41 H         -12.0195   15.0280  -12.9931 H         1 2S6         0.0815
     42 H         -13.3792   14.1733  -11.1796 H         1 2S6         0.2033
     43 H         -12.7431   11.9706  -13.0295 H         1 2S6         0.0814
     44 H         -13.8224   13.3477  -13.4361 H         1 2S6         0.0814
     45 H         -15.1544   11.4035  -12.8219 H         1 2S6         0.0313
     46 H         -15.3245   12.6731  -11.5625 H         1 2S6         0.0313
     47 H         -11.4628   13.0048  -10.0142 H         1 2S6         0.0814
     48 H         -11.5694   11.7728  -11.3171 H         1 2S6         0.0814
     49 H         -13.8392   12.4229   -9.3065 H         1 2S6         0.0313
     50 H         -12.7575   10.9913   -9.2213 H         1 2S6         0.0313
     51 H         -13.4322   10.3077  -11.5078 H         1 2S6         0.0237
     52 H         -14.1539    9.7261   -8.6069 H         1 2S6         0.0233
     53 H         -12.5958    8.6377  -10.2070 H         1 2S6         0.0261
     54 H         -13.8684    7.4792  -10.7218 H         1 2S6         0.0261
     55 H         -12.5499    7.7867   -7.9498 H         1 2S6         0.0265
     56 H         -12.9375    6.2742   -8.8379 H         1 2S6         0.0265
     57 H         -14.6136    7.6142   -6.8560 H         1 2S6         0.0265
     58 H         -15.0640    6.1950   -7.8608 H         1 2S6         0.0265
     59 H         -16.2049    7.4951   -9.4030 H         1 2S6         0.0261
     60 H         -16.3396    8.6234   -8.0119 H         1 2S6         0.0261
     61 H         -16.5538   11.4954  -10.3544 H         1 2S6         0.1962
     62 H         -17.8781    9.6473  -10.6129 H         1 2S6         0.0851
     63 H         -19.0553    8.2852  -12.3154 H         1 2S6         0.0698
     64 H         -17.7602    7.2969  -14.1969 H         1 2S6         0.0856
     65 H         -15.3089    7.4733  -14.2501 H         1 2S6         0.0698
     66 H         -14.1675    8.8723  -12.5848 H         1 2S6         0.0851
@<TRIPOS>BOND
     1    1    2 ar 
     2    1    8 ar 
     3    2    3 ar 
     4    3    4 1  
     5    3    6 ar 
     6    4    5 3  
     7    6    7 ar 
     8    7    8 ar 
     9    8    9 1  
    10    9   10 1  
    11   10   11 1  
    12   11   12 1  
    13   12   13 1  
    14   13   14 1  
    15   13   16 1  
    16   14   15 1  
    17   15   18 1  
    18   16   17 1  
    19   17   18 1  
    20   18   19 1  
    21   19   20 1  
    22   19   25 1  
    23   19   26 1  
    24   20   21 1  
    25   20   24 1  
    26   21   22 1  
    27   22   23 1  
    28   23   24 1  
    29   26   27 ar 
    30   26   31 ar 
    31   27   28 ar 
    32   28   29 ar 
    33   29   30 ar 
    34   30   31 ar 
    35    1   32 1  
    36    2   33 1  
    37    6   34 1  
    38    7   35 1  
    39   10   36 1  
    40   10   37 1  
    41   11   38 1  
    42   11   39 1  
    43   12   40 1  
    44   12   41 1  
    45   13   42 1  
    46   14   43 1  
    47   14   44 1  
    48   15   45 1  
    49   15   46 1  
    50   16   47 1  
    51   16   48 1  
    52   17   49 1  
    53   17   50 1  
    54   18   51 1  
    55   20   52 1  
    56   21   53 1  
    57   21   54 1  
    58   22   55 1  
    59   22   56 1  
    60   23   57 1  
    61   23   58 1  
    62   24   59 1  
    63   24   60 1  
    64   25   61 1  
    65   27   62 1  
    66   28   63 1  
    67   29   64 1  
    68   30   65 1  
    69   31   66 1  
@<TRIPOS>SUBSTRUCTURE
     1 2S6         1

