### 
### Created by X-TOOL on Mon Sep 10 21:13:17 2018
### 

@<TRIPOS>MOLECULE
4og4_ligand
   66    69     1     0     0
SMALL
GAST_HUCK


@<TRIPOS>ATOM
      1 CAK        10.7800   19.2970   13.2690 C.ar      1 2VK        -0.0208
      2 CAI        10.1910   20.4340   13.7900 C.ar      1 2VK        -0.0352
      3 CAY         8.8250   20.4460   14.0140 C.ar      1 2VK         0.0840
      4 CAC         8.2630   21.5820   14.5300 C.1       1 2VK         0.0889
      5 NAA         7.8580   22.4490   14.9200 N.1       1 2VK        -0.3372
      6 CAJ         8.0410   19.3340   13.7230 C.ar      1 2VK        -0.0352
      7 CAL         8.6320   18.1900   13.2000 C.ar      1 2VK        -0.0208
      8 CAZ        10.0030   18.1850   12.9780 C.ar      1 2VK         0.1020
      9 OAX        10.6430   17.1090   12.4710 O.3       1 2VK        -0.3109
     10 CAP         9.9070   15.9210   12.2250 C.3       1 2VK         0.0777
     11 CAO        10.8330   15.0130   11.4090 C.3       1 2VK         0.0157
     12 CAU        11.7990   14.2570   12.3340 C.3       1 2VK        -0.0294
     13 NBD        12.8270   13.5110   11.5810 N.4       1 2VK         0.2353
     14 CAW        13.8550   13.0410   12.5280 C.3       1 2VK        -0.0323
     15 CAT        14.9160   12.1630   11.8590 C.3       1 2VK        -0.0143
     16 CAV        12.2070   12.3480   10.9180 C.3       1 2VK        -0.0323
     17 CAS        13.2340   11.4500   10.2150 C.3       1 2VK        -0.0143
     18 CBC        14.2520   10.9440   11.2320 C.3       1 2VK        -0.0257
     19 CBE        15.3080    9.9870   10.6230 C.3       1 2VK         0.0624
     20 CBB        16.2590    9.4810   11.7210 C.3       1 2VK        -0.0353
     21 CAQ        17.3930    8.6100   11.1580 C.3       1 2VK        -0.0550
     22 CAM        17.8540    7.7450   12.3470 C.3       1 2VK        -0.0534
     23 CAN        16.8770    8.0590   13.4320 C.3       1 2VK        -0.0534
     24 CAR        15.6310    8.5370   12.7110 C.3       1 2VK        -0.0550
     25 OAB        16.0830   10.7150    9.7440 O.3       1 2VK        -0.4226
     26 CBA        14.6870    8.8820    9.9280 C.ar      1 2VK        -0.0214
     27 CAG        13.5540    8.2850   10.4620 C.ar      1 2VK        -0.0371
     28 CAE        12.9670    7.2110    9.8050 C.ar      1 2VK        -0.0323
     29 CAD        13.4910    6.7120    8.6220 C.ar      1 2VK        -0.0340
     30 CAF        14.6300    7.2950    8.0890 C.ar      1 2VK        -0.0323
     31 CAH        15.2250    8.3750    8.7450 C.ar      1 2VK        -0.0371
     32 H          11.8485   19.2743   13.0879 H         1 2VK         0.0571
     33 H          10.7920   21.3062   14.0205 H         1 2VK         0.0692
     34 H           6.9725   19.3599   13.9037 H         1 2VK         0.0692
     35 H           8.0331   17.3164   12.9693 H         1 2VK         0.0571
     36 H           8.9942   16.1479   11.6546 H         1 2VK         0.0620
     37 H           9.6353   15.4360   13.1742 H         1 2VK         0.0620
     38 H          11.4130   15.6271   10.7044 H         1 2VK         0.0343
     39 H          10.2258   14.2868   10.8487 H         1 2VK         0.0343
     40 H          11.2217   13.5463   12.9437 H         1 2VK         0.0815
     41 H          12.2995   14.9826   12.9920 H         1 2VK         0.0815
     42 H          13.2473   14.1118   10.8893 H         1 2VK         0.2033
     43 H          13.3634   12.4573   13.3202 H         1 2VK         0.0814
     44 H          14.3514   13.9165   12.9720 H         1 2VK         0.0814
     45 H          15.6469   11.8343   12.6125 H         1 2VK         0.0313
     46 H          15.4301   12.7418   11.0776 H         1 2VK         0.0313
     47 H          11.4872   12.7117   10.1700 H         1 2VK         0.0814
     48 H          11.6783   11.7513   11.6759 H         1 2VK         0.0814
     49 H          13.7518   12.0272    9.4348 H         1 2VK         0.0313
     50 H          12.7182   10.5936    9.7561 H         1 2VK         0.0313
     51 H          13.7132   10.3909   12.0154 H         1 2VK         0.0237
     52 H          16.6688   10.3579   12.2436 H         1 2VK         0.0233
     53 H          18.2189    9.2380   10.7928 H         1 2VK         0.0261
     54 H          17.0240    7.9762   10.3381 H         1 2VK         0.0261
     55 H          18.8756    8.0150   12.6524 H         1 2VK         0.0265
     56 H          17.8189    6.6764   12.0883 H         1 2VK         0.0265
     57 H          17.2699    8.8483   14.0898 H         1 2VK         0.0265
     58 H          16.6584    7.1604   14.0276 H         1 2VK         0.0265
     59 H          15.1041    7.7105   12.2117 H         1 2VK         0.0261
     60 H          14.9386    9.0563   13.3899 H         1 2VK         0.0261
     61 H          16.4875   11.4400   10.2058 H         1 2VK         0.1962
     62 H          13.1287    8.6551   11.3879 H         1 2VK         0.0851
     63 H          12.0796    6.7528   10.2264 H         1 2VK         0.0698
     64 H          13.0159    5.8766    8.1205 H         1 2VK         0.0856
     65 H          15.0567    6.9147    7.1679 H         1 2VK         0.0698
     66 H          16.1184    8.8261    8.3285 H         1 2VK         0.0851
@<TRIPOS>BOND
     1    1    2 ar 
     2    1    8 ar 
     3    2    3 ar 
     4    3    4 1  
     5    3    6 ar 
     6    4    5 3  
     7    6    7 ar 
     8    7    8 ar 
     9    8    9 1  
    10    9   10 1  
    11   10   11 1  
    12   11   12 1  
    13   12   13 1  
    14   13   14 1  
    15   13   16 1  
    16   14   15 1  
    17   15   18 1  
    18   16   17 1  
    19   17   18 1  
    20   18   19 1  
    21   19   20 1  
    22   19   25 1  
    23   19   26 1  
    24   20   21 1  
    25   20   24 1  
    26   21   22 1  
    27   22   23 1  
    28   23   24 1  
    29   26   27 ar 
    30   26   31 ar 
    31   27   28 ar 
    32   28   29 ar 
    33   29   30 ar 
    34   30   31 ar 
    35    1   32 1  
    36    2   33 1  
    37    6   34 1  
    38    7   35 1  
    39   10   36 1  
    40   10   37 1  
    41   11   38 1  
    42   11   39 1  
    43   12   40 1  
    44   12   41 1  
    45   13   42 1  
    46   14   43 1  
    47   14   44 1  
    48   15   45 1  
    49   15   46 1  
    50   16   47 1  
    51   16   48 1  
    52   17   49 1  
    53   17   50 1  
    54   18   51 1  
    55   20   52 1  
    56   21   53 1  
    57   21   54 1  
    58   22   55 1  
    59   22   56 1  
    60   23   57 1  
    61   23   58 1  
    62   24   59 1  
    63   24   60 1  
    64   25   61 1  
    65   27   62 1  
    66   28   63 1  
    67   29   64 1  
    68   30   65 1  
    69   31   66 1  
@<TRIPOS>SUBSTRUCTURE
     1 2VK         1

