### 
### Created by X-TOOL on Mon Sep 10 21:13:17 2018
### 

@<TRIPOS>MOLECULE
4og5_ligand
   65    68     1     0     0
SMALL
GAST_HUCK


@<TRIPOS>ATOM
      1 CAJ        -8.4660   17.9330  -13.0370 C.ar      1 2S7        -0.0208
      2 CAH        -7.9190   19.1380  -13.5100 C.ar      1 2S7        -0.0352
      3 CAY        -8.7140   20.2070  -13.8530 C.ar      1 2S7         0.0840
      4 CAC        -8.1560   21.4560  -14.4110 C.1       1 2S7         0.0889
      5 NAA        -7.7710   22.3920  -14.8260 N.1       1 2S7        -0.3372
      6 CAI       -10.0720   20.1630  -13.6780 C.ar      1 2S7        -0.0352
      7 CAK       -10.6410   18.9770  -13.1990 C.ar      1 2S7        -0.0208
      8 CAZ        -9.8180   17.8820  -12.8700 C.ar      1 2S7         0.1020
      9 OAX       -10.4270   16.7360  -12.4060 O.3       1 2S7        -0.3109
     10 CAO        -9.5650   15.6350  -12.1140 C.3       1 2S7         0.0777
     11 CAN       -10.4950   14.6220  -11.4020 C.3       1 2S7         0.0157
     12 CAT       -11.3820   13.9910  -12.4460 C.3       1 2S7        -0.0294
     13 NBD       -12.3810   13.0740  -11.7640 N.4       1 2S7         0.2353
     14 CAV       -11.8090   11.7990  -11.1930 C.3       1 2S7        -0.0322
     15 CAS       -12.8260   11.0710  -10.3430 C.3       1 2S7        -0.0134
     16 CAU       -13.3770   12.6810  -12.7450 C.3       1 2S7        -0.0322
     17 CAR       -14.4750   11.7260  -12.1680 C.3       1 2S7        -0.0134
     18 CBC       -13.8860   10.5390  -11.3710 C.3       1 2S7        -0.0212
     19 CBE       -15.0320    9.6900  -10.6990 C.3       1 2S7         0.0805
     20 CBB       -16.0900    9.2170  -11.7570 C.3       1 2S7        -0.0308
     21 CAP       -15.6170    8.3450  -12.9160 C.3       1 2S7        -0.0541
     22 CAL       -16.8900    7.9840  -13.5880 C.3       1 2S7        -0.0534
     23 CAM       -17.8730    7.7460  -12.4010 C.3       1 2S7        -0.0534
     24 CAQ       -17.2140    8.3040  -11.1840 C.3       1 2S7        -0.0541
     25 OAB       -15.7240   10.5380   -9.7920 O.3       1 2S7        -0.4167
     26 CBA       -14.4760    8.5680   -9.9530 C.ar      1 2S7         0.0534
     27 NAW       -13.4700    7.8680  -10.5270 N.ar      1 2S7        -0.2690
     28 CAF       -12.9320    6.7620   -9.8850 C.ar      1 2S7         0.0417
     29 CAD       -13.3670    6.3940   -8.6250 C.ar      1 2S7        -0.0062
     30 CAE       -14.4010    7.1100   -8.0150 C.ar      1 2S7        -0.0136
     31 CAG       -14.9280    8.2240   -8.6750 C.ar      1 2S7        -0.0102
     32 H          -7.8379   17.0782  -12.8138 H         1 2S7         0.0571
     33 H          -6.8431   19.2274  -13.6071 H         1 2S7         0.0692
     34 H         -10.6900   21.0243  -13.9046 H         1 2S7         0.0692
     35 H         -11.7159   18.9011  -13.0811 H         1 2S7         0.0571
     36 H          -8.7426   15.9450  -11.4525 H         1 2S7         0.0620
     37 H          -9.1505   15.2052  -13.0378 H         1 2S7         0.0620
     38 H         -11.1109   15.1425  -10.6539 H         1 2S7         0.0343
     39 H          -9.8926   13.8468  -10.9059 H         1 2S7         0.0343
     40 H         -10.7672   13.4083  -13.1477 H         1 2S7         0.0815
     41 H         -11.9201   14.7773  -12.9957 H         1 2S7         0.0815
     42 H         -12.8198   13.5887  -11.0166 H         1 2S7         0.2033
     43 H         -10.9345   12.0452  -10.5728 H         1 2S7         0.0814
     44 H         -11.4990   11.1436  -12.0203 H         1 2S7         0.0814
     45 H         -13.2937   11.7577   -9.6221 H         1 2S7         0.0314
     46 H         -12.3554   10.2366   -9.8024 H         1 2S7         0.0314
     47 H         -12.8671   12.1662  -13.5726 H         1 2S7         0.0814
     48 H         -13.8690   13.5884  -13.1252 H         1 2S7         0.0814
     49 H         -15.0671   11.3268  -13.0047 H         1 2S7         0.0314
     50 H         -15.1286   12.3065  -11.5003 H         1 2S7         0.0314
     51 H         -13.3615    9.8798  -12.0784 H         1 2S7         0.0249
     52 H         -16.5366   10.1349  -12.1668 H         1 2S7         0.0245
     53 H         -15.0924    7.4496  -12.5513 H         1 2S7         0.0262
     54 H         -14.9562    8.9071  -13.5923 H         1 2S7         0.0262
     55 H         -16.7718    7.0709  -14.1898 H         1 2S7         0.0265
     56 H         -17.2415    8.8042  -14.2312 H         1 2S7         0.0265
     57 H         -18.0591    6.6695  -12.2721 H         1 2S7         0.0265
     58 H         -18.8258    8.2631  -12.5876 H         1 2S7         0.0265
     59 H         -17.9275    8.8893  -10.5854 H         1 2S7         0.0262
     60 H         -16.7888    7.5002  -10.5651 H         1 2S7         0.0262
     61 H         -16.0868   11.2774  -10.2655 H         1 2S7         0.1979
     62 H         -12.1615    6.1794  -10.3769 H         1 2S7         0.0932
     63 H         -12.9089    5.5553   -8.1134 H         1 2S7         0.0937
     64 H         -14.7870    6.8071   -7.0484 H         1 2S7         0.0811
     65 H         -15.6913    8.8245   -8.1935 H         1 2S7         0.0953
@<TRIPOS>BOND
     1    1    2 ar 
     2    1    8 ar 
     3    2    3 ar 
     4    3    4 1  
     5    3    6 ar 
     6    4    5 3  
     7    6    7 ar 
     8    7    8 ar 
     9    8    9 1  
    10    9   10 1  
    11   10   11 1  
    12   11   12 1  
    13   12   13 1  
    14   13   14 1  
    15   13   16 1  
    16   14   15 1  
    17   15   18 1  
    18   16   17 1  
    19   17   18 1  
    20   18   19 1  
    21   19   20 1  
    22   19   25 1  
    23   19   26 1  
    24   20   21 1  
    25   20   24 1  
    26   21   22 1  
    27   22   23 1  
    28   23   24 1  
    29   26   27 ar 
    30   26   31 ar 
    31   27   28 ar 
    32   28   29 ar 
    33   29   30 ar 
    34   30   31 ar 
    35    1   32 1  
    36    2   33 1  
    37    6   34 1  
    38    7   35 1  
    39   10   36 1  
    40   10   37 1  
    41   11   38 1  
    42   11   39 1  
    43   12   40 1  
    44   12   41 1  
    45   13   42 1  
    46   14   43 1  
    47   14   44 1  
    48   15   45 1  
    49   15   46 1  
    50   16   47 1  
    51   16   48 1  
    52   17   49 1  
    53   17   50 1  
    54   18   51 1  
    55   20   52 1  
    56   21   53 1  
    57   21   54 1  
    58   22   55 1  
    59   22   56 1  
    60   23   57 1  
    61   23   58 1  
    62   24   59 1  
    63   24   60 1  
    64   25   61 1  
    65   28   62 1  
    66   29   63 1  
    67   30   64 1  
    68   31   65 1  
@<TRIPOS>SUBSTRUCTURE
     1 2S7         1

