### 
### Created by X-TOOL on Mon Sep 10 21:13:17 2018
### 

@<TRIPOS>MOLECULE
4og6_ligand
   66    69     1     0     0
SMALL
GAST_HUCK


@<TRIPOS>ATOM
      1 CAL       -17.1830    8.9290  -11.2810 C.ar      1 2S9        -0.0037
      2 CAY       -17.8400    8.1740  -12.2630 C.ar      1 2S9         0.1608
      3 FAC       -19.2020    7.9050  -12.2150 F         1 2S9        -0.1755
      4 CAF       -17.1360    7.6610  -13.3370 C.ar      1 2S9         0.0004
      5 CAE       -15.7800    7.9020  -13.4280 C.ar      1 2S9        -0.0335
      6 CAI       -15.1160    8.6550  -12.4510 C.ar      1 2S9        -0.0407
      7 CBB       -15.8070    9.1820  -11.3590 C.ar      1 2S9        -0.0235
      8 CBF       -15.1520    9.9490  -10.3550 C.3       1 2S9         0.0613
      9 CBC       -14.4510    9.0200   -9.2960 C.3       1 2S9        -0.0355
     10 CAQ       -13.4000    7.9810   -9.7610 C.3       1 2S9        -0.0551
     11 CAM       -13.2310    6.9850   -8.5620 C.3       1 2S9        -0.0534
     12 CAN       -14.4930    7.1380   -7.7650 C.3       1 2S9        -0.0534
     13 CAR       -15.4150    8.0860   -8.5660 C.3       1 2S9        -0.0551
     14 OAB       -16.1300   10.7430   -9.6850 O.3       1 2S9        -0.4228
     15 CBD       -14.0800   10.9160  -10.9530 C.3       1 2S9        -0.0259
     16 CAT       -14.7170   12.0530  -11.7510 C.3       1 2S9        -0.0143
     17 CAW       -13.6260   12.9070  -12.4170 C.3       1 2S9        -0.0323
     18 CAS       -13.1600   11.5650   -9.9180 C.3       1 2S9        -0.0143
     19 CAV       -12.1010   12.4340  -10.6240 C.3       1 2S9        -0.0323
     20 NBE       -12.6880   13.5110  -11.4490 N.4       1 2S9         0.2353
     21 CAU       -11.6230   14.2160  -12.1900 C.3       1 2S9        -0.0294
     22 CAO       -10.5330   14.7730  -11.2620 C.3       1 2S9         0.0157
     23 CAP        -9.6950   15.8330  -11.9980 C.3       1 2S9         0.0777
     24 OAX       -10.5610   16.8770  -12.4530 O.3       1 2S9        -0.3109
     25 CBA        -9.9400   17.9950  -12.9140 C.ar      1 2S9         0.1020
     26 CAJ       -10.7230   19.0780  -13.2950 C.ar      1 2S9        -0.0208
     27 CAG       -10.1300   20.2390  -13.7720 C.ar      1 2S9        -0.0352
     28 CAZ        -8.7480   20.3190  -13.8710 C.ar      1 2S9         0.0840
     29 CAD        -8.1490   21.5230  -14.3650 C.1       1 2S9         0.0889
     30 NAA        -7.6840   22.4880  -14.7610 N.1       1 2S9        -0.3372
     31 CAH        -7.9600   19.2360  -13.4910 C.ar      1 2S9        -0.0352
     32 CAK        -8.5550   18.0710  -13.0120 C.ar      1 2S9        -0.0208
     33 H         -17.7501    9.3243  -10.4460 H         1 2S9         0.0831
     34 H         -17.6423    7.0774  -14.0973 H         1 2S9         0.0847
     35 H         -15.2212    7.5032  -14.2669 H         1 2S9         0.0689
     36 H         -14.0504    8.8308  -12.5445 H         1 2S9         0.0821
     37 H         -13.9732    9.6983   -8.5738 H         1 2S9         0.0233
     38 H         -12.4440    8.4764   -9.9860 H         1 2S9         0.0261
     39 H         -13.7563    7.4484  -10.6550 H         1 2S9         0.0261
     40 H         -12.3533    7.2524   -7.9553 H         1 2S9         0.0265
     41 H         -13.1242    5.9526   -8.9263 H         1 2S9         0.0265
     42 H         -14.2683    7.5718   -6.7795 H         1 2S9         0.0265
     43 H         -14.9785    6.1598   -7.6330 H         1 2S9         0.0265
     44 H         -16.0277    7.5200   -9.2831 H         1 2S9         0.0261
     45 H         -16.0717    8.6538   -7.8905 H         1 2S9         0.0261
     46 H         -16.5614   11.3094  -10.3139 H         1 2S9         0.1961
     47 H         -13.4554   10.3196  -11.6343 H         1 2S9         0.0237
     48 H         -15.3106   12.6847  -11.0738 H         1 2S9         0.0313
     49 H         -15.3723   11.6303  -12.5268 H         1 2S9         0.0313
     50 H         -14.1118   13.7149  -12.9838 H         1 2S9         0.0814
     51 H         -13.0540   12.2683  -13.1061 H         1 2S9         0.0814
     52 H         -12.6567   10.7797   -9.3349 H         1 2S9         0.0313
     53 H         -13.7581   12.1958   -9.2439 H         1 2S9         0.0313
     54 H         -11.4944   11.7866  -11.2743 H         1 2S9         0.0814
     55 H         -11.4571   12.8915   -9.8584 H         1 2S9         0.0814
     56 H         -13.1781   14.1635  -10.8573 H         1 2S9         0.2033
     57 H         -12.0734   15.0511  -12.7465 H         1 2S9         0.0815
     58 H         -11.1592   13.5121  -12.8967 H         1 2S9         0.0815
     59 H          -9.8765   13.9515  -10.9394 H         1 2S9         0.0343
     60 H         -11.0060   15.2319  -10.3813 H         1 2S9         0.0343
     61 H          -9.1898   15.3712  -12.8591 H         1 2S9         0.0620
     62 H          -8.9430   16.2502  -11.3122 H         1 2S9         0.0620
     63 H         -11.8026   19.0159  -13.2193 H         1 2S9         0.0571
     64 H         -10.7452   21.0815  -14.0666 H         1 2S9         0.0692
     65 H          -6.8806   19.2994  -13.5681 H         1 2S9         0.0692
     66 H          -7.9412   17.2276  -12.7170 H         1 2S9         0.0571
@<TRIPOS>BOND
     1    1    2 ar 
     2    1    7 ar 
     3    2    3 1  
     4    2    4 ar 
     5    4    5 ar 
     6    5    6 ar 
     7    6    7 ar 
     8    7    8 1  
     9    8    9 1  
    10    8   14 1  
    11    8   15 1  
    12    9   10 1  
    13    9   13 1  
    14   10   11 1  
    15   11   12 1  
    16   12   13 1  
    17   15   16 1  
    18   15   18 1  
    19   16   17 1  
    20   17   20 1  
    21   18   19 1  
    22   19   20 1  
    23   20   21 1  
    24   21   22 1  
    25   22   23 1  
    26   23   24 1  
    27   24   25 1  
    28   25   26 ar 
    29   25   32 ar 
    30   26   27 ar 
    31   27   28 ar 
    32   28   29 1  
    33   28   31 ar 
    34   29   30 3  
    35   31   32 ar 
    36    1   33 1  
    37    4   34 1  
    38    5   35 1  
    39    6   36 1  
    40    9   37 1  
    41   10   38 1  
    42   10   39 1  
    43   11   40 1  
    44   11   41 1  
    45   12   42 1  
    46   12   43 1  
    47   13   44 1  
    48   13   45 1  
    49   14   46 1  
    50   15   47 1  
    51   16   48 1  
    52   16   49 1  
    53   17   50 1  
    54   17   51 1  
    55   18   52 1  
    56   18   53 1  
    57   19   54 1  
    58   19   55 1  
    59   20   56 1  
    60   21   57 1  
    61   21   58 1  
    62   22   59 1  
    63   22   60 1  
    64   23   61 1  
    65   23   62 1  
    66   26   63 1  
    67   27   64 1  
    68   31   65 1  
    69   32   66 1  
@<TRIPOS>SUBSTRUCTURE
     1 2S9         1

