### 
### Created by X-TOOL on Mon Sep 10 21:13:17 2018
### 

@<TRIPOS>MOLECULE
4og7_ligand
   69    72     1     0     0
SMALL
GAST_HUCK


@<TRIPOS>ATOM
      1 CAI       -10.5320   19.1560  -13.1580 C.ar      1 2SE        -0.0313
      2 CAK       -10.0510   20.3970  -13.5670 C.ar      1 2SE        -0.0441
      3 CBA        -8.6830   20.5970  -13.6800 C.ar      1 2SE         0.0967
      4 SBG        -8.1540   22.2090  -14.2480 S.o2      1 2SE         0.0609
      5 OAB        -8.2720   22.1950  -15.7240 O.2       1 2SE        -0.1519
      6 OAC        -6.7790   22.3800  -13.6800 O.2       1 2SE        -0.1519
      7 NAA        -9.1440   23.2950  -13.6840 N.am      1 2SE        -0.2621
      8 CAL        -7.7840   19.5760  -13.3710 C.ar      1 2SE        -0.0441
      9 CAJ        -8.2740   18.3390  -12.9890 C.ar      1 2SE        -0.0313
     10 CAZ        -9.6670   18.1310  -12.8580 C.ar      1 2SE         0.0912
     11 OAY       -10.2170   16.9590  -12.4950 O.3       1 2SE        -0.3178
     12 CAP        -9.3850   15.8420  -12.0990 C.3       1 2SE         0.0752
     13 CAO       -10.3580   14.9320  -11.3600 C.3       1 2SE         0.0153
     14 CAU       -11.1420   14.1630  -12.3970 C.3       1 2SE        -0.0294
     15 NBE       -12.0540   13.1460  -11.7450 N.4       1 2SE         0.2353
     16 CAW       -11.4890   11.9550  -11.0140 C.3       1 2SE        -0.0322
     17 CAT       -12.5720   11.2430  -10.1720 C.3       1 2SE        -0.0134
     18 CAV       -13.0120   12.7470  -12.7520 C.3       1 2SE        -0.0322
     19 CAS       -14.1830   11.9850  -12.1060 C.3       1 2SE        -0.0134
     20 CBD       -13.6240   10.7700  -11.2940 C.3       1 2SE        -0.0212
     21 CBF       -14.7560    9.8860  -10.6580 C.3       1 2SE         0.0805
     22 CBC       -15.7040    9.3460  -11.7670 C.3       1 2SE        -0.0308
     23 CAQ       -15.1730    8.3510  -12.7450 C.3       1 2SE        -0.0541
     24 CAM       -16.3980    8.1180  -13.6020 C.3       1 2SE        -0.0534
     25 CAN       -17.4500    7.9640  -12.5240 C.3       1 2SE        -0.0534
     26 CAR       -16.9190    8.6750  -11.2780 C.3       1 2SE        -0.0541
     27 OAD       -15.4530   10.7800   -9.8400 O.3       1 2SE        -0.4167
     28 CBB       -14.2510    8.8040   -9.8910 C.ar      1 2SE         0.0534
     29 NAX       -13.2650    8.0210  -10.4200 N.ar      1 2SE        -0.2690
     30 CAG       -12.7440    6.9060   -9.7400 C.ar      1 2SE         0.0417
     31 CAE       -13.2070    6.6110   -8.4690 C.ar      1 2SE        -0.0062
     32 CAF       -14.2670    7.3850   -7.9350 C.ar      1 2SE        -0.0136
     33 CAH       -14.7550    8.5040   -8.6170 C.ar      1 2SE        -0.0102
     34 H         -11.6010   18.9965  -13.0753 H         1 2SE         0.0542
     35 H         -10.7408   21.2013  -13.7955 H         1 2SE         0.0608
     36 H          -9.0028   24.2610  -13.9008 H         1 2SE         0.1633
     37 H          -9.9141   23.0190  -13.1089 H         1 2SE         0.1633
     38 H          -6.7155   19.7491  -13.4293 H         1 2SE         0.0608
     39 H          -7.5864   17.5252  -12.7891 H         1 2SE         0.0542
     40 H          -8.5711   16.1711  -11.4362 H         1 2SE         0.0615
     41 H          -8.9600   15.3350  -12.9778 H         1 2SE         0.0615
     42 H         -11.0415   15.5350  -10.7442 H         1 2SE         0.0343
     43 H          -9.8032   14.2341  -10.7157 H         1 2SE         0.0343
     44 H         -10.4403   13.6410  -13.0641 H         1 2SE         0.0815
     45 H         -11.7502   14.8675  -12.9833 H         1 2SE         0.0815
     46 H         -12.5597   13.6566  -11.0381 H         1 2SE         0.2033
     47 H         -10.6829   12.2942  -10.3468 H         1 2SE         0.0814
     48 H         -11.0824   11.2443  -11.7486 H         1 2SE         0.0814
     49 H         -13.0384   11.9352   -9.4555 H         1 2SE         0.0314
     50 H         -12.1533   10.3819   -9.6306 H         1 2SE         0.0314
     51 H         -12.5161   12.0948  -13.4860 H         1 2SE         0.0814
     52 H         -13.3987   13.6429  -13.2597 H         1 2SE         0.0814
     53 H         -14.8622   11.6210  -12.8910 H         1 2SE         0.0314
     54 H         -14.7309   12.6578  -11.4300 H         1 2SE         0.0314
     55 H         -13.0791   10.1329  -12.0062 H         1 2SE         0.0249
     56 H         -16.0096   10.2360  -12.3366 H         1 2SE         0.0245
     57 H         -14.8460    7.4269  -12.2459 H         1 2SE         0.0262
     58 H         -14.3402    8.7649  -13.3325 H         1 2SE         0.0262
     59 H         -16.3022    7.2073  -14.2115 H         1 2SE         0.0265
     60 H         -16.6074    8.9770  -14.2565 H         1 2SE         0.0265
     61 H         -17.6174    6.8984  -12.3086 H         1 2SE         0.0265
     62 H         -18.3944    8.4252  -12.8487 H         1 2SE         0.0265
     63 H         -17.6486    9.4062  -10.8999 H         1 2SE         0.0262
     64 H         -16.6785    7.9528  -10.4840 H         1 2SE         0.0262
     65 H         -14.8717   11.1080   -9.1639 H         1 2SE         0.1979
     66 H         -11.9881    6.2842  -10.2058 H         1 2SE         0.0932
     67 H         -12.7674    5.8041   -7.8939 H         1 2SE         0.0937
     68 H         -14.7060    7.1056   -6.9840 H         1 2SE         0.0811
     69 H         -15.5144    9.1326   -8.1661 H         1 2SE         0.0953
@<TRIPOS>BOND
     1    1    2 ar 
     2    1   10 ar 
     3    2    3 ar 
     4    3    4 1  
     5    3    8 ar 
     6    4    5 2  
     7    4    6 2  
     8    4    7 am 
     9    8    9 ar 
    10    9   10 ar 
    11   10   11 1  
    12   11   12 1  
    13   12   13 1  
    14   13   14 1  
    15   14   15 1  
    16   15   16 1  
    17   15   18 1  
    18   16   17 1  
    19   17   20 1  
    20   18   19 1  
    21   19   20 1  
    22   20   21 1  
    23   21   22 1  
    24   21   27 1  
    25   21   28 1  
    26   22   23 1  
    27   22   26 1  
    28   23   24 1  
    29   24   25 1  
    30   25   26 1  
    31   28   29 ar 
    32   28   33 ar 
    33   29   30 ar 
    34   30   31 ar 
    35   31   32 ar 
    36   32   33 ar 
    37    1   34 1  
    38    2   35 1  
    39    7   36 1  
    40    7   37 1  
    41    8   38 1  
    42    9   39 1  
    43   12   40 1  
    44   12   41 1  
    45   13   42 1  
    46   13   43 1  
    47   14   44 1  
    48   14   45 1  
    49   15   46 1  
    50   16   47 1  
    51   16   48 1  
    52   17   49 1  
    53   17   50 1  
    54   18   51 1  
    55   18   52 1  
    56   19   53 1  
    57   19   54 1  
    58   20   55 1  
    59   22   56 1  
    60   23   57 1  
    61   23   58 1  
    62   24   59 1  
    63   24   60 1  
    64   25   61 1  
    65   25   62 1  
    66   26   63 1  
    67   26   64 1  
    68   27   65 1  
    69   30   66 1  
    70   31   67 1  
    71   32   68 1  
    72   33   69 1  
@<TRIPOS>SUBSTRUCTURE
     1 2SE         1

