### 
### Created by X-TOOL on Mon Sep 10 21:13:16 2018
### 

@<TRIPOS>MOLECULE
4og8_ligand
   68    71     1     0     0
SMALL
GAST_HUCK


@<TRIPOS>ATOM
      1 CAK        10.7820   19.1740   13.4280 C.ar      1 2SF        -0.0208
      2 CAI        10.2110   20.3510   13.9100 C.ar      1 2SF        -0.0352
      3 CAY         8.8390   20.4500   13.9770 C.ar      1 2SF         0.0840
      4 CAC         8.2260   21.6560   14.5220 C.1       1 2SF         0.0889
      5 NAA         7.7610   22.5890   14.9450 N.1       1 2SF        -0.3372
      6 CAJ         8.0590   19.4040   13.5550 C.ar      1 2SF        -0.0352
      7 CAL         8.6080   18.1900   13.1160 C.ar      1 2SF        -0.0208
      8 CAZ         9.9800   18.1220   13.0120 C.ar      1 2SF         0.1020
      9 OAX        10.6340   17.0280   12.5580 O.3       1 2SF        -0.3109
     10 CAP         9.8200   15.9040   12.1510 C.3       1 2SF         0.0777
     11 CAO        10.7640   15.0530   11.2760 C.3       1 2SF         0.0157
     12 CAU        11.6810   14.3510   12.2700 C.3       1 2SF        -0.0294
     13 NBD        12.7470   13.5620   11.5280 N.4       1 2SF         0.2353
     14 CAW        13.6020   12.8520   12.5240 C.3       1 2SF        -0.0322
     15 CAT        14.7510   12.0840   11.9470 C.3       1 2SF        -0.0115
     16 CAV        12.1590   12.5020   10.6870 C.3       1 2SF        -0.0322
     17 CAS        13.2570   11.7460    9.9150 C.3       1 2SF        -0.0115
     18 CBC        14.1710   11.0540   10.9750 C.3       1 2SF        -0.0077
     19 CBE        15.2610   10.0850   10.4250 C.3       1 2SF        -0.0106
     20 CBB        14.6030    9.0950    9.3890 C.3       1 2SF        -0.0172
     21 CAQ        13.5070    8.2210    9.8380 C.3       1 2SF        -0.0522
     22 CAM        13.2770    7.2290    8.6950 C.3       1 2SF        -0.0533
     23 CAN        14.6050    7.2520    7.8880 C.3       1 2SF        -0.0533
     24 CAR        15.5970    8.1450    8.6890 C.3       1 2SF        -0.0522
     25 NAB        16.2640   10.9470    9.7180 N.4       1 2SF         0.1782
     26 CBA        15.9320    9.3250   11.5220 C.ar      1 2SF        -0.0014
     27 CAG        15.2110    8.7410   12.5550 C.ar      1 2SF        -0.0342
     28 CAE        15.8060    8.0190   13.5720 C.ar      1 2SF        -0.0322
     29 CAD        17.1570    7.7940   13.5730 C.ar      1 2SF        -0.0340
     30 CAF        17.9020    8.3100   12.5450 C.ar      1 2SF        -0.0322
     31 CAH        17.3040    9.0650   11.5260 C.ar      1 2SF        -0.0342
     32 H          11.8608   19.0805   13.3781 H         1 2SF         0.0571
     33 H          10.8379   21.1764   14.2275 H         1 2SF         0.0692
     34 H           6.9812   19.5192   13.5609 H         1 2SF         0.0692
     35 H           7.9796   17.3419   12.8692 H         1 2SF         0.0571
     36 H           8.9490   16.2424   11.5707 H         1 2SF         0.0620
     37 H           9.4778   15.3324   13.0263 H         1 2SF         0.0620
     38 H          11.3456   15.6930   10.5963 H         1 2SF         0.0343
     39 H          10.1928   14.3186   10.6892 H         1 2SF         0.0343
     40 H          11.0869   13.6649   12.8916 H         1 2SF         0.0815
     41 H          12.1647   15.1018   12.9121 H         1 2SF         0.0815
     42 H          13.2990   14.1886   10.9635 H         1 2SF         0.2033
     43 H          12.9650   12.1464   13.0774 H         1 2SF         0.0814
     44 H          14.0087   13.6015   13.2189 H         1 2SF         0.0814
     45 H          15.3033   11.5738   12.7499 H         1 2SF         0.0314
     46 H          15.4283   12.7660   11.4121 H         1 2SF         0.0314
     47 H          11.4609   12.9568    9.9688 H         1 2SF         0.0814
     48 H          11.6152   11.7927   11.3281 H         1 2SF         0.0814
     49 H          13.8470   12.4510    9.3110 H         1 2SF         0.0314
     50 H          12.8033   10.9901    9.2572 H         1 2SF         0.0314
     51 H          13.4974   10.4184   11.5686 H         1 2SF         0.0267
     52 H          14.1784    9.7503    8.6143 H         1 2SF         0.0264
     53 H          12.5971    8.8106   10.0236 H         1 2SF         0.0262
     54 H          13.7926    7.6883   10.7571 H         1 2SF         0.0262
     55 H          12.4338    7.5495    8.0655 H         1 2SF         0.0265
     56 H          13.0785    6.2212    9.0886 H         1 2SF         0.0265
     57 H          14.4341    7.6773    6.8880 H         1 2SF         0.0265
     58 H          15.0068    6.2328    7.7892 H         1 2SF         0.0265
     59 H          16.1794    7.5579    9.4143 H         1 2SF         0.0262
     60 H          16.2826    8.6904    8.0239 H         1 2SF         0.0262
     61 H          16.6865   11.5811   10.3779 H         1 2SF         0.1958
     62 H          15.8025   11.4744    8.9935 H         1 2SF         0.1958
     63 H          16.9773   10.3650    9.3075 H         1 2SF         0.1958
     64 H          14.1332    8.8566   12.5641 H         1 2SF         0.0852
     65 H          15.1967    7.6263   14.3780 H         1 2SF         0.0698
     66 H          17.6249    7.2225   14.3664 H         1 2SF         0.0856
     67 H          18.9709    8.1316   12.5192 H         1 2SF         0.0698
     68 H          17.9200    9.4553   10.7240 H         1 2SF         0.0852
@<TRIPOS>BOND
     1    1    2 ar 
     2    1    8 ar 
     3    2    3 ar 
     4    3    4 1  
     5    3    6 ar 
     6    4    5 3  
     7    6    7 ar 
     8    7    8 ar 
     9    8    9 1  
    10    9   10 1  
    11   10   11 1  
    12   11   12 1  
    13   12   13 1  
    14   13   14 1  
    15   13   16 1  
    16   14   15 1  
    17   15   18 1  
    18   16   17 1  
    19   17   18 1  
    20   18   19 1  
    21   19   20 1  
    22   19   25 1  
    23   19   26 1  
    24   20   21 1  
    25   20   24 1  
    26   21   22 1  
    27   22   23 1  
    28   23   24 1  
    29   26   27 ar 
    30   26   31 ar 
    31   27   28 ar 
    32   28   29 ar 
    33   29   30 ar 
    34   30   31 ar 
    35    1   32 1  
    36    2   33 1  
    37    6   34 1  
    38    7   35 1  
    39   10   36 1  
    40   10   37 1  
    41   11   38 1  
    42   11   39 1  
    43   12   40 1  
    44   12   41 1  
    45   13   42 1  
    46   14   43 1  
    47   14   44 1  
    48   15   45 1  
    49   15   46 1  
    50   16   47 1  
    51   16   48 1  
    52   17   49 1  
    53   17   50 1  
    54   18   51 1  
    55   20   52 1  
    56   21   53 1  
    57   21   54 1  
    58   22   55 1  
    59   22   56 1  
    60   23   57 1  
    61   23   58 1  
    62   24   59 1  
    63   24   60 1  
    64   25   61 1  
    65   25   62 1  
    66   25   63 1  
    67   27   64 1  
    68   28   65 1  
    69   29   66 1  
    70   30   67 1  
    71   31   68 1  
@<TRIPOS>SUBSTRUCTURE
     1 2SF         1

