### 
### Created by X-TOOL on Mon Sep 10 21:13:17 2018
### 

@<TRIPOS>MOLECULE
4ogi_ligand
   78    82     1     0     0
SMALL
GAST_HUCK


@<TRIPOS>ATOM
      1 N1         22.0990    6.0260   19.8490 N.ar      1 R78        -0.2878
      2 N3         22.5070   10.1000   20.2630 N.pl3     1 R78        -0.2687
      3 C4         22.9140    6.6980   19.0250 C.ar      1 R78         0.0200
      4 C5         23.1010   10.9070   19.2010 C.3       1 R78         0.1354
      5 C6         24.1260   10.1460   18.3270 C.2       1 R78         0.2284
      6 C7         20.1100    6.3900   22.8780 C.ar      1 R78         0.0980
      7 C8         21.8710   10.7090   21.4700 C.3       1 R78         0.0438
      8 C10        21.2250   10.4220   17.4630 C.3       1 R78        -0.0610
      9 C13        20.0840   11.6290   22.6820 C.3       1 R78        -0.0509
     10 C15        22.3600   12.0530   21.9480 C.3       1 R78        -0.0296
     11 C17        18.5470    5.5890   24.6110 C.ar      1 R78        -0.0230
     12 C20        20.1590    7.6070   23.5240 C.ar      1 R78        -0.0405
     13 C21        17.9210    7.0110   26.5120 C.2       1 R78         0.1937
     14 C22        17.3810    8.2810   28.5280 C.3       1 R78         0.0509
     15 C24        15.6160    9.3840   29.8540 C.3       1 R78        -0.0300
     16 C28        17.7330    8.9730   30.8460 C.3       1 R78        -0.0300
     17 O2         17.1410    6.1350   26.8500 O.2       1 R78        -0.3904
     18 N6         18.0760    8.1570   27.2160 N.am      1 R78        -0.2846
     19 C29        18.4170    8.8800   29.5030 C.3       1 R78         0.0106
     20 N7         16.6330    9.9120   30.7700 N.4       1 R78         0.2332
     21 C30        16.0550   10.1460   32.1240 C.3       1 R78        -0.0431
     22 C23        16.1180    9.1120   28.4260 C.3       1 R78         0.0106
     23 C18        18.6600    6.8400   25.2310 C.ar      1 R78         0.0285
     24 C16        19.2910    5.3770   23.4070 C.ar      1 R78         0.1199
     25 O3         19.2050    4.2010   22.6200 O.3       1 R78        -0.3244
     26 C31        18.2860    3.1510   23.1800 C.3       1 R78         0.0570
     27 C19        19.4480    7.8460   24.6840 C.ar      1 R78        -0.0628
     28 N5         20.7990    6.0180   21.6700 N.pl3     1 R78        -0.2527
     29 C1         21.5660    6.7780   20.8480 C.ar      1 R78         0.1779
     30 N2         21.7470    8.1050   21.0300 N.ar      1 R78        -0.2512
     31 C2         22.4900    8.7540   20.1820 C.ar      1 R78         0.1459
     32 C14        21.4420   12.0980   23.2340 C.3       1 R78        -0.0509
     33 C12        20.3700   10.8670   21.4060 C.3       1 R78        -0.0296
     34 C9         21.9860   11.5050   18.2460 C.3       1 R78        -0.0147
     35 O1         24.8620   10.7910   17.6110 O.2       1 R78        -0.3839
     36 N4         24.1170    8.7740   18.3880 N.am      1 R78        -0.2208
     37 C11        25.0450    7.9440   17.6180 C.3       1 R78         0.0423
     38 C3         23.1620    8.0730   19.1270 C.ar      1 R78         0.1273
     39 H          23.4097    6.1464   18.2344 H         1 R78         0.0703
     40 H          23.6277   11.7430   19.6844 H         1 R78         0.0806
     41 H          22.0861    9.9948   22.2785 H         1 R78         0.0559
     42 H          20.4685   10.8970   16.8211 H         1 R78         0.0232
     43 H          20.7302    9.7387   18.1688 H         1 R78         0.0232
     44 H          21.9320    9.8557   16.8389 H         1 R78         0.0232
     45 H          19.4418   12.4963   22.4692 H         1 R78         0.0266
     46 H          19.5850   10.9733   23.4108 H         1 R78         0.0266
     47 H          22.1411   12.8644   21.2383 H         1 R78         0.0288
     48 H          23.4333   12.0562   22.1890 H         1 R78         0.0288
     49 H          17.9190    4.8100   25.0279 H         1 R78         0.0553
     50 H          20.7728    8.3987   23.1099 H         1 R78         0.0514
     51 H          17.0959    7.2790   28.8810 H         1 R78         0.0559
     52 H          14.7951   10.1139   29.7956 H         1 R78         0.0815
     53 H          15.2374    8.4388   30.2701 H         1 R78         0.0815
     54 H          18.4553    9.3165   31.6011 H         1 R78         0.0815
     55 H          17.3488    7.9822   31.1300 H         1 R78         0.0815
     56 H          18.6429    8.9018   26.8641 H         1 R78         0.1844
     57 H          18.7260    9.8795   29.1632 H         1 R78         0.0339
     58 H          19.2992    8.2264   29.5697 H         1 R78         0.0339
     59 H          16.9744   10.7891   30.4092 H         1 R78         0.2030
     60 H          15.2220   10.8604   32.0486 H         1 R78         0.0777
     61 H          16.8304   10.5558   32.7879 H         1 R78         0.0777
     62 H          15.6860    9.1946   32.5346 H         1 R78         0.0777
     63 H          15.3528    8.5614   27.8592 H         1 R78         0.0339
     64 H          16.3362   10.0634   27.9188 H         1 R78         0.0339
     65 H          18.2776    2.2771   22.5120 H         1 R78         0.0573
     66 H          17.2682    3.5601   23.2613 H         1 R78         0.0573
     67 H          18.6399    2.8475   24.1763 H         1 R78         0.0573
     68 H          19.5044    8.8152   25.1663 H         1 R78         0.0548
     69 H          20.6948    5.0326   21.3890 H         1 R78         0.2125
     70 H          21.8131   11.4154   24.0127 H         1 R78         0.0266
     71 H          21.3761   13.1177   23.6412 H         1 R78         0.0266
     72 H          19.8643    9.8902   21.4011 H         1 R78         0.0288
     73 H          20.0653   11.4422   20.5193 H         1 R78         0.0288
     74 H          22.4671   12.1848   17.5274 H         1 R78         0.0310
     75 H          21.2652   12.0678   18.8573 H         1 R78         0.0310
     76 H          25.7513    8.5900   17.0759 H         1 R78         0.0544
     77 H          24.4801    7.3333   16.8983 H         1 R78         0.0544
     78 H          25.6010    7.2851   18.3012 H         1 R78         0.0544
@<TRIPOS>BOND
     1    1    3 ar 
     2   29    1 ar 
     3    2    4 1  
     4    2    7 1  
     5   31    2 1  
     6    3   38 ar 
     7    4    5 1  
     8    4   34 1  
     9    5   35 2  
    10    5   36 am 
    11    6   12 ar 
    12    6   24 ar 
    13   28    6 1  
    14    7   10 1  
    15    7   33 1  
    16   34    8 1  
    17    9   32 1  
    18   33    9 1  
    19   10   32 1  
    20   11   23 ar 
    21   24   11 ar 
    22   12   27 ar 
    23   13   17 2  
    24   13   18 am 
    25   23   13 1  
    26   18   14 1  
    27   14   19 1  
    28   14   22 1  
    29   15   20 1  
    30   22   15 1  
    31   19   16 1  
    32   16   20 1  
    33   20   21 1  
    34   27   23 ar 
    35   24   25 1  
    36   25   26 1  
    37   29   28 1  
    38   30   29 ar 
    39   30   31 ar 
    40   31   38 ar 
    41   36   37 1  
    42   36   38 1  
    43    3   39 1  
    44    4   40 1  
    45    7   41 1  
    46    8   42 1  
    47    8   43 1  
    48    8   44 1  
    49    9   45 1  
    50    9   46 1  
    51   10   47 1  
    52   10   48 1  
    53   11   49 1  
    54   12   50 1  
    55   14   51 1  
    56   15   52 1  
    57   15   53 1  
    58   16   54 1  
    59   16   55 1  
    60   18   56 1  
    61   19   57 1  
    62   19   58 1  
    63   20   59 1  
    64   21   60 1  
    65   21   61 1  
    66   21   62 1  
    67   22   63 1  
    68   22   64 1  
    69   26   65 1  
    70   26   66 1  
    71   26   67 1  
    72   27   68 1  
    73   28   69 1  
    74   32   70 1  
    75   32   71 1  
    76   33   72 1  
    77   33   73 1  
    78   34   74 1  
    79   34   75 1  
    80   37   76 1  
    81   37   77 1  
    82   37   78 1  
@<TRIPOS>SUBSTRUCTURE
     1 R78         1

