### 
### Created by X-TOOL on Mon Sep 10 21:13:16 2018
### 

@<TRIPOS>MOLECULE
4ogj_ligand
   74    77     1     0     0
SMALL
GAST_HUCK


@<TRIPOS>ATOM
      1 CAQ        16.3660   40.7830   26.0320 C.3       1 2TA        -0.0316
      2 CAR        16.0390   39.5760   26.9220 C.3       1 2TA        -0.0077
      3 CAS        14.6750   40.0980   27.4500 C.3       1 2TA        -0.0077
      4 CAT        13.9770   40.8290   26.3220 C.3       1 2TA        -0.0316
      5 NAP        15.0750   41.1650   25.3940 N.4       1 2TA         0.2371
      6 CAO        15.0390   42.5890   25.0660 C.3       1 2TA        -0.0038
      7 CAN        16.1540   43.0060   24.1010 C.3       1 2TA         0.1077
      8 OAM        16.2570   41.9690   23.1340 O.3       1 2TA        -0.3201
      9 CAJ        17.4280   41.8820   22.3580 C.ar      1 2TA         0.0798
     10 CAK        18.3930   42.8500   22.2380 C.ar      1 2TA        -0.0421
     11 CAL        19.5120   42.6530   21.4410 C.ar      1 2TA        -0.0465
     12 CAI        17.6020   40.6720   21.7010 C.ar      1 2TA        -0.0421
     13 CAH        18.7150   40.5170   20.8620 C.ar      1 2TA        -0.0465
     14 CAG        19.7180   41.4490   20.7600 C.ar      1 2TA         0.0534
     15 NAF        20.8280   41.4090   19.9570 N.pl3     1 2TA        -0.2540
     16 C2         21.3930   40.2960   19.4730 C.ar      1 2TA         0.1860
     17 N3         21.1450   39.0590   19.9450 N.ar      1 2TA        -0.2417
     18 N1         22.3240   40.5310   18.5200 N.ar      1 2TA        -0.2781
     19 C6         22.9800   39.4080   17.9880 C.ar      1 2TA         0.0018
     20 C5         22.7440   38.0960   18.4490 C.ar      1 2TA         0.0148
     21 CAA        23.5020   36.9870   17.8280 C.3       1 2TA        -0.0289
     22 C4         21.7840   37.9670   19.4810 C.ar      1 2TA         0.1373
     23 NAW        21.5480   36.7200   19.8930 N.pl3     1 2TA        -0.2584
     24 CAX        20.7330   36.3850   20.9870 C.ar      1 2TA         0.0646
     25 CBC        20.1410   37.2390   21.9540 C.ar      1 2TA        -0.0120
     26 CAY        20.5560   35.0020   21.1370 C.ar      1 2TA        -0.0384
     27 CAZ        19.7990   34.4590   22.1730 C.ar      1 2TA        -0.0697
     28 CBA        19.2610   35.3030   23.1180 C.ar      1 2TA        -0.0469
     29 CBB        19.4420   36.6660   23.0220 C.ar      1 2TA         0.0987
     30 SBD        18.6310   37.7370   24.1920 S.o2      1 2TA         0.0661
     31 OBJ        18.8030   37.1200   25.5590 O.2       1 2TA        -0.1505
     32 OBK        17.2760   38.0190   23.5850 O.2       1 2TA        -0.1505
     33 NBE        19.3570   39.1460   24.0860 N.am      1 2TA        -0.2423
     34 CBF        20.5620   39.4550   24.8570 C.3       1 2TA         0.0405
     35 CBH        21.6680   38.3590   24.7280 C.3       1 2TA        -0.0430
     36 CBI        20.2790   39.7390   26.3370 C.3       1 2TA        -0.0430
     37 CBG        21.0400   40.7650   24.2340 C.3       1 2TA        -0.0430
     38 H          17.1068   40.5076   25.2669 H         1 2TA         0.0814
     39 H          16.7564   41.6137   26.6382 H         1 2TA         0.0814
     40 H          16.7756   39.4339   27.7265 H         1 2TA         0.0319
     41 H          15.9392   38.6435   26.3472 H         1 2TA         0.0319
     42 H          14.8407   40.7856   28.2925 H         1 2TA         0.0319
     43 H          14.0566   39.2516   27.7836 H         1 2TA         0.0319
     44 H          13.4822   41.7395   26.6909 H         1 2TA         0.0814
     45 H          13.2348   40.1805   25.8337 H         1 2TA         0.0814
     46 H          14.9626   40.6367   24.5429 H         1 2TA         0.2034
     47 H          15.1455   43.1664   25.9962 H         1 2TA         0.0841
     48 H          14.0686   42.8179   24.6013 H         1 2TA         0.0841
     49 H          17.1047   43.1163   24.6431 H         1 2TA         0.0663
     50 H          15.8980   43.9576   23.6123 H         1 2TA         0.0663
     51 H          18.2794   43.7848   22.7750 H         1 2TA         0.0515
     52 H          20.2415   43.4489   21.3443 H         1 2TA         0.0510
     53 H          16.8923   39.8634   21.8336 H         1 2TA         0.0515
     54 H          18.7870   39.6159   20.2638 H         1 2TA         0.0510
     55 H          21.2628   42.3082   19.7055 H         1 2TA         0.2129
     56 H          23.6979   39.5563   17.1894 H         1 2TA         0.0776
     57 H          24.1739   37.3895   17.0557 H         1 2TA         0.0368
     58 H          22.8003   36.2752   17.3687 H         1 2TA         0.0368
     59 H          24.0953   36.4720   18.5979 H         1 2TA         0.0368
     60 H          21.9939   35.9505   19.3734 H         1 2TA         0.2145
     61 H          20.2289   38.3159   21.8666 H         1 2TA         0.0554
     62 H          21.0236   34.3333   20.4233 H         1 2TA         0.0535
     63 H          19.6363   33.3890   22.2339 H         1 2TA         0.0588
     64 H          18.6909   34.8927   23.9436 H         1 2TA         0.0537
     65 H          18.9798   39.8419   23.4749 H         1 2TA         0.1678
     66 H          22.5433   38.6490   25.3278 H         1 2TA         0.0250
     67 H          21.9634   38.2585   23.6732 H         1 2TA         0.0250
     68 H          21.2761   37.3979   25.0923 H         1 2TA         0.0250
     69 H          21.2235   39.9626   26.8546 H         1 2TA         0.0250
     70 H          19.8091   38.8568   26.7964 H         1 2TA         0.0250
     71 H          19.6014   40.6013   26.4219 H         1 2TA         0.0250
     72 H          21.9563   41.0998   24.7422 H         1 2TA         0.0250
     73 H          20.2583   41.5308   24.3455 H         1 2TA         0.0250
     74 H          21.2498   40.6079   23.1657 H         1 2TA         0.0250
@<TRIPOS>BOND
     1    1    2 1  
     2    1    5 1  
     3    2    3 1  
     4    3    4 1  
     5    4    5 1  
     6    5    6 1  
     7    6    7 1  
     8    7    8 1  
     9    8    9 1  
    10    9   10 ar 
    11    9   12 ar 
    12   10   11 ar 
    13   11   14 ar 
    14   12   13 ar 
    15   13   14 ar 
    16   14   15 1  
    17   15   16 1  
    18   16   17 ar 
    19   16   18 ar 
    20   17   22 ar 
    21   18   19 ar 
    22   19   20 ar 
    23   20   21 1  
    24   20   22 ar 
    25   22   23 1  
    26   23   24 1  
    27   24   25 ar 
    28   24   26 ar 
    29   25   29 ar 
    30   26   27 ar 
    31   27   28 ar 
    32   28   29 ar 
    33   29   30 1  
    34   30   31 2  
    35   30   32 2  
    36   30   33 am 
    37   33   34 1  
    38   34   35 1  
    39   34   36 1  
    40   34   37 1  
    41    1   38 1  
    42    1   39 1  
    43    2   40 1  
    44    2   41 1  
    45    3   42 1  
    46    3   43 1  
    47    4   44 1  
    48    4   45 1  
    49    5   46 1  
    50    6   47 1  
    51    6   48 1  
    52    7   49 1  
    53    7   50 1  
    54   10   51 1  
    55   11   52 1  
    56   12   53 1  
    57   13   54 1  
    58   15   55 1  
    59   19   56 1  
    60   21   57 1  
    61   21   58 1  
    62   21   59 1  
    63   23   60 1  
    64   25   61 1  
    65   26   62 1  
    66   27   63 1  
    67   28   64 1  
    68   33   65 1  
    69   35   66 1  
    70   35   67 1  
    71   35   68 1  
    72   36   69 1  
    73   36   70 1  
    74   36   71 1  
    75   37   72 1  
    76   37   73 1  
    77   37   74 1  
@<TRIPOS>SUBSTRUCTURE
     1 2TA         1

