### 
### Created by X-TOOL on Mon Sep 10 21:13:18 2018
### 

@<TRIPOS>MOLECULE
4ogn_ligand
   81    85     1     0     0
SMALL
GAST_HUCK


@<TRIPOS>ATOM
      1 C12        12.5660  -24.1660   -2.6240 C.ar      1 2U5        -0.0460
      2 C11        13.5220  -23.4900   -1.8930 C.ar      1 2U5         0.0338
      3 CL1        15.1880  -23.3730   -2.5060 Cl        1 2U5        -0.0725
      4 C10        13.2500  -22.8800   -0.6920 C.ar      1 2U5        -0.0548
      5 C9         11.9170  -22.9570   -0.1690 C.ar      1 2U5        -0.0680
      6 C8         10.9240  -23.6400   -0.9260 C.ar      1 2U5        -0.0597
      7 C7         11.2100  -24.2370   -2.1520 C.ar      1 2U5        -0.0354
      8 C2         10.1090  -24.9740   -2.9860 C.3       1 2U5         0.0257
      9 C3          9.1490  -25.8870   -2.1260 C.3       1 2U5        -0.0222
     10 C4          8.2010  -26.6940   -3.0600 C.3       1 2U5         0.0630
     11 C16         8.7640  -27.9110   -3.7870 C.3       1 2U5         0.0099
     12 C26         9.1590  -29.1410   -2.9880 C.ar      1 2U5         0.0303
     13 C27         8.3480  -30.2830   -2.9710 C.ar      1 2U5        -0.0292
     14 C28         8.7200  -31.4270   -2.2510 C.ar      1 2U5        -0.0349
     15 C29         9.9770  -31.3770   -1.6200 C.ar      1 2U5         0.0307
     16 C31        10.5070  -32.6270   -0.8450 C.2       1 2U5         0.0659
     17 O3         11.7200  -32.6400   -0.4680 O.co2     1 2U5        -0.5605
     18 O2          9.7490  -33.6330   -0.8120 O.co2     1 2U5        -0.5605
     19 C30        10.7780  -30.2260   -1.7160 C.ar      1 2U5         0.0172
     20 N2         10.3710  -29.1460   -2.4290 N.ar      1 2U5        -0.2940
     21 C34         7.0060  -27.2280   -2.1550 C.3       1 2U5        -0.0506
     22 C5          7.4640  -25.7910   -4.0520 C.2       1 2U5         0.2090
     23 O1          6.4500  -26.2440   -4.6380 O.2       1 2U5        -0.3437
     24 N1          7.9440  -24.5010   -4.3020 N.am      1 2U5        -0.2505
     25 C13         7.1460  -23.5290   -5.1510 C.3       1 2U5         0.0698
     26 C14         6.9420  -24.0820   -6.5160 C.3       1 2U5        -0.0159
     27 C32         7.9110  -23.5390   -7.5790 C.3       1 2U5        -0.0477
     28 C33         6.4610  -22.9750   -7.5060 C.3       1 2U5        -0.0477
     29 C15         5.7330  -23.2520   -4.5080 C.3       1 2U5         0.0900
     30 S1          5.8800  -22.4530   -2.9250 S.o2      1 2U5        -0.0240
     31 O4          6.2540  -23.5660   -2.0020 O.2       1 2U5        -0.1738
     32 O5          6.8090  -21.3090   -3.0840 O.2       1 2U5        -0.1738
     33 C22         4.2430  -21.8260   -2.3860 C.3       1 2U5         0.0795
     34 C24         3.8220  -20.6340   -3.2200 C.3       1 2U5        -0.0405
     35 C25         4.3680  -21.3100   -0.9730 C.3       1 2U5        -0.0405
     36 C23         3.2360  -23.0090   -2.4350 C.3       1 2U5        -0.0405
     37 C1          9.1610  -23.9120   -3.6580 C.3       1 2U5         0.0912
     38 C6         10.0440  -22.9790   -4.6060 C.ar      1 2U5        -0.0151
     39 C17        10.8540  -23.5600   -5.6050 C.ar      1 2U5        -0.0573
     40 C18        11.6650  -22.6640   -6.3850 C.ar      1 2U5        -0.0545
     41 C19        11.6920  -21.3110   -6.0950 C.ar      1 2U5         0.0330
     42 CL2        12.7590  -20.2840   -7.0790 Cl        1 2U5        -0.0771
     43 C20        10.8850  -20.7280   -5.1370 C.ar      1 2U5        -0.0545
     44 C21        10.0560  -21.5950   -4.3550 C.ar      1 2U5        -0.0573
     45 H          12.8387  -24.6451   -3.5574 H         1 2U5         0.0562
     46 H          14.0269  -22.3517   -0.1513 H         1 2U5         0.0565
     47 H          11.6705  -22.5038    0.7844 H         1 2U5         0.0599
     48 H           9.9140  -23.6975   -0.5367 H         1 2U5         0.0558
     49 H          10.6040  -25.5860   -3.7544 H         1 2U5         0.0505
     50 H           8.5480  -25.2541   -1.4565 H         1 2U5         0.0286
     51 H           9.7514  -26.5859   -1.5271 H         1 2U5         0.0286
     52 H           9.6635  -27.5755   -4.3240 H         1 2U5         0.0453
     53 H           8.0019  -28.2316   -4.5125 H         1 2U5         0.0453
     54 H           7.4160  -30.2822   -3.5245 H         1 2U5         0.0657
     55 H           8.0779  -32.2978   -2.1843 H         1 2U5         0.0751
     56 H          11.7373  -30.2009   -1.2118 H         1 2U5         0.0838
     57 H           6.5595  -26.3872   -1.6039 H         1 2U5         0.0223
     58 H           7.3905  -27.9714   -1.4412 H         1 2U5         0.0223
     59 H           6.2420  -27.6944   -2.7943 H         1 2U5         0.0223
     60 H           7.7017  -22.5824   -5.2225 H         1 2U5         0.0581
     61 H           6.5686  -25.1167   -6.5229 H         1 2U5         0.0324
     62 H           8.2099  -24.1755   -8.4249 H         1 2U5         0.0269
     63 H           8.7603  -22.9090   -7.2761 H         1 2U5         0.0269
     64 H           6.2840  -21.9508   -7.1460 H         1 2U5         0.0269
     65 H           5.7336  -23.2173   -8.2948 H         1 2U5         0.0269
     66 H           5.2062  -24.2088   -4.3775 H         1 2U5         0.0523
     67 H           5.1544  -22.6039   -5.1827 H         1 2U5         0.0523
     68 H           2.8393  -20.2764   -2.8787 H         1 2U5         0.0251
     69 H           3.7572  -20.9307   -4.2772 H         1 2U5         0.0251
     70 H           4.5636  -19.8291   -3.1098 H         1 2U5         0.0251
     71 H           3.3931  -20.9296   -0.6340 H         1 2U5         0.0251
     72 H           5.1089  -20.4975   -0.9435 H         1 2U5         0.0251
     73 H           4.6929  -22.1268   -0.3117 H         1 2U5         0.0251
     74 H           2.2433  -22.6590   -2.1155 H         1 2U5         0.0251
     75 H           3.5770  -23.8090   -1.7614 H         1 2U5         0.0251
     76 H           3.1749  -23.3962   -3.4628 H         1 2U5         0.0251
     77 H           8.7825  -23.2687   -2.8500 H         1 2U5         0.0750
     78 H          10.8645  -24.6303   -5.7763 H         1 2U5         0.0558
     79 H          12.2588  -23.0509   -7.2052 H         1 2U5         0.0606
     80 H          10.8796  -19.6550   -4.9832 H         1 2U5         0.0606
     81 H           9.4357  -21.1834   -3.5670 H         1 2U5         0.0558
@<TRIPOS>BOND
     1    1    2 ar 
     2    1    7 ar 
     3    2    3 1  
     4    2    4 ar 
     5    4    5 ar 
     6    5    6 ar 
     7    6    7 ar 
     8    7    8 1  
     9    8    9 1  
    10    8   37 1  
    11    9   10 1  
    12   10   11 1  
    13   10   21 1  
    14   10   22 1  
    15   11   12 1  
    16   12   13 ar 
    17   12   20 ar 
    18   13   14 ar 
    19   14   15 ar 
    20   15   16 1  
    21   15   19 ar 
    22   16   17 ar 
    23   16   18 ar 
    24   19   20 ar 
    25   22   23 2  
    26   22   24 am 
    27   24   25 1  
    28   24   37 1  
    29   25   26 1  
    30   25   29 1  
    31   26   27 1  
    32   26   28 1  
    33   27   28 1  
    34   29   30 1  
    35   30   31 2  
    36   30   32 2  
    37   30   33 1  
    38   33   34 1  
    39   33   35 1  
    40   33   36 1  
    41   37   38 1  
    42   38   39 ar 
    43   38   44 ar 
    44   39   40 ar 
    45   40   41 ar 
    46   41   42 1  
    47   41   43 ar 
    48   43   44 ar 
    49    1   45 1  
    50    4   46 1  
    51    5   47 1  
    52    6   48 1  
    53    8   49 1  
    54    9   50 1  
    55    9   51 1  
    56   11   52 1  
    57   11   53 1  
    58   13   54 1  
    59   14   55 1  
    60   19   56 1  
    61   21   57 1  
    62   21   58 1  
    63   21   59 1  
    64   25   60 1  
    65   26   61 1  
    66   27   62 1  
    67   27   63 1  
    68   28   64 1  
    69   28   65 1  
    70   29   66 1  
    71   29   67 1  
    72   34   68 1  
    73   34   69 1  
    74   34   70 1  
    75   35   71 1  
    76   35   72 1  
    77   35   73 1  
    78   36   74 1  
    79   36   75 1  
    80   36   76 1  
    81   37   77 1  
    82   39   78 1  
    83   40   79 1  
    84   43   80 1  
    85   44   81 1  
@<TRIPOS>SUBSTRUCTURE
     1 2U5         1

