### 
### Created by X-TOOL on Mon Sep 10 21:13:19 2018
### 

@<TRIPOS>MOLECULE
4ogt_ligand
   79    83     1     0     0
SMALL
GAST_HUCK


@<TRIPOS>ATOM
      1 C11       -12.5400   23.7530   -2.4070 C.ar      1 2U6        -0.0438
      2 C10       -13.5440   23.1710   -1.6290 C.ar      1 2U6         0.0339
      3 CL1       -15.1650   23.0720   -2.2480 Cl        1 2U6        -0.0725
      4 C9        -13.2560   22.6740   -0.3580 C.ar      1 2U6        -0.0548
      5 C8        -11.9570   22.7590    0.1350 C.ar      1 2U6        -0.0680
      6 C7        -10.9570   23.3390   -0.6490 C.ar      1 2U6        -0.0575
      7 C6        -11.2360   23.8390   -1.9210 C.ar      1 2U6        -0.0100
      8 C2        -10.1130   24.4780   -2.7680 C.3       1 2U6         0.1249
      9 O1         -9.2820   25.3540   -1.9830 O.3       1 2U6        -0.3456
     10 C3         -8.2990   26.0120   -2.7990 C.3       1 2U6         0.1604
     11 C22        -8.7340   27.2590   -3.5740 C.3       1 2U6         0.0339
     12 C24        -9.1580   28.4970   -2.7550 C.ar      1 2U6         0.0325
     13 C25        -8.2730   29.5740   -2.7330 C.ar      1 2U6        -0.0291
     14 C26        -8.5900   30.7230   -2.0250 C.ar      1 2U6        -0.0349
     15 C27        -9.8090   30.7720   -1.3700 C.ar      1 2U6         0.0307
     16 C29       -10.1850   32.0350   -0.5950 C.2       1 2U6         0.0659
     17 O4        -11.3140   32.0780   -0.0570 O.co2     1 2U6        -0.5605
     18 O3         -9.3560   32.9730   -0.5890 O.co2     1 2U6        -0.5605
     19 C28       -10.6680   29.6750   -1.4320 C.ar      1 2U6         0.0172
     20 N2        -10.3360   28.5820   -2.1160 N.ar      1 2U6        -0.2939
     21 C23        -7.2520   26.4550   -1.7760 C.3       1 2U6        -0.0263
     22 C4         -7.5070   25.0460   -3.6760 C.2       1 2U6         0.2352
     23 O2         -6.4360   25.4430   -4.1340 O.2       1 2U6        -0.3411
     24 N1         -7.9650   23.7400   -3.9320 N.am      1 2U6        -0.2463
     25 C17        -7.0610   22.7890   -4.6520 C.3       1 2U6         0.0700
     26 C18        -6.7390   23.0730   -6.1250 C.3       1 2U6        -0.0159
     27 C20        -6.8780   21.8620   -7.0350 C.3       1 2U6        -0.0477
     28 C21        -7.8970   23.0120   -7.1160 C.3       1 2U6        -0.0477
     29 C19        -5.7460   22.5670   -3.8730 C.3       1 2U6         0.0900
     30 S1         -5.9940   21.8330   -2.2280 S.o2      1 2U6        -0.0240
     31 O5         -6.6700   20.5050   -2.3830 O.2       1 2U6        -0.1738
     32 O6         -6.8550   22.7320   -1.3900 O.2       1 2U6        -0.1738
     33 C30        -4.3890   21.6230   -1.3690 C.3       1 2U6         0.0795
     34 C32        -4.6480   20.9110   -0.0470 C.3       1 2U6        -0.0405
     35 C33        -3.7600   22.9940   -1.1170 C.3       1 2U6        -0.0405
     36 C31        -3.4640   20.7660   -2.2240 C.3       1 2U6        -0.0405
     37 C1         -9.2510   23.3060   -3.3250 C.3       1 2U6         0.1148
     38 C5        -10.1150   22.4140   -4.2400 C.ar      1 2U6        -0.0129
     39 C12       -10.7640   22.9960   -5.3250 C.ar      1 2U6        -0.0573
     40 C13       -11.5660   22.2250   -6.1580 C.ar      1 2U6        -0.0545
     41 C14       -11.7300   20.8730   -5.8910 C.ar      1 2U6         0.0330
     42 CL2       -12.7360   19.9160   -6.9260 Cl        1 2U6        -0.0771
     43 C15       -11.0900   20.2880   -4.8050 C.ar      1 2U6        -0.0545
     44 C16       -10.2860   21.0610   -3.9720 C.ar      1 2U6        -0.0573
     45 H         -12.7757   24.1391   -3.3921 H         1 2U6         0.0563
     46 H         -14.0388   22.2244    0.2421 H         1 2U6         0.0565
     47 H         -11.7227   22.3771    1.1221 H         1 2U6         0.0599
     48 H          -9.9463   23.4017   -0.2621 H         1 2U6         0.0559
     49 H         -10.5553   25.0495   -3.5973 H         1 2U6         0.0805
     50 H          -9.5886   26.9731   -4.2048 H         1 2U6         0.0476
     51 H          -7.8910   27.5601   -4.2132 H         1 2U6         0.0476
     52 H          -7.3340   29.5128   -3.2712 H         1 2U6         0.0657
     53 H          -7.9024   31.5601   -1.9853 H         1 2U6         0.0751
     54 H         -11.6203   29.7128   -0.9155 H         1 2U6         0.0838
     55 H          -6.4345   26.9800   -2.2919 H         1 2U6         0.0246
     56 H          -6.8506   25.5725   -1.2564 H         1 2U6         0.0246
     57 H          -7.7177   27.1312   -1.0440 H         1 2U6         0.0246
     58 H          -7.5970   21.8284   -4.6500 H         1 2U6         0.0581
     59 H          -5.9258   23.8054   -6.2362 H         1 2U6         0.0324
     60 H          -7.1771   20.8899   -6.6160 H         1 2U6         0.0269
     61 H          -6.1607   21.7033   -7.8537 H         1 2U6         0.0269
     62 H          -7.9088   23.6774   -7.9918 H         1 2U6         0.0269
     63 H          -8.9251   22.8640   -6.7541 H         1 2U6         0.0269
     64 H          -5.2462   23.5390   -3.7490 H         1 2U6         0.0523
     65 H          -5.1021   21.8959   -4.4604 H         1 2U6         0.0523
     66 H          -3.6967   20.7734    0.4878 H         1 2U6         0.0251
     67 H          -5.1040   19.9293   -0.2424 H         1 2U6         0.0251
     68 H          -5.3301   21.5163    0.5680 H         1 2U6         0.0251
     69 H          -2.7968   22.8663   -0.6014 H         1 2U6         0.0251
     70 H          -4.4339   23.5971   -0.4908 H         1 2U6         0.0251
     71 H          -3.5968   23.5047   -2.0775 H         1 2U6         0.0251
     72 H          -2.5005   20.6399   -1.7085 H         1 2U6         0.0251
     73 H          -3.2993   21.2590   -3.1934 H         1 2U6         0.0251
     74 H          -3.9242   19.7804   -2.3873 H         1 2U6         0.0251
     75 H          -8.9739   22.6855   -2.4601 H         1 2U6         0.0774
     76 H         -10.6434   24.0553   -5.5212 H         1 2U6         0.0558
     77 H         -12.0601   22.6766   -7.0106 H         1 2U6         0.0606
     78 H         -11.2168   19.2299   -4.6066 H         1 2U6         0.0606
     79 H          -9.7951   20.6094   -3.1175 H         1 2U6         0.0558
@<TRIPOS>BOND
     1    1    2 ar 
     2    1    7 ar 
     3    2    3 1  
     4    2    4 ar 
     5    4    5 ar 
     6    5    6 ar 
     7    6    7 ar 
     8    7    8 1  
     9    8    9 1  
    10    8   37 1  
    11    9   10 1  
    12   10   11 1  
    13   10   21 1  
    14   10   22 1  
    15   11   12 1  
    16   12   13 ar 
    17   12   20 ar 
    18   13   14 ar 
    19   14   15 ar 
    20   15   16 1  
    21   15   19 ar 
    22   16   17 ar 
    23   16   18 ar 
    24   19   20 ar 
    25   22   23 2  
    26   22   24 am 
    27   24   25 1  
    28   24   37 1  
    29   25   26 1  
    30   25   29 1  
    31   26   27 1  
    32   26   28 1  
    33   27   28 1  
    34   29   30 1  
    35   30   31 2  
    36   30   32 2  
    37   30   33 1  
    38   33   34 1  
    39   33   35 1  
    40   33   36 1  
    41   37   38 1  
    42   38   39 ar 
    43   38   44 ar 
    44   39   40 ar 
    45   40   41 ar 
    46   41   42 1  
    47   41   43 ar 
    48   43   44 ar 
    49    1   45 1  
    50    4   46 1  
    51    5   47 1  
    52    6   48 1  
    53    8   49 1  
    54   11   50 1  
    55   11   51 1  
    56   13   52 1  
    57   14   53 1  
    58   19   54 1  
    59   21   55 1  
    60   21   56 1  
    61   21   57 1  
    62   25   58 1  
    63   26   59 1  
    64   27   60 1  
    65   27   61 1  
    66   28   62 1  
    67   28   63 1  
    68   29   64 1  
    69   29   65 1  
    70   34   66 1  
    71   34   67 1  
    72   34   68 1  
    73   35   69 1  
    74   35   70 1  
    75   35   71 1  
    76   36   72 1  
    77   36   73 1  
    78   36   74 1  
    79   37   75 1  
    80   39   76 1  
    81   40   77 1  
    82   43   78 1  
    83   44   79 1  
@<TRIPOS>SUBSTRUCTURE
     1 2U6         1

