### 
### Created by X-TOOL on Mon Sep 10 21:13:20 2018
### 

@<TRIPOS>MOLECULE
4ogv_ligand
   66    68     1     0     0
SMALL
GAST_HUCK


@<TRIPOS>ATOM
      1 C16        15.9080    1.9380  -37.5460 C.ar      1 2U7        -0.0438
      2 C15        16.9120    2.8970  -37.6330 C.ar      1 2U7         0.0339
      3 CL2        16.5590    4.4530  -38.2960 Cl        1 2U7        -0.0725
      4 C14        18.2030    2.6090  -37.1890 C.ar      1 2U7        -0.0548
      5 C13        18.4980    1.3610  -36.6490 C.ar      1 2U7        -0.0680
      6 C12        17.4980    0.3930  -36.5610 C.ar      1 2U7        -0.0575
      7 C6         16.2030    0.6890  -37.0070 C.ar      1 2U7        -0.0096
      8 C2         15.0940   -0.3530  -36.9080 C.3       1 2U7         0.1287
      9 O1         15.5610   -1.6050  -37.4130 O.3       1 2U7        -0.3345
     10 C3         14.4470   -2.4190  -37.7500 C.3       1 2U7         0.1618
     11 C22        15.0040   -3.7640  -38.2260 C.3       1 2U7         0.0441
     12 C23        15.4100   -3.6390  -39.6890 C.2       1 2U7         0.0396
     13 O4         16.6340   -3.6650  -39.9470 O.co2     1 2U7        -0.5688
     14 O3         14.4770   -3.4740  -40.5070 O.co2     1 2U7        -0.5688
     15 C4         13.6010   -2.6170  -36.5020 C.2       1 2U7         0.2122
     16 O2         12.8580   -3.5910  -36.4700 O.2       1 2U7        -0.3937
     17 N1         13.6670   -1.7020  -35.4120 N.am      1 2U7        -0.2475
     18 C17        12.8560   -1.9470  -34.1940 C.3       1 2U7         0.0669
     19 C19        11.3800   -1.6480  -34.4670 C.3       1 2U7        -0.0308
     20 C21        10.6620   -1.1720  -33.2140 C.3       1 2U7        -0.0631
     21 C18        12.9970   -3.4090  -33.7470 C.3       1 2U7         0.0896
     22 S1         14.6870   -3.8820  -33.2290 S.o2      1 2U7        -0.0240
     23 O5         15.6820   -3.6220  -34.3230 O.2       1 2U7        -0.1738
     24 O6         15.0180   -3.0320  -32.0350 O.2       1 2U7        -0.1738
     25 C20        14.7170   -5.6680  -32.7660 C.3       1 2U7         0.0795
     26 C25        13.3790   -6.0750  -32.1290 C.3       1 2U7        -0.0405
     27 C26        14.9800   -6.5350  -34.0010 C.3       1 2U7        -0.0405
     28 C24        15.8410   -5.8920  -31.7560 C.3       1 2U7        -0.0405
     29 C1         14.5700   -0.5220  -35.4750 C.3       1 2U7         0.1150
     30 C5         13.8680    0.8010  -35.1040 C.ar      1 2U7        -0.0130
     31 C7         12.8160    1.3070  -35.8780 C.ar      1 2U7        -0.0573
     32 C8         12.1990    2.5140  -35.5410 C.ar      1 2U7        -0.0545
     33 C9         12.6520    3.2150  -34.4260 C.ar      1 2U7         0.0330
     34 CL1        11.9190    4.7180  -33.9960 Cl        1 2U7        -0.0771
     35 C10        13.7000    2.7200  -33.6520 C.ar      1 2U7        -0.0545
     36 C11        14.3130    1.5150  -33.9980 C.ar      1 2U7        -0.0573
     37 H          14.9061    2.1611  -37.8944 H         1 2U7         0.0563
     38 H          18.9799    3.3611  -37.2651 H         1 2U7         0.0565
     39 H          19.5002    1.1423  -36.2985 H         1 2U7         0.0599
     40 H          17.7216   -0.5845  -36.1492 H         1 2U7         0.0559
     41 H          14.2559   -0.0162  -37.5358 H         1 2U7         0.0809
     42 H          13.8470   -1.9495  -38.5435 H         1 2U7         0.0861
     43 H          14.2324   -4.5411  -38.1219 H         1 2U7         0.0481
     44 H          15.8817   -4.0353  -37.6210 H         1 2U7         0.0481
     45 H          13.2141   -1.2878  -33.3895 H         1 2U7         0.0576
     46 H          10.8920   -2.5641  -34.8313 H         1 2U7         0.0285
     47 H          11.3112   -0.8650  -35.2365 H         1 2U7         0.0285
     48 H           9.6073   -0.9683  -33.4508 H         1 2U7         0.0230
     49 H          11.1392   -0.2521  -32.8450 H         1 2U7         0.0230
     50 H          10.7200   -1.9512  -32.4397 H         1 2U7         0.0230
     51 H          12.7010   -4.0554  -34.5864 H         1 2U7         0.0523
     52 H          12.3177   -3.5762  -32.8981 H         1 2U7         0.0523
     53 H          13.4109   -7.1407  -31.8583 H         1 2U7         0.0251
     54 H          12.5637   -5.9035  -32.8472 H         1 2U7         0.0251
     55 H          13.2046   -5.4723  -31.2255 H         1 2U7         0.0251
     56 H          14.9948   -7.5952  -33.7083 H         1 2U7         0.0251
     57 H          15.9509   -6.2624  -34.4404 H         1 2U7         0.0251
     58 H          14.1832   -6.3701  -34.7412 H         1 2U7         0.0251
     59 H          15.8710   -6.9538  -31.4704 H         1 2U7         0.0251
     60 H          15.6590   -5.2770  -30.8624 H         1 2U7         0.0251
     61 H          16.8024   -5.6066  -32.2080 H         1 2U7         0.0251
     62 H          15.4116   -0.6885  -34.7865 H         1 2U7         0.0772
     63 H          12.4770    0.7560  -36.7478 H         1 2U7         0.0558
     64 H          11.3803    2.8991  -36.1380 H         1 2U7         0.0606
     65 H          14.0387    3.2706  -32.7818 H         1 2U7         0.0606
     66 H          15.1366    1.1358  -33.4038 H         1 2U7         0.0558
@<TRIPOS>BOND
     1    1    2 ar 
     2    1    7 ar 
     3    2    3 1  
     4    2    4 ar 
     5    4    5 ar 
     6    5    6 ar 
     7    6    7 ar 
     8    7    8 1  
     9    8    9 1  
    10    8   29 1  
    11    9   10 1  
    12   10   11 1  
    13   10   15 1  
    14   11   12 1  
    15   12   13 ar 
    16   12   14 ar 
    17   15   16 2  
    18   15   17 am 
    19   17   18 1  
    20   17   29 1  
    21   18   19 1  
    22   18   21 1  
    23   19   20 1  
    24   21   22 1  
    25   22   23 2  
    26   22   24 2  
    27   22   25 1  
    28   25   26 1  
    29   25   27 1  
    30   25   28 1  
    31   29   30 1  
    32   30   31 ar 
    33   30   36 ar 
    34   31   32 ar 
    35   32   33 ar 
    36   33   34 1  
    37   33   35 ar 
    38   35   36 ar 
    39    1   37 1  
    40    4   38 1  
    41    5   39 1  
    42    6   40 1  
    43    8   41 1  
    44   10   42 1  
    45   11   43 1  
    46   11   44 1  
    47   18   45 1  
    48   19   46 1  
    49   19   47 1  
    50   20   48 1  
    51   20   49 1  
    52   20   50 1  
    53   21   51 1  
    54   21   52 1  
    55   26   53 1  
    56   26   54 1  
    57   26   55 1  
    58   27   56 1  
    59   27   57 1  
    60   27   58 1  
    61   28   59 1  
    62   28   60 1  
    63   28   61 1  
    64   29   62 1  
    65   31   63 1  
    66   32   64 1  
    67   35   65 1  
    68   36   66 1  
@<TRIPOS>SUBSTRUCTURE
     1 2U7         1

