### 
### Created by X-TOOL on Mon Sep 10 21:13:19 2018
### 

@<TRIPOS>MOLECULE
4ohk_ligand
   64    66     1     0     0
SMALL
GAST_HUCK


@<TRIPOS>ATOM
      1 C23        32.5670  -22.6240  -23.7370 C.3       1 2TE        -0.0653
      2 C22        33.2670  -22.1560  -22.4730 C.3       1 2TE        -0.0567
      3 C21        34.3570  -22.0220  -21.7910 C.3       1 2TE        -0.0601
      4 C20        35.5750  -21.9810  -20.9990 C.3       1 2TE        -0.0487
      5 C12        35.6770  -20.6220  -20.3950 C.3       1 2TE         0.1334
      6 C24        35.8020  -19.5640  -21.4490 C.3       1 2TE         0.3842
      7 F2         36.8870  -19.7930  -22.1980 F         1 2TE        -0.1788
      8 F3         34.7160  -19.5470  -22.2340 F         1 2TE        -0.1788
      9 F1         35.8280  -18.4590  -20.7200 F         1 2TE        -0.1788
     10 O3         34.4860  -20.4050  -19.6450 O.3       1 2TE        -0.4281
     11 C9         36.8450  -20.7880  -19.4650 C.ar      1 2TE        -0.0331
     12 C10        38.0120  -21.3970  -19.9240 C.ar      1 2TE        -0.0466
     13 C11        39.0780  -21.6260  -19.0510 C.ar      1 2TE        -0.0089
     14 C8         36.7140  -20.4450  -18.1450 C.ar      1 2TE        -0.0466
     15 C7         37.7800  -20.6680  -17.2670 C.ar      1 2TE        -0.0089
     16 C6         38.9720  -21.2440  -17.7000 C.ar      1 2TE         0.0805
     17 N1         39.9990  -21.5060  -16.7930 N.pl3     1 2TE        -0.2702
     18 C2         39.9390  -20.9340  -15.4830 C.3       1 2TE         0.1243
     19 C3         41.3080  -21.0380  -14.7810 C.3       1 2TE         0.0651
     20 C13        38.9710  -21.7760  -14.7850 C.1       1 2TE        -0.0714
     21 C14        38.2580  -22.6200  -14.2730 C.1       1 2TE        -0.1031
     22 C15        37.3960  -23.6460  -13.7250 C.3       1 2TE        -0.0025
     23 C1         40.8850  -22.6980  -17.0100 C.3       1 2TE         0.0538
     24 C4         42.1910  -22.6540  -16.2090 C.3       1 2TE         0.0511
     25 N2         41.8350  -22.3950  -14.8280 N.am      1 2TE        -0.2292
     26 S1         43.1990  -22.4230  -14.0740 S.o2      1 2TE         0.0708
     27 O1         42.9190  -22.5030  -12.6190 O.2       1 2TE        -0.1507
     28 O2         43.9370  -23.6190  -14.5400 O.2       1 2TE        -0.1507
     29 C5         44.1370  -20.9700  -14.4280 C.ar      1 2TE         0.1218
     30 C19        45.1020  -20.9860  -15.4410 C.ar      1 2TE        -0.0275
     31 C18        45.8110  -19.8170  -15.7250 C.ar      1 2TE        -0.0145
     32 C17        45.5240  -18.6740  -14.9900 C.ar      1 2TE         0.1086
     33 N4         46.1810  -17.5650  -15.2490 N.pl3     1 2TE        -0.3221
     34 N3         44.6130  -18.6810  -13.9940 N.ar      1 2TE        -0.2837
     35 C16        43.9230  -19.7790  -13.7090 C.ar      1 2TE         0.0225
     36 H          31.4908  -22.4097  -23.6609 H         1 2TE         0.0230
     37 H          32.7175  -23.7067  -23.8601 H         1 2TE         0.0230
     38 H          32.9857  -22.0945  -24.6055 H         1 2TE         0.0230
     39 H          32.6748  -22.7170  -21.7351 H         1 2TE         0.0262
     40 H          32.9430  -21.1048  -22.4805 H         1 2TE         0.0262
     41 H          33.9173  -21.2034  -21.2023 H         1 2TE         0.0257
     42 H          34.8812  -21.6055  -22.6638 H         1 2TE         0.0257
     43 H          36.4468  -22.1715  -21.6422 H         1 2TE         0.0171
     44 H          35.5317  -22.7414  -20.2054 H         1 2TE         0.0171
     45 H          34.4071  -21.0759  -18.9770 H         1 2TE         0.1924
     46 H          38.0925  -21.6942  -20.9633 H         1 2TE         0.0815
     47 H          39.9849  -22.0968  -19.4128 H         1 2TE         0.0631
     48 H          35.7918  -20.0044  -17.7839 H         1 2TE         0.0815
     49 H          37.6760  -20.3860  -16.2255 H         1 2TE         0.0631
     50 H          39.6103  -19.8849  -15.5195 H         1 2TE         0.0727
     51 H          41.1934  -20.7362  -13.7294 H         1 2TE         0.0512
     52 H          42.0175  -20.3624  -15.2812 H         1 2TE         0.0512
     53 H          37.3873  -23.5699  -12.6277 H         1 2TE         0.0362
     54 H          37.7713  -24.6368  -14.0208 H         1 2TE         0.0362
     55 H          36.3745  -23.5109  -14.1100 H         1 2TE         0.0362
     56 H          41.1362  -22.7529  -18.0795 H         1 2TE         0.0553
     57 H          40.3291  -23.6009  -16.7170 H         1 2TE         0.0553
     58 H          42.8396  -21.8507  -16.5885 H         1 2TE         0.0499
     59 H          42.7155  -23.6175  -16.2891 H         1 2TE         0.0499
     60 H          45.2969  -21.8949  -15.9986 H         1 2TE         0.0719
     61 H          46.5677  -19.8020  -16.5010 H         1 2TE         0.0611
     62 H          45.9790  -16.7094  -14.7122 H         1 2TE         0.1766
     63 H          46.8977  -17.5518  -15.9887 H         1 2TE         0.1766
     64 H          43.1867  -19.7580  -12.9137 H         1 2TE         0.0801
@<TRIPOS>BOND
     1    1    2 1  
     2    2    3 1  
     3    3    4 1  
     4    4    5 1  
     5    5    6 1  
     6    5   10 1  
     7    5   11 1  
     8    6    7 1  
     9    6    8 1  
    10    6    9 1  
    11   11   12 ar 
    12   11   14 ar 
    13   12   13 ar 
    14   13   16 ar 
    15   14   15 ar 
    16   15   16 ar 
    17   16   17 1  
    18   17   18 1  
    19   17   23 1  
    20   18   19 1  
    21   18   20 1  
    22   19   25 1  
    23   20   21 3  
    24   21   22 1  
    25   23   24 1  
    26   24   25 1  
    27   25   26 am 
    28   26   27 2  
    29   26   28 2  
    30   26   29 1  
    31   29   30 ar 
    32   29   35 ar 
    33   30   31 ar 
    34   31   32 ar 
    35   32   33 1  
    36   32   34 ar 
    37   34   35 ar 
    38    1   36 1  
    39    1   37 1  
    40    1   38 1  
    41    2   39 1  
    42    2   40 1  
    43    3   41 1  
    44    3   42 1  
    45    4   43 1  
    46    4   44 1  
    47   10   45 1  
    48   12   46 1  
    49   13   47 1  
    50   14   48 1  
    51   15   49 1  
    52   18   50 1  
    53   19   51 1  
    54   19   52 1  
    55   22   53 1  
    56   22   54 1  
    57   22   55 1  
    58   23   56 1  
    59   23   57 1  
    60   24   58 1  
    61   24   59 1  
    62   30   60 1  
    63   31   61 1  
    64   33   62 1  
    65   33   63 1  
    66   35   64 1  
@<TRIPOS>SUBSTRUCTURE
     1 2TE         1

