### 
### Created by X-TOOL on Mon Sep 10 21:13:19 2018
### 

@<TRIPOS>MOLECULE
4ohm_ligand
   56    58     1     0     0
SMALL
GAST_HUCK


@<TRIPOS>ATOM
      1 C19        -4.2500  -49.1110   15.6090 C.ar      1 2TF        -0.0275
      2 C18        -5.6120  -49.0890   15.8500 C.ar      1 2TF        -0.0145
      3 C17        -6.4130  -48.4060   14.9550 C.ar      1 2TF         0.1086
      4 N4         -7.7240  -48.3960   15.1390 N.pl3     1 2TF        -0.3221
      5 N3         -5.8800  -47.7530   13.8730 N.ar      1 2TF        -0.2837
      6 C16        -4.5900  -47.7450   13.6440 C.ar      1 2TF         0.0225
      7 C5         -3.7340  -48.4290   14.5090 C.ar      1 2TF         0.1218
      8 S1         -2.0130  -48.3280   14.2340 S.o2      1 2TF         0.0708
      9 O1         -1.8650  -47.9330   12.8220 O.2       1 2TF        -0.1507
     10 O2         -1.3590  -49.5870   14.6030 O.2       1 2TF        -0.1507
     11 N2         -1.4170  -47.1210   15.0760 N.am      1 2TF        -0.2292
     12 C3         -2.2640  -45.9410   14.8560 C.3       1 2TF         0.0651
     13 C2         -1.6710  -44.6770   15.5620 C.3       1 2TF         0.1243
     14 C13        -0.4100  -44.3720   14.8250 C.1       1 2TF        -0.0714
     15 C14         0.6150  -44.0820   14.2660 C.1       1 2TF        -0.1031
     16 C15         1.8700  -43.8290   13.5370 C.3       1 2TF        -0.0025
     17 C4         -1.4620  -47.3920   16.5050 C.3       1 2TF         0.0511
     18 C1         -0.6910  -46.2650   17.2290 C.3       1 2TF         0.0538
     19 N1         -1.2450  -44.9380   16.9230 N.pl3     1 2TF        -0.2702
     20 C6         -0.9960  -43.8990   17.8100 C.ar      1 2TF         0.0805
     21 C11        -1.0570  -42.6070   17.3940 C.ar      1 2TF        -0.0089
     22 C10        -0.7840  -41.5660   18.2690 C.ar      1 2TF        -0.0465
     23 C7         -0.6670  -44.1190   19.1490 C.ar      1 2TF        -0.0089
     24 C8         -0.4140  -43.0770   20.0420 C.ar      1 2TF        -0.0465
     25 C9         -0.4690  -41.7830   19.5910 C.ar      1 2TF        -0.0309
     26 C12        -0.1330  -40.6140   20.4770 C.3       1 2TF         0.1565
     27 C21        -1.2150  -40.3280   21.5050 C.3       1 2TF         0.3864
     28 F2         -2.3130  -40.0570   20.8210 F         1 2TF        -0.1787
     29 F3         -1.2320  -41.3780   22.3550 F         1 2TF        -0.1787
     30 F1         -0.9940  -39.2160   22.2000 F         1 2TF        -0.1787
     31 O3          0.0710  -39.4520   19.6840 O.3       1 2TF        -0.4266
     32 C20         1.2250  -40.8510   21.1000 C.3       1 2TF         0.0497
     33 O4          1.5710  -39.5800   21.6950 O.3       1 2TF        -0.4032
     34 H          -3.5879  -49.6558   16.2722 H         1 2TF         0.0719
     35 H          -6.0366  -49.5907   16.7120 H         1 2TF         0.0611
     36 H          -8.3328  -47.8908   14.4794 H         1 2TF         0.1766
     37 H          -8.1352  -48.8934   15.9417 H         1 2TF         0.1766
     38 H          -4.1904  -47.2113   12.7893 H         1 2TF         0.0801
     39 H          -3.2675  -46.1396   15.2603 H         1 2TF         0.0512
     40 H          -2.3356  -45.7475   13.7755 H         1 2TF         0.0512
     41 H          -2.3871  -43.8427   15.5303 H         1 2TF         0.0727
     42 H           2.2182  -42.8076   13.7500 H         1 2TF         0.0362
     43 H           1.6950  -43.9388   12.4566 H         1 2TF         0.0362
     44 H           2.6338  -44.5516   13.8601 H         1 2TF         0.0362
     45 H          -0.9896  -48.3627   16.7160 H         1 2TF         0.0499
     46 H          -2.5067  -47.4102   16.8489 H         1 2TF         0.0499
     47 H           0.3616  -46.2929   16.9109 H         1 2TF         0.0553
     48 H          -0.7506  -46.4336   18.3143 H         1 2TF         0.0553
     49 H          -1.3221  -42.3872   16.3662 H         1 2TF         0.0631
     50 H          -0.8200  -40.5476   17.8993 H         1 2TF         0.0815
     51 H          -0.6057  -45.1396   19.5091 H         1 2TF         0.0631
     52 H          -0.1771  -43.2876   21.0786 H         1 2TF         0.0815
     53 H           0.7468  -39.6248   19.0390 H         1 2TF         0.1924
     54 H           1.9610  -41.1359   20.3338 H         1 2TF         0.0461
     55 H           1.1702  -41.6381   21.8665 H         1 2TF         0.0461
     56 H           1.6004  -38.9129   21.0193 H         1 2TF         0.2081
@<TRIPOS>BOND
     1    1    2 ar 
     2    1    7 ar 
     3    2    3 ar 
     4    3    4 1  
     5    3    5 ar 
     6    5    6 ar 
     7    6    7 ar 
     8    7    8 1  
     9    8    9 2  
    10    8   10 2  
    11    8   11 am 
    12   11   12 1  
    13   11   17 1  
    14   12   13 1  
    15   13   14 1  
    16   13   19 1  
    17   14   15 3  
    18   15   16 1  
    19   17   18 1  
    20   18   19 1  
    21   19   20 1  
    22   20   21 ar 
    23   20   23 ar 
    24   21   22 ar 
    25   22   25 ar 
    26   23   24 ar 
    27   24   25 ar 
    28   25   26 1  
    29   26   27 1  
    30   26   31 1  
    31   26   32 1  
    32   27   28 1  
    33   27   29 1  
    34   27   30 1  
    35   32   33 1  
    36    1   34 1  
    37    2   35 1  
    38    4   36 1  
    39    4   37 1  
    40    6   38 1  
    41   12   39 1  
    42   12   40 1  
    43   13   41 1  
    44   16   42 1  
    45   16   43 1  
    46   16   44 1  
    47   17   45 1  
    48   17   46 1  
    49   18   47 1  
    50   18   48 1  
    51   21   49 1  
    52   22   50 1  
    53   23   51 1  
    54   24   52 1  
    55   31   53 1  
    56   32   54 1  
    57   32   55 1  
    58   33   56 1  
@<TRIPOS>SUBSTRUCTURE
     1 2TF         1

