### 
### Created by X-TOOL on Mon Sep 10 21:13:19 2018
### 

@<TRIPOS>MOLECULE
4oho_ligand
   52    54     1     0     0
SMALL
GAST_HUCK


@<TRIPOS>ATOM
      1 C19        44.6010  -20.8990  -15.5290 C.ar      1 2TG        -0.0275
      2 C18        45.2760  -19.7130  -15.7530 C.ar      1 2TG        -0.0145
      3 C17        45.0620  -18.6700  -14.8840 C.ar      1 2TG         0.1086
      4 N4         45.7030  -17.5230  -15.0590 N.pl3     1 2TG        -0.3221
      5 N3         44.2250  -18.8150  -13.8280 N.ar      1 2TG        -0.2837
      6 C16        43.5680  -19.9270  -13.5860 C.ar      1 2TG         0.0225
      7 C15        43.7330  -20.9970  -14.4420 C.ar      1 2TG         0.1218
      8 S2         42.8310  -22.4490  -14.1510 S.o2      1 2TG         0.0708
      9 O2         42.4910  -22.5300  -12.7160 O.2       1 2TG        -0.1507
     10 O3         43.6780  -23.5980  -14.5690 O.2       1 2TG        -0.1507
     11 N2         41.4470  -22.3850  -14.9290 N.am      1 2TG        -0.2296
     12 C3         40.8640  -21.0630  -14.7090 C.3       1 2TG         0.0633
     13 C2         39.4890  -20.9720  -15.4040 C.3       1 2TG         0.1160
     14 C5         38.5500  -21.8820  -14.6810 C.1       1 2TG        -0.0735
     15 C6         37.7580  -22.6840  -14.2190 C.1       1 2TG        -0.1033
     16 C7         36.9090  -23.7100  -13.6130 C.3       1 2TG        -0.0025
     17 C4         41.7080  -22.6040  -16.3310 C.3       1 2TG         0.0493
     18 C1         40.3800  -22.6630  -17.0680 C.3       1 2TG         0.0450
     19 N1         39.5450  -21.4960  -16.7650 N.pl3     1 2TG        -0.2919
     20 C8         38.5700  -21.1010  -17.6490 C.ar      1 2TG         0.0413
     21 C13        38.5490  -21.5070  -18.9720 C.ar      1 2TG        -0.0426
     22 C12        37.5490  -21.0810  -19.8370 C.ar      1 2TG        -0.0501
     23 C9         37.5400  -20.3150  -17.1900 C.ar      1 2TG        -0.0426
     24 C10        36.5350  -19.9060  -18.0540 C.ar      1 2TG        -0.0501
     25 C11        36.5310  -20.2740  -19.3690 C.ar      1 2TG         0.0646
     26 S1         35.2470  -19.7270  -20.3750 S.o2      1 2TG        -0.0129
     27 C14        35.2100  -20.6820  -21.9290 C.3       1 2TG         0.5091
     28 F2         34.0030  -20.7000  -22.6340 F         1 2TG        -0.1511
     29 F3         35.5250  -21.9830  -21.7170 F         1 2TG        -0.1511
     30 F1         36.2150  -20.0000  -22.5170 F         1 2TG        -0.1511
     31 O1         33.9700  -20.0350  -19.6770 O.2       1 2TG        -0.1811
     32 N5         35.2930  -18.1450  -20.6580 N.2       1 2TG        -0.2134
     33 H1         44.7452  -21.7444  -16.1920 H         1 2TG         0.0719
     34 H2         45.9554  -19.6088  -16.5912 H         1 2TG         0.0611
     35 H3         45.5442  -16.7399  -14.4090 H         1 2TG         0.1766
     36 H4         46.3599  -17.4148  -15.8450 H         1 2TG         0.1766
     37 H5         42.9082  -20.0026  -12.7293 H         1 2TG         0.0801
     38 H6         41.5338  -20.2955  -15.1241 H         1 2TG         0.0510
     39 H7         40.7385  -20.8950  -13.6292 H         1 2TG         0.0510
     40 H8         39.1284  -19.9328  -15.3997 H         1 2TG         0.0704
     41 H9         35.8553  -23.5001  -13.8488 H         1 2TG         0.0362
     42 H10        37.0487  -23.7041  -12.5219 H         1 2TG         0.0362
     43 H11        37.1846  -24.6970  -14.0127 H         1 2TG         0.0362
     44 H12        42.2479  -23.5532  -16.4636 H         1 2TG         0.0497
     45 H13        42.3159  -21.7778  -16.7283 H         1 2TG         0.0497
     46 H14        39.8436  -23.5745  -16.7657 H         1 2TG         0.0530
     47 H15        40.5729  -22.6931  -18.1505 H         1 2TG         0.0530
     48 H16        39.3256  -22.1682  -19.3392 H         1 2TG         0.0515
     49 H17        37.5678  -21.3818  -20.8783 H         1 2TG         0.0601
     50 H18        37.5131  -20.0137  -16.1491 H         1 2TG         0.0515
     51 H19        35.7345  -19.2800  -17.6768 H         1 2TG         0.0601
     52 H20        35.3166  -17.4956  -19.8874 H         1 2TG         0.2076
@<TRIPOS>BOND
     1    1    2 ar 
     2    1    7 ar 
     3    2    3 ar 
     4    3    4 1  
     5    3    5 ar 
     6    5    6 ar 
     7    6    7 ar 
     8    7    8 1  
     9    8    9 2  
    10    8   10 2  
    11    8   11 am 
    12   11   12 1  
    13   11   17 1  
    14   12   13 1  
    15   13   14 1  
    16   13   19 1  
    17   14   15 3  
    18   15   16 1  
    19   17   18 1  
    20   18   19 1  
    21   19   20 1  
    22   20   21 ar 
    23   20   23 ar 
    24   21   22 ar 
    25   22   25 ar 
    26   23   24 ar 
    27   24   25 ar 
    28   25   26 1  
    29   26   27 1  
    30   26   31 2  
    31   26   32 2  
    32   27   28 1  
    33   27   29 1  
    34   27   30 1  
    35    1   33 1  
    36    2   34 1  
    37    4   35 1  
    38    4   36 1  
    39    6   37 1  
    40   12   38 1  
    41   12   39 1  
    42   13   40 1  
    43   16   41 1  
    44   16   42 1  
    45   16   43 1  
    46   17   44 1  
    47   17   45 1  
    48   18   46 1  
    49   18   47 1  
    50   21   48 1  
    51   22   49 1  
    52   23   50 1  
    53   24   51 1  
    54   32   52 1  
@<TRIPOS>SUBSTRUCTURE
     1 2TG         1

