### 
### Created by X-TOOL on Mon Sep 10 21:13:20 2018
### 

@<TRIPOS>MOLECULE
4ohp_ligand
   53    55     1     0     0
SMALL
GAST_HUCK


@<TRIPOS>ATOM
      1 C11        72.2460   89.5730   -0.1600 C.3       1 2TJ         0.0149
      2 N3         73.3070   88.5020   -0.3450 N.am      1 2TJ        -0.2519
      3 S2         73.8510   88.7640   -1.7100 S.o2      1 2TJ         0.0621
      4 O3         72.9800   89.8140   -2.3090 O.2       1 2TJ        -0.1520
      5 O4         75.3280   89.1550   -1.6040 O.2       1 2TJ        -0.1520
      6 C16        73.6980   87.4140   -2.7420 C.ar      1 2TJ         0.0947
      7 C8         73.4420   87.6510   -4.0730 C.ar      1 2TJ        -0.0471
      8 C9         73.2930   86.6080   -4.9700 C.ar      1 2TJ        -0.0425
      9 C7         73.8180   86.1420   -2.2580 C.ar      1 2TJ        -0.0471
     10 C6         73.6910   85.1100   -3.1540 C.ar      1 2TJ        -0.0425
     11 C5         73.4330   85.3220   -4.5220 C.ar      1 2TJ         0.0414
     12 N1         73.2970   84.2620   -5.3870 N.pl3     1 2TJ        -0.2919
     13 C2         72.9160   84.4580   -6.7920 C.3       1 2TJ         0.1160
     14 C3         72.3210   83.1870   -7.4060 C.3       1 2TJ         0.0633
     15 C17        74.2100   84.7830   -7.4670 C.1       1 2TJ        -0.0735
     16 C18        75.3140   84.9950   -7.9720 C.1       1 2TJ        -0.1033
     17 C19        76.6740   85.2270   -8.5240 C.3       1 2TJ        -0.0025
     18 C1         73.9050   82.9640   -5.0150 C.3       1 2TJ         0.0450
     19 C4         73.2250   81.7670   -5.7260 C.3       1 2TJ         0.0493
     20 N2         73.1560   82.0160   -7.1550 N.am      1 2TJ        -0.2296
     21 S1         72.5320   80.7320   -7.9060 S.o2      1 2TJ         0.0708
     22 O1         72.7830   80.9300   -9.3520 O.2       1 2TJ        -0.1507
     23 O2         73.1320   79.4920   -7.3710 O.2       1 2TJ        -0.1507
     24 C10        70.8430   80.6470   -7.6500 C.ar      1 2TJ         0.1218
     25 C12        70.3380   79.9040   -6.5930 C.ar      1 2TJ        -0.0275
     26 C13        68.9840   79.8880   -6.3200 C.ar      1 2TJ        -0.0145
     27 C14        68.1660   80.6230   -7.1450 C.ar      1 2TJ         0.1086
     28 N5         66.8560   80.6130   -6.9190 N.pl3     1 2TJ        -0.3221
     29 N4         68.6800   81.3250   -8.1830 N.ar      1 2TJ        -0.2837
     30 C15        69.9710   81.3570   -8.4510 C.ar      1 2TJ         0.0225
     31 H          71.7812   89.4613    0.8307 H         1 2TJ         0.0439
     32 H          71.4775   89.4664   -0.9397 H         1 2TJ         0.0439
     33 H          72.7109   90.5669   -0.2369 H         1 2TJ         0.0439
     34 H          73.5784   87.7866    0.2989 H         1 2TJ         0.1667
     35 H          73.3555   88.6726   -4.4250 H         1 2TJ         0.0602
     36 H          73.0688   86.8062   -6.0119 H         1 2TJ         0.0515
     37 H          74.0062   85.9550   -1.2070 H         1 2TJ         0.0602
     38 H          73.7933   84.0924   -2.7946 H         1 2TJ         0.0515
     39 H          72.1976   85.2853   -6.8890 H         1 2TJ         0.0704
     40 H          72.2253   83.3286   -8.4926 H         1 2TJ         0.0510
     41 H          71.3262   83.0139   -6.9698 H         1 2TJ         0.0510
     42 H          76.5917   85.6482   -9.5368 H         1 2TJ         0.0362
     43 H          77.2200   84.2730   -8.5669 H         1 2TJ         0.0362
     44 H          77.2171   85.9316   -7.8770 H         1 2TJ         0.0362
     45 H          73.8107   82.8286   -3.9275 H         1 2TJ         0.0530
     46 H          74.9695   82.9805   -5.2915 H         1 2TJ         0.0530
     47 H          72.2075   81.6368   -5.3288 H         1 2TJ         0.0497
     48 H          73.8098   80.8536   -5.5427 H         1 2TJ         0.0497
     49 H          71.0152   79.3280   -5.9727 H         1 2TJ         0.0719
     50 H          68.5828   79.3191   -5.4891 H         1 2TJ         0.0611
     51 H          66.2247   81.1565   -7.5248 H         1 2TJ         0.1766
     52 H          66.4723   80.0617   -6.1381 H         1 2TJ         0.1766
     53 H          70.3429   81.9338   -9.2901 H         1 2TJ         0.0801
@<TRIPOS>BOND
     1    1    2 1  
     2    2    3 am 
     3    3    4 2  
     4    3    5 2  
     5    3    6 1  
     6    6    7 ar 
     7    6    9 ar 
     8    7    8 ar 
     9    8   11 ar 
    10    9   10 ar 
    11   10   11 ar 
    12   11   12 1  
    13   12   13 1  
    14   12   18 1  
    15   13   14 1  
    16   13   15 1  
    17   14   20 1  
    18   15   16 3  
    19   16   17 1  
    20   18   19 1  
    21   19   20 1  
    22   20   21 am 
    23   21   22 2  
    24   21   23 2  
    25   21   24 1  
    26   24   25 ar 
    27   24   30 ar 
    28   25   26 ar 
    29   26   27 ar 
    30   27   28 1  
    31   27   29 ar 
    32   29   30 ar 
    33    1   31 1  
    34    1   32 1  
    35    1   33 1  
    36    2   34 1  
    37    7   35 1  
    38    8   36 1  
    39    9   37 1  
    40   10   38 1  
    41   13   39 1  
    42   14   40 1  
    43   14   41 1  
    44   17   42 1  
    45   17   43 1  
    46   17   44 1  
    47   18   45 1  
    48   18   46 1  
    49   19   47 1  
    50   19   48 1  
    51   25   49 1  
    52   26   50 1  
    53   28   51 1  
    54   28   52 1  
    55   30   53 1  
@<TRIPOS>SUBSTRUCTURE
     1 2TJ         1

