### 
### Created by X-TOOL on Mon Sep 10 21:13:17 2018
### 

@<TRIPOS>MOLECULE
4oi6_ligand
   18    17     1     0     0
SMALL
GAST_HUCK


@<TRIPOS>ATOM
      1 C1         11.0130    8.3360    0.4580 C.2       1 CIT         0.0371
      2 O1         10.6810    7.1880    0.0850 O.co2     1 CIT        -0.5690
      3 O2         11.8120    9.0030   -0.2480 O.co2     1 CIT        -0.5690
      4 C2         10.4660    8.8890    1.7540 C.3       1 CIT         0.0356
      5 C3         10.3540    7.7590    2.7830 C.3       1 CIT         0.1328
      6 O7          9.4340    6.7520    2.2950 O.3       1 CIT        -0.3818
      7 C4          9.8930    8.3690    4.1150 C.3       1 CIT         0.0356
      8 C5          9.4170    7.3580    5.1420 C.2       1 CIT         0.0371
      9 O3          9.0290    7.7370    6.2810 O.co2     1 CIT        -0.5690
     10 O4          9.4240    6.1350    4.8790 O.co2     1 CIT        -0.5690
     11 C6         11.7270    7.1330    2.9220 C.2       1 CIT         0.0796
     12 O5         12.7360    7.8480    3.0560 O.co2     1 CIT        -0.5449
     13 O6         11.8650    5.8870    2.8780 O.co2     1 CIT        -0.5449
     14 H1          9.4712    9.3236    1.5766 H         1 CIT         0.0452
     15 H2         11.1433    9.6671    2.1358 H         1 CIT         0.0452
     16 H3          9.7564    6.4019    1.4728 H         1 CIT         0.2091
     17 H4          9.0647    9.0621    3.9065 H         1 CIT         0.0452
     18 H5         10.7371    8.9260    4.5477 H         1 CIT         0.0452
@<TRIPOS>BOND
     1    1    2 ar 
     2    1    3 ar 
     3    1    4 1  
     4    4    5 1  
     5    5    6 1  
     6    5    7 1  
     7    5   11 1  
     8    7    8 1  
     9    8    9 ar 
    10    8   10 ar 
    11   11   12 ar 
    12   11   13 ar 
    13    4   14 1  
    14    4   15 1  
    15    6   16 1  
    16    7   17 1  
    17    7   18 1  
@<TRIPOS>SUBSTRUCTURE
     1 CIT         1

