### 
### Created by X-TOOL on Mon Sep 10 21:13:24 2018
### 

@<TRIPOS>MOLECULE
4oiv_ligand
   60    62     1     0     0
SMALL
GAST_HUCK


@<TRIPOS>ATOM
      1 CLH        10.0030   11.0510  -20.0030 Cl        1 XX9        -0.0681
      2 CAW        10.4490   11.9710  -21.4210 C.ar      1 XX9         0.0501
      3 CAQ        10.4010   11.3160  -22.6510 C.ar      1 XX9        -0.0242
      4 CBA        10.7080   11.9420  -23.8390 C.ar      1 XX9         0.0460
      5 NBD        10.6800   11.3110  -25.0190 N.pl3     1 XX9        -0.3122
      6 CAB        10.8680   12.1000  -26.3150 C.3       1 XX9         0.0162
      7 CAA        10.5960    9.8360  -25.0750 C.3       1 XX9         0.0162
      8 CAR        11.1130   13.2730  -23.7150 C.ar      1 XX9        -0.0242
      9 CAX        11.2200   13.9050  -22.4740 C.ar      1 XX9         0.0501
     10 CLI        11.7870   15.6390  -22.4310 Cl        1 XX9        -0.0681
     11 CBC        10.8900   13.2700  -21.2650 C.ar      1 XX9         0.0695
     12 CAU        10.8620   13.9170  -19.9960 C.2       1 XX9         0.2260
     13 OAF         9.7840   14.3660  -19.5370 O.2       1 XX9        -0.3799
     14 NBE        11.9960   14.1020  -19.3020 N.am      1 XX9        -0.2085
     15 CAT        11.9170   14.8500  -17.9980 C.3       1 XX9         0.0874
     16 CAY        12.4390   16.2300  -18.0530 C.ar      1 XX9        -0.0157
     17 CAN        11.6490   17.2450  -18.5130 C.ar      1 XX9        -0.0580
     18 CAK        12.1130   18.5770  -18.4820 C.ar      1 XX9        -0.0685
     19 CAJ        13.4410   18.7920  -18.0680 C.ar      1 XX9        -0.0687
     20 CAL        14.2880   17.7730  -17.6230 C.ar      1 XX9        -0.0685
     21 CAO        13.7370   16.4470  -17.6400 C.ar      1 XX9        -0.0580
     22 CAZ        13.1960   13.6080  -19.7490 C.ar      1 XX9         0.0890
     23 CAS        14.1480   14.5180  -20.2260 C.ar      1 XX9        -0.0303
     24 CAP        13.4260   12.2260  -19.6430 C.ar      1 XX9        -0.0144
     25 CAM        14.6980   11.7650  -20.0210 C.ar      1 XX9        -0.0057
     26 CAV        15.6650   12.6620  -20.4610 C.ar      1 XX9         0.1105
     27 OAG        16.8930   12.1760  -20.8040 O.3       1 XX9        -0.3120
     28 CBB        15.4000   14.0750  -20.6370 C.ar      1 XX9        -0.0351
     29 CBF        16.4520   14.9710  -21.0430 C.3       1 XX9        -0.0588
     30 CAD        16.9800   14.6270  -22.4620 C.3       1 XX9        -0.0921
     31 CAE        16.0680   16.4230  -20.9600 C.3       1 XX9        -0.0921
     32 CAC        17.6170   14.8800  -20.0390 C.3       1 XX9        -0.0921
     33 H1         10.1103   10.2719  -22.6732 H         1 XX9         0.0536
     34 H2         10.8141   11.4138  -27.1731 H         1 XX9         0.0480
     35 H3         11.8498   12.5959  -26.3033 H         1 XX9         0.0480
     36 H4         10.0754   12.8578  -26.4012 H         1 XX9         0.0480
     37 H5         10.4620    9.4375  -24.0585 H         1 XX9         0.0480
     38 H6         11.5231    9.4321  -25.5079 H         1 XX9         0.0480
     39 H7          9.7404    9.5409  -25.7002 H         1 XX9         0.0480
     40 H8         11.3521   13.8339  -24.6113 H         1 XX9         0.0536
     41 H9         12.4959   14.2931  -17.2465 H         1 XX9         0.0747
     42 H10        10.8620   14.8935  -17.6899 H         1 XX9         0.0747
     43 H11        10.6617   17.0262  -18.9034 H         1 XX9         0.0557
     44 H12        11.4713   19.4032  -18.7661 H         1 XX9         0.0599
     45 H13        13.8284   19.8040  -18.0958 H         1 XX9         0.0559
     46 H14        15.2989   17.9715  -17.2857 H         1 XX9         0.0599
     47 H15        14.3473   15.6082  -17.3251 H         1 XX9         0.0557
     48 H16        13.9071   15.5738  -20.2750 H         1 XX9         0.0619
     49 H17        12.6588   11.5481  -19.2867 H         1 XX9         0.0765
     50 H18        14.9264   10.7066  -19.9695 H         1 XX9         0.0612
     51 H19        17.4494   12.8934  -21.0839 H         1 XX9         0.2622
     52 H20        17.7798   15.3307  -22.7362 H         1 XX9         0.0112
     53 H21        16.1576   14.7056  -23.1883 H         1 XX9         0.0112
     54 H22        17.3768   13.6011  -22.4669 H         1 XX9         0.0112
     55 H23        15.6970   16.6469  -19.9489 H         1 XX9         0.0112
     56 H24        15.2786   16.6362  -21.6957 H         1 XX9         0.0112
     57 H25        16.9476   17.0478  -21.1745 H         1 XX9         0.0112
     58 H26        17.9934   13.8469  -20.0068 H         1 XX9         0.0112
     59 H27        17.2633   15.1727  -19.0394 H         1 XX9         0.0112
     60 H28        18.4261   15.5553  -20.3540 H         1 XX9         0.0112
@<TRIPOS>BOND
     1    1    2 1  
     2    2    3 ar 
     3    2   11 ar 
     4    3    4 ar 
     5    4    5 1  
     6    4    8 ar 
     7    5    6 1  
     8    5    7 1  
     9    8    9 ar 
    10    9   10 1  
    11    9   11 ar 
    12   11   12 1  
    13   12   13 2  
    14   12   14 am 
    15   14   15 1  
    16   14   22 1  
    17   15   16 1  
    18   16   17 ar 
    19   16   21 ar 
    20   17   18 ar 
    21   18   19 ar 
    22   19   20 ar 
    23   20   21 ar 
    24   22   23 ar 
    25   22   24 ar 
    26   23   28 ar 
    27   24   25 ar 
    28   25   26 ar 
    29   26   27 1  
    30   26   28 ar 
    31   28   29 1  
    32   29   30 1  
    33   29   31 1  
    34   29   32 1  
    35    3   33 1  
    36    6   34 1  
    37    6   35 1  
    38    6   36 1  
    39    7   37 1  
    40    7   38 1  
    41    7   39 1  
    42    8   40 1  
    43   15   41 1  
    44   15   42 1  
    45   17   43 1  
    46   18   44 1  
    47   19   45 1  
    48   20   46 1  
    49   21   47 1  
    50   23   48 1  
    51   24   49 1  
    52   25   50 1  
    53   27   51 1  
    54   30   52 1  
    55   30   53 1  
    56   30   54 1  
    57   31   55 1  
    58   31   56 1  
    59   31   57 1  
    60   32   58 1  
    61   32   59 1  
    62   32   60 1  
@<TRIPOS>SUBSTRUCTURE
     1 XX9         1

