### 
### Created by X-TOOL on Mon Sep 10 21:13:19 2018
### 

@<TRIPOS>MOLECULE
4ojq_ligand
   21    22     1     0     0
SMALL
GAST_HUCK


@<TRIPOS>ATOM
      1 O14       -16.0640  -32.0090   35.8060 O.co2     1 2SX        -0.5674
      2 C12       -16.7190  -31.0290   36.1060 C.2       1 2SX         0.0402
      3 O13       -17.0260  -30.8190   37.3950 O.co2     1 2SX        -0.5674
      4 C11       -17.2010  -30.0440   35.0540 C.3       1 2SX         0.0169
      5 C9        -17.8360  -30.7270   33.8640 C.2       1 2SX        -0.0322
      6 C5        -18.7830  -31.8340   33.9370 C.ar      1 2SX        -0.0167
      7 C4        -19.3290  -32.5310   35.0100 C.ar      1 2SX        -0.0643
      8 C1        -20.2050  -33.5600   34.7860 C.ar      1 2SX        -0.0048
      9 BR1       -20.8930  -34.4900   36.3000 Br        1 2SX        -0.0612
     10 C8        -17.6550  -30.4600   32.5560 C.2       1 2SX         0.0190
     11 N7        -18.4300  -31.3080   31.7910 N.pl3     1 2SX        -0.2874
     12 C6        -19.1250  -32.1690   32.6140 C.ar      1 2SX         0.0630
     13 C3        -20.0150  -33.2150   32.3970 C.ar      1 2SX        -0.0422
     14 C2        -20.5500  -33.8950   33.4740 C.ar      1 2SX        -0.0677
     15 H         -16.3412  -29.4540   34.7038 H         1 2SX         0.0513
     16 H         -17.9431  -29.3740   35.5127 H         1 2SX         0.0513
     17 H         -19.0609  -32.2595   36.0246 H         1 2SX         0.0576
     18 H         -16.9950  -29.6892   32.1608 H         1 2SX         0.0802
     19 H         -18.4814  -31.2991   30.7623 H         1 2SX         0.2224
     20 H         -20.2881  -33.4959   31.3863 H         1 2SX         0.0546
     21 H         -21.2504  -34.7034   33.2980 H         1 2SX         0.0550
@<TRIPOS>BOND
     1    1    2 ar 
     2    2    3 ar 
     3    2    4 1  
     4    4    5 1  
     5    5    6 1  
     6    5   10 2  
     7    6    7 ar 
     8    6   12 ar 
     9    7    8 ar 
    10    8    9 1  
    11    8   14 ar 
    12   10   11 1  
    13   11   12 1  
    14   12   13 ar 
    15   13   14 ar 
    16    4   15 1  
    17    4   16 1  
    18    7   17 1  
    19   10   18 1  
    20   11   19 1  
    21   13   20 1  
    22   14   21 1  
@<TRIPOS>SUBSTRUCTURE
     1 2SX         1

