### 
### Created by X-TOOL on Mon Sep 10 21:13:18 2018
### 

@<TRIPOS>MOLECULE
4ojr_ligand
   60    63     1     0     0
SMALL
GAST_HUCK


@<TRIPOS>ATOM
      1 C01       -44.3650  -15.5030   12.8130 C.3       1 2SQ        -0.0415
      2 C05       -43.5520  -15.1080   14.0530 C.ar      1 2SQ        -0.0607
      3 C06       -42.0740  -14.8510   13.9620 C.ar      1 2SQ        -0.0219
      4 C07       -41.4330  -15.0140   12.6110 C.3       1 2SQ        -0.0240
      5 C10       -39.9210  -14.9480   12.7330 C.3       1 2SQ        -0.0188
      6 C13       -39.5340  -13.8900   13.7330 C.3       1 2SQ         0.0675
      7 O16       -40.0380  -14.2480   15.0370 O.3       1 2SQ        -0.3284
      8 C17       -41.3770  -14.5100   15.0410 C.ar      1 2SQ         0.1112
      9 C18       -41.9950  -14.3730   16.2810 C.ar      1 2SQ         0.1373
     10 F19       -41.3240  -14.0020   17.4410 F         1 2SQ        -0.1997
     11 C20       -43.4340  -14.5760   16.5950 C.ar      1 2SQ        -0.0557
     12 C22       -44.2690  -14.9660   15.4000 C.ar      1 2SQ        -0.0618
     13 C23       -45.7340  -15.1820   15.6200 C.2       1 2SQ        -0.0040
     14 C24       -46.6180  -14.1790   15.5100 C.2       1 2SQ         0.1284
     15 C25       -46.1400  -12.7780   15.1350 C.3       1 2SQ         0.1832
     16 O27       -46.6380  -11.7950   16.0530 O.3       1 2SQ        -0.3363
     17 C28       -45.9900  -11.4760   17.3250 C.3       1 2SQ         0.0674
     18 C29       -44.4980  -11.2530   17.1950 C.3       1 2SQ        -0.0359
     19 C33       -46.2920  -12.6090   18.2780 C.3       1 2SQ        -0.0359
     20 C37       -46.6740  -10.2030   17.7690 C.3       1 2SQ        -0.0359
     21 C41       -46.5810  -12.3870   13.7370 C.2       1 2SQ         0.0850
     22 O42       -46.7850  -13.3550   12.8840 O.co2     1 2SQ        -0.5630
     23 O44       -46.7340  -11.1940   13.4570 O.co2     1 2SQ        -0.5630
     24 N45       -48.0120  -14.4120   15.7420 N.am      1 2SQ        -0.1978
     25 C46       -48.9960  -13.3290   15.6160 C.3       1 2SQ         0.0577
     26 C50       -48.5010  -15.6750   16.0860 C.2       1 2SQ         0.2308
     27 O51       -49.6930  -15.8400   16.2640 O.2       1 2SQ        -0.3906
     28 C52       -47.5130  -16.7700   16.2040 C.ar      1 2SQ         0.0457
     29 C53       -47.9400  -18.0530   16.5430 C.ar      1 2SQ        -0.0545
     30 C55       -47.0250  -19.0860   16.6610 C.ar      1 2SQ        -0.0681
     31 C57       -45.6850  -18.8600   16.4380 C.ar      1 2SQ        -0.0701
     32 C59       -45.2400  -17.5940   16.0980 C.ar      1 2SQ        -0.0664
     33 C61       -46.1470  -16.5350   15.9840 C.ar      1 2SQ        -0.0325
     34 H         -43.6982  -15.5588   11.9399 H         1 2SQ         0.0353
     35 H         -45.1453  -14.7494   12.6308 H         1 2SQ         0.0353
     36 H         -44.8342  -16.4839   12.9793 H         1 2SQ         0.0353
     37 H         -41.7787  -14.2089   11.9459 H         1 2SQ         0.0385
     38 H         -41.7206  -15.9879   12.1881 H         1 2SQ         0.0385
     39 H         -39.4863  -14.7005   11.7533 H         1 2SQ         0.0308
     40 H         -39.5390  -15.9237   13.0678 H         1 2SQ         0.0308
     41 H         -39.9622  -12.9238   13.4278 H         1 2SQ         0.0608
     42 H         -38.4378  -13.8087   13.7741 H         1 2SQ         0.0608
     43 H         -43.8454  -14.4550   17.5906 H         1 2SQ         0.0417
     44 H         -45.0406  -12.7717   15.1718 H         1 2SQ         0.1032
     45 H         -44.0749  -11.0184   18.1829 H         1 2SQ         0.0257
     46 H         -44.3110  -10.4148   16.5077 H         1 2SQ         0.0257
     47 H         -44.0241  -12.1638   16.8001 H         1 2SQ         0.0257
     48 H         -45.8199  -12.4058   19.2505 H         1 2SQ         0.0257
     49 H         -45.8954  -13.5492   17.8673 H         1 2SQ         0.0257
     50 H         -47.3805  -12.6968   18.4101 H         1 2SQ         0.0257
     51 H         -46.2515   -9.8759   18.7305 H         1 2SQ         0.0257
     52 H         -47.7520  -10.3876   17.8861 H         1 2SQ         0.0257
     53 H         -46.5161   -9.4192   17.0136 H         1 2SQ         0.0257
     54 H         -48.4813  -12.3959   15.3434 H         1 2SQ         0.0594
     55 H         -49.5170  -13.1935   16.5752 H         1 2SQ         0.0594
     56 H         -49.7266  -13.5864   14.8350 H         1 2SQ         0.0594
     57 H         -48.9932  -18.2431   16.7151 H         1 2SQ         0.0635
     58 H         -47.3659  -20.0790   16.9307 H         1 2SQ         0.0532
     59 H         -44.9768  -19.6756   16.5289 H         1 2SQ         0.0616
     60 H         -44.1846  -17.4226   15.9194 H         1 2SQ         0.0531
@<TRIPOS>BOND
     1    1    2 1  
     2    2    3 ar 
     3    2   12 ar 
     4    3    4 1  
     5    3    8 ar 
     6    4    5 1  
     7    5    6 1  
     8    6    7 1  
     9    7    8 1  
    10    8    9 ar 
    11    9   10 1  
    12    9   11 ar 
    13   11   12 ar 
    14   12   13 1  
    15   13   14 2  
    16   13   33 1  
    17   14   15 1  
    18   14   24 1  
    19   15   16 1  
    20   15   21 1  
    21   16   17 1  
    22   17   18 1  
    23   17   19 1  
    24   17   20 1  
    25   21   22 ar 
    26   21   23 ar 
    27   24   25 1  
    28   24   26 am 
    29   26   27 2  
    30   26   28 1  
    31   28   29 ar 
    32   28   33 ar 
    33   29   30 ar 
    34   30   31 ar 
    35   31   32 ar 
    36   32   33 ar 
    37    1   34 1  
    38    1   35 1  
    39    1   36 1  
    40    4   37 1  
    41    4   38 1  
    42    5   39 1  
    43    5   40 1  
    44    6   41 1  
    45    6   42 1  
    46   11   43 1  
    47   15   44 1  
    48   18   45 1  
    49   18   46 1  
    50   18   47 1  
    51   19   48 1  
    52   19   49 1  
    53   19   50 1  
    54   20   51 1  
    55   20   52 1  
    56   20   53 1  
    57   25   54 1  
    58   25   55 1  
    59   25   56 1  
    60   29   57 1  
    61   30   58 1  
    62   31   59 1  
    63   32   60 1  
@<TRIPOS>SUBSTRUCTURE
     1 2SQ         1

