### 
### Created by X-TOOL on Mon Sep 10 21:13:20 2018
### 

@<TRIPOS>MOLECULE
4ok3_ligand
   34    36     1     0     0
SMALL
GAST_HUCK


@<TRIPOS>ATOM
      1 CL2       -21.6260  -28.6710   27.9160 Cl        1 2SY        -0.0725
      2 C16       -20.2660  -29.7910   28.0040 C.ar      1 2SY         0.0339
      3 C13       -20.1830  -30.7040   29.0490 C.ar      1 2SY        -0.0440
      4 C20       -19.2630  -29.7750   27.0380 C.ar      1 2SY        -0.0548
      5 C17       -18.2040  -30.6600   27.1160 C.ar      1 2SY        -0.0680
      6 C14       -18.1220  -31.5630   28.1630 C.ar      1 2SY        -0.0577
      7 C10       -19.1170  -31.5820   29.1350 C.ar      1 2SY        -0.0142
      8 C6        -19.0540  -32.5920   30.2540 C.3       1 2SY         0.0824
      9 N2        -18.9160  -32.1020   31.6380 N.pl3     1 2SY        -0.2632
     10 C5        -18.0450  -31.1510   32.1240 C.2       1 2SY         0.0232
     11 C7        -18.2110  -31.0340   33.4570 C.2       1 2SY        -0.0331
     12 C11       -17.5120  -30.0900   34.3950 C.3       1 2SY         0.0166
     13 C15       -16.7390  -30.8340   35.4540 C.2       1 2SY         0.0401
     14 O19       -15.9700  -31.7110   35.1210 O.co2     1 2SY        -0.5674
     15 O18       -16.8900  -30.5110   36.7580 O.co2     1 2SY        -0.5674
     16 C3        -19.2380  -32.0010   33.8550 C.ar      1 2SY        -0.0197
     17 C1        -19.6340  -32.6510   32.6810 C.ar      1 2SY         0.0648
     18 C8        -19.8250  -32.3460   35.0770 C.ar      1 2SY        -0.0746
     19 C12       -20.7780  -33.3200   35.1190 C.ar      1 2SY        -0.0792
     20 C9        -21.1800  -33.9720   33.9530 C.ar      1 2SY        -0.0767
     21 C4        -20.6080  -33.6370   32.7430 C.ar      1 2SY        -0.0440
     22 H         -20.9608  -30.7283   29.8037 H         1 2SY         0.0563
     23 H         -19.3130  -29.0648   26.2206 H         1 2SY         0.0565
     24 H         -17.4335  -30.6472   26.3536 H         1 2SY         0.0599
     25 H         -17.2869  -32.2513   28.2247 H         1 2SY         0.0559
     26 H         -18.1920  -33.2452   30.0535 H         1 2SY         0.0760
     27 H         -19.9804  -33.1835   30.2100 H         1 2SY         0.0760
     28 H         -17.3342  -30.5831   31.5254 H         1 2SY         0.0804
     29 H         -18.2622  -29.4506   34.8832 H         1 2SY         0.0512
     30 H         -16.8157  -29.4635   33.8183 H         1 2SY         0.0512
     31 H         -19.5232  -31.8407   35.9873 H         1 2SY         0.0540
     32 H         -21.2277  -33.5904   36.0675 H         1 2SY         0.0510
     33 H         -21.9418  -34.7419   33.9977 H         1 2SY         0.0530
     34 H         -20.9205  -34.1456   31.8382 H         1 2SY         0.0542
@<TRIPOS>BOND
     1    1    2 1  
     2    2    3 ar 
     3    2    4 ar 
     4    3    7 ar 
     5    4    5 ar 
     6    5    6 ar 
     7    6    7 ar 
     8    7    8 1  
     9    8    9 1  
    10    9   10 1  
    11    9   17 1  
    12   10   11 2  
    13   11   12 1  
    14   11   16 1  
    15   12   13 1  
    16   13   14 ar 
    17   13   15 ar 
    18   16   17 ar 
    19   16   18 ar 
    20   17   21 ar 
    21   18   19 ar 
    22   19   20 ar 
    23   20   21 ar 
    24    3   22 1  
    25    4   23 1  
    26    5   24 1  
    27    6   25 1  
    28    8   26 1  
    29    8   27 1  
    30   10   28 1  
    31   12   29 1  
    32   12   30 1  
    33   18   31 1  
    34   19   32 1  
    35   20   33 1  
    36   21   34 1  
@<TRIPOS>SUBSTRUCTURE
     1 2SY         1

