### 
### Created by X-TOOL on Mon Sep 10 21:13:19 2018
### 

@<TRIPOS>MOLECULE
4ok5_ligand
   36    38     1     0     0
SMALL
GAST_HUCK


@<TRIPOS>ATOM
      1 O3        -16.9170  -30.5230   36.6120 O.co2     1 2T2        -0.5674
      2 C2        -16.8000  -30.8670   35.4620 C.2       1 2T2         0.0401
      3 O1        -16.0540  -31.9270   35.1630 O.co2     1 2T2        -0.5674
      4 C4        -17.5110  -30.1330   34.3530 C.3       1 2T2         0.0166
      5 C5        -18.2840  -31.1360   33.5390 C.2       1 2T2        -0.0331
      6 C22       -19.2790  -32.0960   34.0390 C.ar      1 2T2        -0.0197
      7 C21       -19.8040  -32.4020   35.2960 C.ar      1 2T2        -0.0746
      8 C20       -20.7480  -33.3810   35.4310 C.ar      1 2T2        -0.0792
      9 C19       -21.2000  -34.0850   34.3140 C.ar      1 2T2        -0.0767
     10 C18       -20.6850  -33.7950   33.0640 C.ar      1 2T2        -0.0440
     11 C17       -19.7270  -32.8050   32.9180 C.ar      1 2T2         0.0648
     12 N7        -19.0550  -32.3080   31.8210 N.pl3     1 2T2        -0.2632
     13 C6        -18.1970  -31.3120   32.2140 C.2       1 2T2         0.0232
     14 C8        -19.2600  -32.8330   30.4620 C.3       1 2T2         0.0824
     15 C9        -19.2040  -31.8390   29.3310 C.ar      1 2T2        -0.0136
     16 C14       -20.2410  -30.9230   29.1220 C.ar      1 2T2        -0.0427
     17 C13       -20.1690  -30.0410   28.0340 C.ar      1 2T2         0.0180
     18 C15       -21.2260  -29.0870   27.8360 C.1       1 2T2        -0.0715
     19 C16       -22.0800  -28.3150   27.5500 C.1       1 2T2        -0.1139
     20 C12       -19.0710  -30.0810   27.1790 C.ar      1 2T2        -0.0532
     21 C11       -18.0870  -30.9920   27.3810 C.ar      1 2T2        -0.0671
     22 C10       -18.1290  -31.8790   28.4390 C.ar      1 2T2        -0.0576
     23 H         -16.7754  -29.6233   33.7134 H         1 2T2         0.0512
     24 H         -18.2011  -29.3911   34.7812 H         1 2T2         0.0512
     25 H         -19.4609  -31.8600   36.1698 H         1 2T2         0.0540
     26 H         -21.1481  -33.6121   36.4116 H         1 2T2         0.0510
     27 H         -21.9527  -34.8570   34.4260 H         1 2T2         0.0530
     28 H         -21.0318  -34.3438   32.1959 H         1 2T2         0.0542
     29 H         -17.5437  -30.7493   31.5488 H         1 2T2         0.0804
     30 H         -20.2508  -33.3101   30.4361 H         1 2T2         0.0760
     31 H         -18.4835  -33.5900   30.2776 H         1 2T2         0.0760
     32 H         -21.0911  -30.8954   29.7940 H         1 2T2         0.0567
     33 H         -22.8403  -27.6277   27.2954 H         1 2T2         0.1232
     34 H         -19.0026  -29.3839   26.3517 H         1 2T2         0.0572
     35 H         -17.2476  -31.0249   26.6959 H         1 2T2         0.0600
     36 H         -17.3329  -32.6018   28.5766 H         1 2T2         0.0559
@<TRIPOS>BOND
     1    1    2 ar 
     2    2    3 ar 
     3    2    4 1  
     4    4    5 1  
     5    5    6 1  
     6    5   13 2  
     7    6    7 ar 
     8    6   11 ar 
     9    7    8 ar 
    10    8    9 ar 
    11    9   10 ar 
    12   10   11 ar 
    13   11   12 1  
    14   12   13 1  
    15   12   14 1  
    16   14   15 1  
    17   15   16 ar 
    18   15   22 ar 
    19   16   17 ar 
    20   17   18 1  
    21   17   20 ar 
    22   18   19 3  
    23   20   21 ar 
    24   21   22 ar 
    25    4   23 1  
    26    4   24 1  
    27    7   25 1  
    28    8   26 1  
    29    9   27 1  
    30   10   28 1  
    31   13   29 1  
    32   14   30 1  
    33   14   31 1  
    34   16   32 1  
    35   19   33 1  
    36   20   34 1  
    37   21   35 1  
    38   22   36 1  
@<TRIPOS>SUBSTRUCTURE
     1 2T2         1

