### 
### Created by X-TOOL on Mon Sep 10 21:13:20 2018
### 

@<TRIPOS>MOLECULE
4ok6_ligand
   40    42     1     0     0
SMALL
GAST_HUCK


@<TRIPOS>ATOM
      1 O25       -19.6760  -29.7790   26.4920 O.2       1 2T7         0.1731
      2 N23       -18.6300  -29.8240   27.1210 N.2       1 2T7         0.3045
      3 O24       -17.8400  -28.8790   27.0610 O.2       1 2T7         0.1731
      4 C20       -18.3370  -31.0240   27.9540 C.ar      1 2T7         0.1816
      5 C21       -17.1650  -31.7470   27.7850 C.ar      1 2T7        -0.0339
      6 C18       -16.8980  -32.8570   28.5750 C.ar      1 2T7        -0.0301
      7 C16       -17.8240  -33.2260   29.5440 C.ar      1 2T7         0.1022
      8 O19       -17.6010  -34.2990   30.3500 O.3       1 2T7        -0.3203
      9 C22       -16.2320  -34.6410   30.5700 C.3       1 2T7         0.0594
     10 C17       -19.2480  -31.3990   28.9280 C.ar      1 2T7        -0.0232
     11 C15       -18.9860  -32.4960   29.7180 C.ar      1 2T7         0.0235
     12 C3        -19.9560  -32.9460   30.7730 C.3       1 2T7         0.0819
     13 N2        -19.5060  -32.5230   32.1000 N.pl3     1 2T7        -0.2647
     14 C10       -19.9320  -33.1150   33.2570 C.ar      1 2T7         0.0646
     15 C5        -20.7820  -34.1790   33.5180 C.ar      1 2T7        -0.0440
     16 C4        -21.0110  -34.5630   34.8220 C.ar      1 2T7        -0.0767
     17 C9        -19.3090  -32.4410   34.3230 C.ar      1 2T7        -0.0197
     18 C6        -19.5500  -32.8450   35.6360 C.ar      1 2T7        -0.0746
     19 C1        -20.3890  -33.8970   35.8710 C.ar      1 2T7        -0.0792
     20 C8        -18.4800  -31.3950   33.7210 C.2       1 2T7        -0.0331
     21 C7        -18.6470  -31.4870   32.3870 C.2       1 2T7         0.0230
     22 C11       -17.6360  -30.4040   34.4810 C.3       1 2T7         0.0166
     23 C12       -16.8320  -31.1060   35.5480 C.2       1 2T7         0.0401
     24 O13       -16.8630  -30.6270   36.8000 O.co2     1 2T7        -0.5674
     25 O14       -16.1850  -32.1010   35.2710 O.co2     1 2T7        -0.5674
     26 H         -16.4507  -31.4422   27.0287 H         1 2T7         0.0611
     27 H         -15.9849  -33.4251   28.4388 H         1 2T7         0.0541
     28 H         -16.1749  -35.5176   31.2320 H         1 2T7         0.0578
     29 H         -15.7130  -33.7925   31.0396 H         1 2T7         0.0578
     30 H         -15.7537  -34.8764   29.6078 H         1 2T7         0.0578
     31 H         -20.1615  -30.8323   29.0674 H         1 2T7         0.0599
     32 H         -20.0323  -34.0431   30.7498 H         1 2T7         0.0737
     33 H         -20.9429  -32.5054   30.5684 H         1 2T7         0.0737
     34 H         -21.2634  -34.7055   32.7018 H         1 2T7         0.0542
     35 H         -21.6805  -35.3897   35.0304 H         1 2T7         0.0530
     36 H         -19.0757  -32.3287   36.4627 H         1 2T7         0.0540
     37 H         -20.5722  -34.2169   36.8904 H         1 2T7         0.0510
     38 H         -18.1745  -30.8404   31.6490 H         1 2T7         0.0804
     39 H         -18.2911  -29.6573   34.9535 H         1 2T7         0.0512
     40 H         -16.9506  -29.9012   33.7829 H         1 2T7         0.0512
@<TRIPOS>BOND
     1    1    2 2  
     2    2    3 2  
     3    2    4 1  
     4    4    5 ar 
     5    4   10 ar 
     6    5    6 ar 
     7    6    7 ar 
     8    7    8 1  
     9    7   11 ar 
    10    8    9 1  
    11   10   11 ar 
    12   11   12 1  
    13   12   13 1  
    14   13   14 1  
    15   13   21 1  
    16   14   15 ar 
    17   14   17 ar 
    18   15   16 ar 
    19   16   19 ar 
    20   17   18 ar 
    21   17   20 1  
    22   18   19 ar 
    23   20   21 2  
    24   20   22 1  
    25   22   23 1  
    26   23   24 ar 
    27   23   25 ar 
    28    5   26 1  
    29    6   27 1  
    30    9   28 1  
    31    9   29 1  
    32    9   30 1  
    33   10   31 1  
    34   12   32 1  
    35   12   33 1  
    36   15   34 1  
    37   16   35 1  
    38   18   36 1  
    39   19   37 1  
    40   21   38 1  
    41   22   39 1  
    42   22   40 1  
@<TRIPOS>SUBSTRUCTURE
     1 2T7         1

