### 
### Created by X-TOOL on Mon Sep 10 21:13:17 2018
### 

@<TRIPOS>MOLECULE
4okg_ligand
   72    77     1     0     0
SMALL
GAST_HUCK


@<TRIPOS>ATOM
      1 C1         -5.1200    6.5220   30.9160 C.3       1 2SZ        -0.0427
      2 N2         -4.8000    7.8910   30.4870 N.4       1 2SZ         0.2405
      3 C3         -4.7070    8.0160   29.0160 C.3       1 2SZ         0.0092
      4 C4         -4.4910    9.4990   28.6570 C.3       1 2SZ         0.0111
      5 N5         -3.3150   10.0450   29.3740 N.4       1 2SZ         0.2568
      6 C6         -3.4230    9.8980   30.8470 C.3       1 2SZ         0.0111
      7 C7         -3.6130    8.4130   31.2090 C.3       1 2SZ         0.0092
      8 C8         -3.0170   11.4410   29.0010 C.3       1 2SZ         0.0180
      9 C9         -1.9760   11.5180   27.8990 C.ar      1 2SZ         0.0728
     10 C10        -2.2950   11.1710   26.5820 C.ar      1 2SZ        -0.0262
     11 C11        -1.3230   11.3220   25.5830 C.ar      1 2SZ        -0.0334
     12 C12        -0.0570   11.8020   25.9250 C.ar      1 2SZ         0.0456
     13 C13         0.1870   12.1300   27.2670 C.ar      1 2SZ         0.0188
     14 N14        -0.7650   11.9700   28.1870 N.ar      1 2SZ        -0.2910
     15 C15         0.9820   11.8940   24.9500 C.1       1 2SZ        -0.0582
     16 C16         1.8310   11.9700   24.1400 C.1       1 2SZ        -0.0616
     17 C17         2.8510   12.0590   23.1390 C.ar      1 2SZ         0.0247
     18 C18         4.1860   12.3100   23.5280 C.ar      1 2SZ        -0.0463
     19 C19         5.1820   12.3950   22.5690 C.ar      1 2SZ        -0.0532
     20 C20         4.8920   12.1190   21.2140 C.ar      1 2SZ        -0.0115
     21 C21         3.5660   11.7980   20.8410 C.ar      1 2SZ        -0.0532
     22 C22         2.5500   11.7600   21.7880 C.ar      1 2SZ        -0.0463
     23 C23         5.9670   12.2090   20.1790 C.ar      1 2SZ         0.0489
     24 C24         5.7270   13.0360   19.0740 C.ar      1 2SZ        -0.0208
     25 C25         6.7060   13.2020   18.0720 C.ar      1 2SZ         0.0700
     26 C26         7.8810   12.4430   18.1550 C.ar      1 2SZ         0.0228
     27 N27         8.1120   11.6930   19.2260 N.ar      1 2SZ        -0.2624
     28 C28         7.2100   11.5080   20.2080 C.ar      1 2SZ         0.1838
     29 N29         7.5100   10.5200   21.1680 N.pl3     1 2SZ        -0.1734
     30 C30         6.7070    9.4660   21.4560 C.2       1 2SZ         0.1265
     31 N31         7.2570    8.6820   22.3380 N.2       1 2SZ        -0.2999
     32 C32         8.4990    9.1540   22.6360 C.ar      1 2SZ         0.0395
     33 C33         8.6810   10.3390   21.8870 C.ar      1 2SZ         0.1066
     34 C34         9.8820   11.0420   21.9750 C.ar      1 2SZ        -0.0347
     35 C35        10.8850   10.6020   22.8280 C.ar      1 2SZ        -0.0728
     36 C36        10.7000    9.4440   23.5830 C.ar      1 2SZ        -0.0748
     37 C37         9.5240    8.7130   23.4860 C.ar      1 2SZ        -0.0595
     38 C38         6.3480   13.9050   16.8220 C.2       1 2SZ         0.2291
     39 O39         5.2230   13.7190   16.3650 O.2       1 2SZ        -0.3858
     40 N40         7.2170   14.5950   16.0600 N.am      1 2SZ        -0.1635
     41 O41         6.7110   15.0860   14.8240 O.3       1 2SZ        -0.2720
     42 H          -6.0017    6.1620   30.3656 H         1 2SZ         0.0778
     43 H          -5.3339    6.5164   31.9950 H         1 2SZ         0.0778
     44 H          -4.2640    5.8631   30.7084 H         1 2SZ         0.0778
     45 H          -5.5774    8.4686   30.7665 H         1 2SZ         0.2035
     46 H          -5.6383    7.6557   28.5546 H         1 2SZ         0.0868
     47 H          -3.8600    7.4190   28.6469 H         1 2SZ         0.0868
     48 H          -5.3854   10.0732   28.9404 H         1 2SZ         0.0868
     49 H          -4.3264    9.5880   27.5730 H         1 2SZ         0.0868
     50 H          -2.5233    9.4922   29.0845 H         1 2SZ         0.2055
     51 H          -4.2859   10.4758   31.2097 H         1 2SZ         0.0868
     52 H          -2.5043   10.2748   31.3202 H         1 2SZ         0.0868
     53 H          -2.7201    7.8433   30.9122 H         1 2SZ         0.0868
     54 H          -3.7673    8.3141   32.2936 H         1 2SZ         0.0868
     55 H          -2.6390   11.9735   29.8862 H         1 2SZ         0.1012
     56 H          -3.9425   11.9218   28.6512 H         1 2SZ         0.1012
     57 H          -3.2801   10.7906   26.3372 H         1 2SZ         0.0652
     58 H          -1.5521   11.0684   24.5543 H         1 2SZ         0.0729
     59 H           1.1569   12.5165   27.5584 H         1 2SZ         0.0817
     60 H           4.4307   12.4360   24.5765 H         1 2SZ         0.0628
     61 H           6.1883   12.6745   22.8594 H         1 2SZ         0.0619
     62 H           3.3397   11.5790   19.8038 H         1 2SZ         0.0619
     63 H           1.5379   11.5042   21.4958 H         1 2SZ         0.0628
     64 H           4.7787   13.5540   18.9880 H         1 2SZ         0.0764
     65 H           8.6011   12.4682   17.3451 H         1 2SZ         0.0847
     66 H           5.7290    9.2972   21.0077 H         1 2SZ         0.1383
     67 H          10.0327   11.9332   21.3766 H         1 2SZ         0.0563
     68 H          11.8119   11.1584   22.9073 H         1 2SZ         0.0549
     69 H          11.4839    9.1109   24.2535 H         1 2SZ         0.0531
     70 H           9.3982    7.8051   24.0647 H         1 2SZ         0.0561
     71 H           8.1622   14.7532   16.3456 H         1 2SZ         0.2212
     72 H           6.4149   14.3566   14.2922 H         1 2SZ         0.2491
@<TRIPOS>BOND
     1    1    2 1  
     2    2    3 1  
     3    2    7 1  
     4    3    4 1  
     5    4    5 1  
     6    5    6 1  
     7    5    8 1  
     8    6    7 1  
     9    8    9 1  
    10    9   10 ar 
    11    9   14 ar 
    12   10   11 ar 
    13   11   12 ar 
    14   12   13 ar 
    15   12   15 1  
    16   13   14 ar 
    17   15   16 3  
    18   16   17 1  
    19   17   18 ar 
    20   17   22 ar 
    21   18   19 ar 
    22   19   20 ar 
    23   20   21 ar 
    24   20   23 1  
    25   21   22 ar 
    26   23   24 ar 
    27   23   28 ar 
    28   24   25 ar 
    29   25   26 ar 
    30   25   38 1  
    31   26   27 ar 
    32   27   28 ar 
    33   28   29 1  
    34   29   30 1  
    35   29   33 1  
    36   30   31 2  
    37   31   32 1  
    38   32   33 ar 
    39   32   37 ar 
    40   33   34 ar 
    41   34   35 ar 
    42   35   36 ar 
    43   36   37 ar 
    44   38   39 2  
    45   38   40 am 
    46   40   41 1  
    47    1   42 1  
    48    1   43 1  
    49    1   44 1  
    50    2   45 1  
    51    3   46 1  
    52    3   47 1  
    53    4   48 1  
    54    4   49 1  
    55    5   50 1  
    56    6   51 1  
    57    6   52 1  
    58    7   53 1  
    59    7   54 1  
    60    8   55 1  
    61    8   56 1  
    62   10   57 1  
    63   11   58 1  
    64   13   59 1  
    65   18   60 1  
    66   19   61 1  
    67   21   62 1  
    68   22   63 1  
    69   24   64 1  
    70   26   65 1  
    71   30   66 1  
    72   34   67 1  
    73   35   68 1  
    74   36   69 1  
    75   37   70 1  
    76   40   71 1  
    77   41   72 1  
@<TRIPOS>SUBSTRUCTURE
     1 2SZ         1

