### 
### Created by X-TOOL on Mon Sep 10 21:13:16 2018
### 

@<TRIPOS>MOLECULE
4okp_ligand
   24    24     1     0     0
SMALL
GAST_HUCK


@<TRIPOS>ATOM
      1 O          63.0310    6.1080   48.1280 O.co2     1 2V0        -0.5642
      2 C          64.1420    6.5290   48.5260 C.2       1 2V0         0.0866
      3 OXT        65.0180    5.8460   49.0970 O.co2     1 2V0        -0.5642
      4 CA         64.4480    8.0220   48.3490 C.3       1 2V0         0.0528
      5 N          65.7570    8.3050   48.9530 N.4       1 2V0         0.2343
      6 CB         64.4460    8.4600   46.8690 C.3       1 2V0         0.1251
      7 NAH        65.4620    7.6130   46.1940 N.2       1 2V0        -0.2967
      8 SAI        64.7360   10.1310   46.3670 S.3       1 2V0        -0.1218
      9 CAG        64.5280    9.8200   44.5710 C.3       1 2V0         0.0355
     10 CAJ        65.4520    8.8820   44.1520 C.2       1 2V0         0.0094
     11 CAA        65.9270    8.9890   42.8530 C.2       1 2V0        -0.0824
     12 CAM        65.7610    7.7310   44.8910 C.2       1 2V0         0.0935
     13 CAK        66.7140    6.8500   44.3910 C.2       1 2V0         0.1013
     14 OAE        66.3710    5.7030   44.0290 O.co2     1 2V0        -0.5500
     15 OAC        67.9210    7.1740   44.3750 O.co2     1 2V0        -0.5500
     16 H          63.6766    8.6003   48.8787 H         1 2V0         0.1046
     17 H          65.7508    8.0165   49.9188 H         1 2V0         0.2011
     18 H          65.9453    9.2938   48.8989 H         1 2V0         0.2011
     19 H          66.4730    7.7989   48.4558 H         1 2V0         0.2011
     20 H          63.4495    8.2030   46.4804 H         1 2V0         0.0639
     21 H          64.6817   10.7578   44.0170 H         1 2V0         0.0541
     22 H          63.5122    9.4436   44.3800 H         1 2V0         0.0541
     23 H          66.6564    8.2720   42.4792 H         1 2V0         0.0555
     24 H          65.5705    9.7900   42.2071 H         1 2V0         0.0555
@<TRIPOS>BOND
     1    1    2 ar 
     2    2    3 ar 
     3    2    4 1  
     4    4    5 1  
     5    4    6 1  
     6    6    7 1  
     7    6    8 1  
     8    7   12 2  
     9    8    9 1  
    10    9   10 1  
    11   10   11 2  
    12   10   12 1  
    13   12   13 1  
    14   13   14 ar 
    15   13   15 ar 
    16    4   16 1  
    17    5   17 1  
    18    5   18 1  
    19    5   19 1  
    20    6   20 1  
    21    9   21 1  
    22    9   22 1  
    23   11   23 1  
    24   11   24 1  
@<TRIPOS>SUBSTRUCTURE
     1 2V0         1

