### 
### Created by X-TOOL on Mon Sep 10 21:13:19 2018
### 

@<TRIPOS>MOLECULE
4oks_ligand
   54    57     1     0     0
SMALL
GAST_HUCK


@<TRIPOS>ATOM
      1 O33       -21.0670  -29.3550   27.7410 O.2       1 2T9         0.1731
      2 N31       -19.9750  -29.6700   27.2610 N.2       1 2T9         0.3045
      3 O32       -19.5340  -29.1050   26.2640 O.2       1 2T9         0.1731
      4 C6        -19.1880  -30.7370   27.9200 C.ar      1 2T9         0.1816
      5 C5        -17.9230  -31.0760   27.4650 C.ar      1 2T9        -0.0339
      6 C4        -17.2100  -32.0750   28.1120 C.ar      1 2T9        -0.0301
      7 C7        -19.7420  -31.3810   29.0130 C.ar      1 2T9        -0.0232
      8 C8        -19.0270  -32.3690   29.6610 C.ar      1 2T9         0.0235
      9 C3        -17.7630  -32.7250   29.2110 C.ar      1 2T9         0.1022
     10 O2        -17.0720  -33.7130   29.8490 O.3       1 2T9        -0.3203
     11 C1        -15.8620  -34.1440   29.2210 C.3       1 2T9         0.0594
     12 C9        -19.6450  -33.0800   30.8300 C.3       1 2T9         0.0821
     13 N10       -19.2740  -32.5490   32.1480 N.pl3     1 2T9        -0.2638
     14 C22       -19.7500  -33.1260   33.2940 C.ar      1 2T9         0.0660
     15 C17       -19.2340  -32.4030   34.3880 C.ar      1 2T9        -0.0187
     16 C12       -18.4250  -31.3340   33.8040 C.2       1 2T9        -0.0318
     17 C13       -17.6630  -30.2900   34.5960 C.3       1 2T9         0.0170
     18 C14       -16.8270  -30.9830   35.6560 C.2       1 2T9         0.0402
     19 O16       -15.9530  -31.9360   35.2960 O.co2     1 2T9        -0.5674
     20 O15       -16.9490  -30.7150   36.8280 O.co2     1 2T9        -0.5674
     21 C11       -18.5030  -31.4680   32.4590 C.2       1 2T9         0.0242
     22 C21       -20.5540  -34.2380   33.4960 C.ar      1 2T9        -0.0361
     23 C20       -20.8630  -34.6290   34.7980 C.ar      1 2T9        -0.0386
     24 C19       -20.3410  -33.9020   35.8820 C.ar      1 2T9        -0.0714
     25 C18       -19.5330  -32.8030   35.6930 C.ar      1 2T9        -0.0734
     26 C23       -21.7280  -35.8280   35.0130 C.ar      1 2T9        -0.0484
     27 C30       -21.5580  -36.6500   36.1350 C.ar      1 2T9        -0.0527
     28 C28       -22.3740  -37.7700   36.3280 C.ar      1 2T9         0.0222
     29 N29       -22.2150  -38.5920   37.4560 N.pl3     1 2T9        -0.3398
     30 C27       -23.3490  -38.0800   35.3900 C.ar      1 2T9        -0.0297
     31 C25       -23.5110  -37.2750   34.2650 C.ar      1 2T9         0.0222
     32 N26       -24.4980  -37.5840   33.3300 N.pl3     1 2T9        -0.3398
     33 C24       -22.7050  -36.1580   34.0710 C.ar      1 2T9        -0.0527
     34 H         -17.4945  -30.5647   26.6106 H         1 2T9         0.0611
     35 H         -16.2217  -32.3493   27.7612 H         1 2T9         0.0541
     36 H         -20.7332  -31.1108   29.3589 H         1 2T9         0.0599
     37 H         -15.3982  -34.9379   29.8248 H         1 2T9         0.0578
     38 H         -15.1688  -33.2939   29.1383 H         1 2T9         0.0578
     39 H         -16.0881  -34.5319   28.2168 H         1 2T9         0.0578
     40 H         -19.3373  -34.1353   30.7887 H         1 2T9         0.0737
     41 H         -20.7384  -33.0127   30.7308 H         1 2T9         0.0737
     42 H         -18.3735  -29.6027   35.0785 H         1 2T9         0.0513
     43 H         -17.0053  -29.7230   33.9208 H         1 2T9         0.0513
     44 H         -18.0226  -30.8117   31.7349 H         1 2T9         0.0814
     45 H         -20.9380  -34.7971   32.6505 H         1 2T9         0.0552
     46 H         -20.5805  -34.2143   36.8920 H         1 2T9         0.0519
     47 H         -19.1359  -32.2578   36.5417 H         1 2T9         0.0543
     48 H         -20.7871  -36.4160   36.8602 H         1 2T9         0.0402
     49 H         -22.8232  -39.4132   37.5846 H         1 2T9         0.1715
     50 H         -21.4902  -38.3735   38.1544 H         1 2T9         0.1715
     51 H         -23.9834  -38.9473   35.5328 H         1 2T9         0.0403
     52 H         -24.6214  -36.9915   32.4965 H         1 2T9         0.1715
     53 H         -25.1037  -38.4047   33.4727 H         1 2T9         0.1715
     54 H         -22.8353  -35.5431   33.1879 H         1 2T9         0.0402
@<TRIPOS>BOND
     1    1    2 2  
     2    2    3 2  
     3    2    4 1  
     4    4    5 ar 
     5    4    7 ar 
     6    5    6 ar 
     7    6    9 ar 
     8    7    8 ar 
     9    8    9 ar 
    10    8   12 1  
    11    9   10 1  
    12   10   11 1  
    13   12   13 1  
    14   13   14 1  
    15   13   21 1  
    16   14   15 ar 
    17   14   22 ar 
    18   15   16 1  
    19   15   25 ar 
    20   16   17 1  
    21   16   21 2  
    22   17   18 1  
    23   18   19 ar 
    24   18   20 ar 
    25   22   23 ar 
    26   23   24 ar 
    27   23   26 1  
    28   24   25 ar 
    29   26   27 ar 
    30   26   33 ar 
    31   27   28 ar 
    32   28   29 1  
    33   28   30 ar 
    34   30   31 ar 
    35   31   32 1  
    36   31   33 ar 
    37    5   34 1  
    38    6   35 1  
    39    7   36 1  
    40   11   37 1  
    41   11   38 1  
    42   11   39 1  
    43   12   40 1  
    44   12   41 1  
    45   17   42 1  
    46   17   43 1  
    47   21   44 1  
    48   22   45 1  
    49   24   46 1  
    50   25   47 1  
    51   27   48 1  
    52   29   49 1  
    53   29   50 1  
    54   30   51 1  
    55   32   52 1  
    56   32   53 1  
    57   33   54 1  
@<TRIPOS>SUBSTRUCTURE
     1 2T9         1

