### 
### Created by X-TOOL on Mon Sep 10 21:13:19 2018
### 

@<TRIPOS>MOLECULE
4olc_ligand
   19    18     1     0     0
SMALL
GAST_HUCK


@<TRIPOS>ATOM
      1 C5         63.5900   63.4090   61.1340 C.3       1 DCD        -0.0423
      2 C3         62.2220   63.5940   61.7590 C.3       1 DCD         0.0380
      3 N1         61.4940   64.6790   61.1040 N.am      1 DCD        -0.2738
      4 C1         60.1680   64.8320   61.2310 C.2       1 DCD         0.1170
      5 S2         59.3980   66.2220   60.6530 S.3       1 DCD        -0.0657
      6 S1         59.2830   63.7170   61.8970 S.2       1 DCD        -0.2719
      7 C2         62.3120   65.5910   60.3160 C.3       1 DCD         0.0380
      8 C4         62.4910   66.8990   61.0580 C.3       1 DCD        -0.0423
      9 H          64.1176   62.5887   61.6427 H         1 DCD         0.0251
     10 H          64.1695   64.3381   61.2384 H         1 DCD         0.0251
     11 H          63.4760   63.1658   60.0673 H         1 DCD         0.0251
     12 H          62.3424   63.8332   62.8259 H         1 DCD         0.0549
     13 H          61.6488   62.6609   61.6548 H         1 DCD         0.0549
     14 H          58.9250   66.6837   61.4140 H         1 DCD         0.1329
     15 H          61.8177   65.7836   59.3524 H         1 DCD         0.0549
     16 H          63.2973   65.1354   60.1381 H         1 DCD         0.0549
     17 H          63.1095   67.5806   60.4556 H         1 DCD         0.0251
     18 H          62.9866   66.7092   62.0215 H         1 DCD         0.0251
     19 H          61.5070   67.3574   61.2358 H         1 DCD         0.0251
@<TRIPOS>BOND
     1    1    2 1  
     2    2    3 1  
     3    3    4 am 
     4    3    7 1  
     5    4    5 1  
     6    4    6 2  
     7    7    8 1  
     8    1    9 1  
     9    1   10 1  
    10    1   11 1  
    11    2   12 1  
    12    2   13 1  
    13    5   14 1  
    14    7   15 1  
    15    7   16 1  
    16    8   17 1  
    17    8   18 1  
    18    8   19 1  
@<TRIPOS>SUBSTRUCTURE
     1 DCD         1

