### 
### Created by X-TOOL on Mon Sep 10 21:13:17 2018
### 

@<TRIPOS>MOLECULE
4old_ligand
   23    23     1     0     0
SMALL
GAST_HUCK


@<TRIPOS>ATOM
      1 O          23.6970    7.0070   15.0090 O.co2     1 2UZ        -0.5642
      2 C          22.4610    6.8400   15.2050 C.2       1 2UZ         0.0864
      3 OXT        21.8130    7.4530   16.0360 O.co2     1 2UZ        -0.5642
      4 CA         21.6410    5.7810   14.4070 C.3       1 2UZ         0.0505
      5 N          20.2190    5.9210   14.9460 N.4       1 2UZ         0.2341
      6 CB         22.0070    5.8030   12.8140 C.3       1 2UZ         0.1158
      7 NAH        20.9240    5.1840   11.9980 N.2       1 2UZ        -0.3086
      8 SAI        23.6310    5.1910   12.2890 S.3       1 2UZ        -0.1351
      9 CAG        23.4730    5.4950   10.4760 C.3       1 2UZ         0.0127
     10 CAF        22.3150    4.9200    9.9840 C.3       1 2UZ         0.0260
     11 CAL        21.1210    4.8120   10.7210 C.2       1 2UZ         0.0732
     12 CAJ        20.0800    4.0780   10.1230 C.2       1 2UZ         0.1075
     13 OAD        20.1410    3.8050    8.8650 O.co2     1 2UZ        -0.5471
     14 OAB        19.1810    3.5600   10.8520 O.co2     1 2UZ        -0.5471
     15 H          21.9757    4.7866   14.7375 H         1 2UZ         0.1044
     16 H          20.2357    5.8789   15.9530 H         1 2UZ         0.2011
     17 H          19.6485    5.1711   14.5878 H         1 2UZ         0.2011
     18 H          19.8342    6.8054   14.6531 H         1 2UZ         0.2011
     19 H          22.0142    6.8705   12.5489 H         1 2UZ         0.0610
     20 H          24.3407    5.0587    9.9595 H         1 2UZ         0.0411
     21 H          23.4441    6.5792   10.2926 H         1 2UZ         0.0411
     22 H          22.5873    3.8919    9.7031 H         1 2UZ         0.0547
     23 H          22.0579    5.4913    9.0799 H         1 2UZ         0.0547
@<TRIPOS>BOND
     1    1    2 ar 
     2    2    3 ar 
     3    2    4 1  
     4    4    5 1  
     5    4    6 1  
     6    6    7 1  
     7    6    8 1  
     8    7   11 2  
     9    8    9 1  
    10    9   10 1  
    11   10   11 1  
    12   11   12 1  
    13   12   13 ar 
    14   12   14 ar 
    15    4   15 1  
    16    5   16 1  
    17    5   17 1  
    18    5   18 1  
    19    6   19 1  
    20    9   20 1  
    21    9   21 1  
    22   10   22 1  
    23   10   23 1  
@<TRIPOS>SUBSTRUCTURE
     1 2UZ         1

