### 
### Created by X-TOOL on Mon Sep 10 21:13:19 2018
### 

@<TRIPOS>MOLECULE
4olh_ligand
   58    61     1     0     0
SMALL
GAST_HUCK


@<TRIPOS>ATOM
      1 C17        44.8600  -20.8000  -15.5180 C.ar      1 2TO        -0.0275
      2 C18        45.4260  -19.5620  -15.6630 C.ar      1 2TO        -0.0145
      3 C19        45.1150  -18.5340  -14.7820 C.ar      1 2TO         0.1086
      4 N6         45.6940  -17.3270  -14.9180 N.pl3     1 2TO        -0.3221
      5 N5         44.2320  -18.7670  -13.7940 N.ar      1 2TO        -0.2837
      6 C20        43.6530  -19.9490  -13.6490 C.ar      1 2TO         0.0225
      7 C16        43.9510  -20.9950  -14.4980 C.ar      1 2TO         0.1218
      8 S1         43.1550  -22.5320  -14.2960 S.o2      1 2TO         0.0708
      9 O2         43.9820  -23.6410  -14.6970 O.2       1 2TO        -0.1507
     10 O3         42.7400  -22.6960  -12.8720 O.2       1 2TO        -0.1507
     11 N3         41.8300  -22.5510  -15.2240 N.am      1 2TO        -0.2304
     12 C10        42.1930  -22.0970  -16.5560 C.3       1 2TO         0.0516
     13 C11        40.9900  -22.0920  -17.4830 C.3       1 2TO         0.0555
     14 C9         40.8520  -21.6490  -14.6510 C.3       1 2TO         0.0516
     15 C8         39.5810  -21.9390  -15.3920 C.3       1 2TO         0.0555
     16 N2         39.7650  -21.6590  -16.8130 N.pl3     1 2TO        -0.2697
     17 C6         38.6930  -21.2620  -17.5970 C.ar      1 2TO         0.1616
     18 N1         38.6230  -21.8730  -18.7790 N.ar      1 2TO        -0.2409
     19 C3         37.6490  -21.6230  -19.6630 C.ar      1 2TO         0.0275
     20 C1         36.6070  -20.7440  -19.3910 C.ar      1 2TO         0.0058
     21 C4         35.4450  -20.4680  -20.3590 C.3       1 2TO         0.2374
     22 C21        35.8260  -19.4570  -21.4380 C.3       1 2TO         0.3964
     23 F2         36.8270  -19.9640  -22.1480 F         1 2TO        -0.1774
     24 F3         36.1260  -18.3410  -20.8120 F         1 2TO        -0.1774
     25 F1         34.8120  -19.1290  -22.2520 F         1 2TO        -0.1774
     26 C22        34.8760  -21.7320  -20.9720 C.3       1 2TO         0.3964
     27 F5         34.5960  -22.5860  -20.0400 F         1 2TO        -0.1774
     28 F6         35.6870  -22.3120  -21.7680 F         1 2TO        -0.1774
     29 F4         33.7630  -21.4190  -21.6260 F         1 2TO        -0.1774
     30 O1         34.3150  -19.9710  -19.6510 O.3       1 2TO        -0.4172
     31 C2         36.6700  -20.0880  -18.1740 C.ar      1 2TO        -0.0216
     32 C5         37.6970  -20.3450  -17.2460 C.ar      1 2TO         0.0655
     33 C7         37.6360  -19.6220  -16.0440 C.ar      1 2TO         0.0184
     34 C15        36.4040  -19.3730  -15.4400 C.ar      1 2TO        -0.0358
     35 C14        36.3470  -18.6070  -14.2690 C.ar      1 2TO        -0.0349
     36 C13        37.5330  -18.1260  -13.7070 C.ar      1 2TO         0.0098
     37 N4         38.6950  -18.3720  -14.3220 N.ar      1 2TO        -0.2975
     38 C12        38.7780  -19.1020  -15.4380 C.ar      1 2TO         0.0179
     39 H          45.1202  -21.6098  -16.1900 H         1 2TO         0.0719
     40 H          46.1235  -19.3822  -16.4730 H         1 2TO         0.0611
     41 H          45.4609  -16.5672  -14.2628 H         1 2TO         0.1766
     42 H          46.3703  -17.1629  -15.6773 H         1 2TO         0.1766
     43 H          42.9341  -20.0971  -12.8513 H         1 2TO         0.0801
     44 H          42.9599  -22.7697  -16.9675 H         1 2TO         0.0500
     45 H          42.5982  -21.0765  -16.4890 H         1 2TO         0.0500
     46 H          40.8388  -23.1108  -17.8693 H         1 2TO         0.0559
     47 H          41.1936  -21.4087  -18.3206 H         1 2TO         0.0559
     48 H          41.1566  -20.6025  -14.7994 H         1 2TO         0.0500
     49 H          40.7269  -21.8456  -13.5760 H         1 2TO         0.0500
     50 H          38.7740  -21.3050  -14.9960 H         1 2TO         0.0559
     51 H          39.3140  -22.9978  -15.2596 H         1 2TO         0.0559
     52 H          37.6738  -22.1234  -20.6243 H         1 2TO         0.1055
     53 H          34.0676  -20.5918  -18.9758 H         1 2TO         0.1941
     54 H          35.9082  -19.3568  -17.9288 H         1 2TO         0.0909
     55 H          35.4943  -19.7707  -15.8751 H         1 2TO         0.0731
     56 H          35.3927  -18.3893  -13.8031 H         1 2TO         0.0706
     57 H          37.5113  -17.5598  -12.7829 H         1 2TO         0.0812
     58 H          39.7496  -19.2929  -15.8792 H         1 2TO         0.0822
@<TRIPOS>BOND
     1    1    2 ar 
     2    1    7 ar 
     3    2    3 ar 
     4    3    4 1  
     5    3    5 ar 
     6    5    6 ar 
     7    6    7 ar 
     8    7    8 1  
     9    8    9 2  
    10    8   10 2  
    11    8   11 am 
    12   11   12 1  
    13   11   14 1  
    14   12   13 1  
    15   13   16 1  
    16   14   15 1  
    17   15   16 1  
    18   16   17 1  
    19   17   18 ar 
    20   17   32 ar 
    21   18   19 ar 
    22   19   20 ar 
    23   20   21 1  
    24   20   31 ar 
    25   21   22 1  
    26   21   26 1  
    27   21   30 1  
    28   22   23 1  
    29   22   24 1  
    30   22   25 1  
    31   26   27 1  
    32   26   28 1  
    33   26   29 1  
    34   31   32 ar 
    35   32   33 1  
    36   33   34 ar 
    37   33   38 ar 
    38   34   35 ar 
    39   35   36 ar 
    40   36   37 ar 
    41   37   38 ar 
    42    1   39 1  
    43    2   40 1  
    44    4   41 1  
    45    4   42 1  
    46    6   43 1  
    47   12   44 1  
    48   12   45 1  
    49   13   46 1  
    50   13   47 1  
    51   14   48 1  
    52   14   49 1  
    53   15   50 1  
    54   15   51 1  
    55   19   52 1  
    56   30   53 1  
    57   31   54 1  
    58   34   55 1  
    59   35   56 1  
    60   36   57 1  
    61   38   58 1  
@<TRIPOS>SUBSTRUCTURE
     1 2TO         1

