### 
### Created by X-TOOL on Mon Sep 10 21:13:18 2018
### 

@<TRIPOS>MOLECULE
4omc_ligand
  113   114     1     0     0
SMALL
GAST_HUCK


@<TRIPOS>ATOM
      1 C8         34.4530   23.8290   -7.5700 C.ar      1 2UC        -0.0134
      2 C5         33.8650   25.0980   -7.7100 C.ar      1 2UC        -0.0535
      3 C6         33.1090   23.0430   -9.4850 C.ar      1 2UC        -0.0747
      4 N1         35.1270   22.3540   -5.7320 N.pl3     1 2UC        -0.2611
      5 C2         30.9410   26.7380   -7.9040 C.2       1 2UC         0.1896
      6 N2         33.9160   23.4580   -4.0880 N.pl3     1 2UC        -0.2847
      7 N3         34.1030   21.1670   -4.0560 N.pl3     1 2UC        -0.2847
      8 C4         32.5300   24.3310   -9.6040 C.ar      1 2UC        -0.0649
      9 C1         32.1850   26.6860   -8.7540 C.3       1 2UC         0.0689
     10 O1         30.0320   25.9350   -8.0290 O.2       1 2UC        -0.3939
     11 C3         32.9000   25.3640   -8.7140 C.ar      1 2UC        -0.0310
     12 C7         34.0710   22.8000   -8.4590 C.ar      1 2UC        -0.0636
     13 C9         35.4650   23.5600   -6.4850 C.3       1 2UC         0.0948
     14 C10        34.3660   22.3270   -4.6370 C.cat     1 2UC         0.2901
     15 N          30.9430   27.7000   -6.9950 N.am      1 ARG        -0.2640
     16 CA         29.8200   27.8810   -6.0880 C.3       1 ARG         0.1311
     17 C          29.3380   29.3190   -6.1690 C.2       1 ARG         0.2039
     18 O          30.1270   30.2460   -6.0440 O.2       1 ARG        -0.3944
     19 CB         30.2550   27.5200   -4.6670 C.3       1 ARG        -0.0092
     20 CG         30.8240   26.0830   -4.5410 C.3       1 ARG        -0.0156
     21 CD         29.7710   25.0780   -4.9450 C.3       1 ARG         0.0627
     22 NE         30.1780   23.6850   -4.7720 N.pl3     1 ARG        -0.2723
     23 CZ         30.3910   22.8420   -5.7820 C.cat     1 ARG         0.2882
     24 NH1        30.7450   21.5830   -5.5480 N.pl3     1 ARG        -0.2849
     25 NH2        30.2620   23.2660   -7.0380 N.pl3     1 ARG        -0.2849
     26 N          28.0340   29.4950   -6.3740 N.am      1 VAL        -0.2635
     27 CA         27.4470   30.8190   -6.5230 C.3       1 VAL         0.1332
     28 C          26.3800   31.1630   -5.4960 C.2       1 VAL         0.2041
     29 O          25.7580   30.2710   -4.9080 O.2       1 VAL        -0.3944
     30 CB         26.8060   30.9560   -7.9190 C.3       1 VAL        -0.0063
     31 CG1        27.8460   30.6540   -8.9980 C.3       1 VAL        -0.0584
     32 CG2        25.6520   29.9840   -8.0580 C.3       1 VAL        -0.0584
     33 N          26.1730   32.4630   -5.2960 N.am      1 ARG        -0.2637
     34 CA         25.1600   32.9500   -4.3740 C.3       1 ARG         0.1311
     35 C          23.8140   32.5100   -4.9510 C.2       1 ARG         0.2035
     36 O          23.5830   32.6120   -6.1540 O.2       1 ARG        -0.3944
     37 CB         25.2230   34.4790   -4.2730 C.3       1 ARG        -0.0092
     38 CG         26.5000   35.0240   -3.6450 C.3       1 ARG        -0.0156
     39 CD         26.5680   36.5320   -3.8100 C.3       1 ARG         0.0627
     40 NE         27.8180   37.1200   -3.3290 N.pl3     1 ARG        -0.2723
     41 CZ         28.9920   36.9840   -3.9380 C.cat     1 ARG         0.2882
     42 NH1        29.0910   36.2700   -5.0590 N.pl3     1 ARG        -0.2849
     43 NH2        30.0670   37.5800   -3.4370 N.pl3     1 ARG        -0.2849
     44 N23        22.9270   32.0290   -4.0900 N.am      1 00S        -0.2737
     45 C16        21.6200   31.5680   -4.5120 C.3       1 00S         0.0645
     46 C17        21.6370   30.0740   -4.6870 C.ar      1 00S        -0.0210
     47 C22        21.3280   29.2290   -3.6090 C.ar      1 00S        -0.0584
     48 C21        21.4340   27.8220   -3.7350 C.ar      1 00S        -0.0633
     49 C24        21.8510   27.2340   -4.9440 C.ar      1 00S         0.0188
     50 C27        21.9490   25.7330   -5.0810 C.cat     1 00S         0.2318
     51 N35        21.3280   24.9830   -4.1750 N.pl3     1 00S        -0.2729
     52 N34        22.6520   25.1610   -6.0520 N.pl3     1 00S        -0.2729
     53 C19        22.1500   28.0770   -6.0280 C.ar      1 00S        -0.0633
     54 C18        22.0460   29.4950   -5.9030 C.ar      1 00S        -0.0584
     55 H          34.1567   25.8931   -7.0334 H         1 2UC         0.0499
     56 H          32.8240   22.2499  -10.1667 H         1 2UC         0.0583
     57 H          35.5046   21.4581   -6.0722 H         1 2UC         0.2666
     58 H          33.3292   23.4220   -3.2423 H         1 2UC         0.2615
     59 H          34.1557   24.3664   -4.5102 H         1 2UC         0.2615
     60 H          34.4475   20.2914   -4.4749 H         1 2UC         0.2615
     61 H          33.5538   21.1400   -3.1850 H         1 2UC         0.2615
     62 H          31.7998   24.5245  -10.3815 H         1 2UC         0.0504
     63 H          32.8776   27.4643   -8.4010 H         1 2UC         0.0658
     64 H          31.9005   26.8936   -9.7961 H         1 2UC         0.0658
     65 H          34.5132   21.8152   -8.3610 H         1 2UC         0.0503
     66 H          35.4889   24.4175   -5.7965 H         1 2UC         0.0854
     67 H          36.4564   23.4302   -6.9436 H         1 2UC         0.0854
     68 H          31.7303   28.3132   -6.9305 H         1 ARG         0.1884
     69 H          28.9992   27.2133   -6.3888 H         1 ARG         0.0800
     70 H          29.3828   27.6086   -4.0027 H         1 ARG         0.0313
     71 H          31.0317   28.2312   -4.3493 H         1 ARG         0.0313
     72 H          31.1235   25.8990   -3.4987 H         1 ARG         0.0301
     73 H          31.6999   25.9782   -5.1981 H         1 ARG         0.0301
     74 H          29.5298   25.2381   -6.0062 H         1 ARG         0.0689
     75 H          28.8732   25.2539   -4.3343 H         1 ARG         0.0689
     76 H          30.3079   23.3339   -3.8124 H         1 ARG         0.2642
     77 H          30.9074   20.9389   -6.3352 H         1 ARG         0.2615
     78 H          30.8570   21.2511   -4.5794 H         1 ARG         0.2615
     79 H          29.9879   24.2407   -7.2269 H         1 ARG         0.2615
     80 H          30.4364   22.6192   -7.8204 H         1 ARG         0.2615
     81 H          27.4394   28.6927   -6.4273 H         1 VAL         0.1883
     82 H          28.2597   31.5543   -6.4285 H         1 VAL         0.0802
     83 H          26.4344   31.9834   -8.0472 H         1 VAL         0.0343
     84 H          27.3834   30.7532   -9.9911 H         1 VAL         0.0234
     85 H          28.2209   29.6279   -8.8690 H         1 VAL         0.0234
     86 H          28.6820   31.3636   -8.9104 H         1 VAL         0.0234
     87 H          24.8993   30.1955   -7.2843 H         1 VAL         0.0234
     88 H          26.0225   28.9553   -7.9376 H         1 VAL         0.0234
     89 H          25.1964   30.0956   -9.0530 H         1 VAL         0.0234
     90 H          26.7318   33.1250   -5.7956 H         1 ARG         0.1883
     91 H          25.3092   32.5107   -3.3766 H         1 ARG         0.0800
     92 H          24.3709   34.8176   -3.6653 H         1 ARG         0.0313
     93 H          25.1368   34.8932   -5.2884 H         1 ARG         0.0313
     94 H          27.3704   34.5658   -4.1373 H         1 ARG         0.0301
     95 H          26.5118   34.7756   -2.5735 H         1 ARG         0.0301
     96 H          25.7348   36.9807   -3.2493 H         1 ARG         0.0689
     97 H          26.4610   36.7697   -4.8787 H         1 ARG         0.0689
     98 H          27.7867   37.6755   -2.4622 H         1 ARG         0.2642
     99 H          30.0034   36.1684   -5.5260 H         1 ARG         0.2615
    100 H          28.2551   35.8198   -5.4583 H         1 ARG         0.2615
    101 H          29.9930   38.1323   -2.5708 H         1 ARG         0.2615
    102 H          30.9752   37.4902   -3.9145 H         1 ARG         0.2615
    103 H          23.1677   31.9832   -3.1205 H         1 00S         0.1878
    104 H          21.3561   32.0443   -5.4677 H         1 00S         0.0683
    105 H          20.8743   31.8376   -3.7497 H         1 00S         0.0683
    106 H          21.0041   29.6589   -2.6681 H         1 00S         0.0557
    107 H          21.1907   27.1896   -2.8889 H         1 00S         0.0599
    108 H          21.3738   23.9559   -4.2378 H         1 00S         0.3180
    109 H          20.8013   25.4292   -3.4106 H         1 00S         0.3180
    110 H          23.1320   25.7440   -6.7524 H         1 00S         0.3180
    111 H          22.7172   24.1344   -6.1046 H         1 00S         0.3180
    112 H          22.4637   27.6447   -6.9713 H         1 00S         0.0599
    113 H          22.2833   30.1295   -6.7492 H         1 00S         0.0557
@<TRIPOS>BOND
     1    2    1 ar 
     2    1   12 ar 
     3    1   13 1  
     4   11    2 ar 
     5    8    3 ar 
     6    3   12 ar 
     7   13    4 1  
     8    4   14 ar 
     9    9    5 1  
    10    5   10 2  
    11    5   15 am 
    12   14    6 ar 
    13   14    7 ar 
    14   11    8 ar 
    15    9   11 1  
    16   15   16 1  
    17   16   17 1  
    18   16   19 1  
    19   17   18 2  
    20   17   26 am 
    21   19   20 1  
    22   20   21 1  
    23   21   22 1  
    24   22   23 ar 
    25   23   24 ar 
    26   23   25 ar 
    27   26   27 1  
    28   27   28 1  
    29   27   30 1  
    30   28   29 2  
    31   28   33 am 
    32   30   31 1  
    33   30   32 1  
    34   33   34 1  
    35   34   35 1  
    36   34   37 1  
    37   35   36 2  
    38   35   44 am 
    39   37   38 1  
    40   38   39 1  
    41   39   40 1  
    42   40   41 ar 
    43   41   42 ar 
    44   41   43 ar 
    45   44   45 1  
    46   45   46 1  
    47   46   47 ar 
    48   46   54 ar 
    49   47   48 ar 
    50   48   49 ar 
    51   49   50 1  
    52   49   53 ar 
    53   50   51 ar 
    54   50   52 ar 
    55   53   54 ar 
    56    2   55 1  
    57    3   56 1  
    58    4   57 1  
    59    6   58 1  
    60    6   59 1  
    61    7   60 1  
    62    7   61 1  
    63    8   62 1  
    64    9   63 1  
    65    9   64 1  
    66   12   65 1  
    67   13   66 1  
    68   13   67 1  
    69   15   68 1  
    70   16   69 1  
    71   19   70 1  
    72   19   71 1  
    73   20   72 1  
    74   20   73 1  
    75   21   74 1  
    76   21   75 1  
    77   22   76 1  
    78   24   77 1  
    79   24   78 1  
    80   25   79 1  
    81   25   80 1  
    82   26   81 1  
    83   27   82 1  
    84   30   83 1  
    85   31   84 1  
    86   31   85 1  
    87   31   86 1  
    88   32   87 1  
    89   32   88 1  
    90   32   89 1  
    91   33   90 1  
    92   34   91 1  
    93   37   92 1  
    94   37   93 1  
    95   38   94 1  
    96   38   95 1  
    97   39   96 1  
    98   39   97 1  
    99   40   98 1  
   100   42   99 1  
   101   42  100 1  
   102   43  101 1  
   103   43  102 1  
   104   44  103 1  
   105   45  104 1  
   106   45  105 1  
   107   47  106 1  
   108   48  107 1  
   109   51  108 1  
   110   51  109 1  
   111   52  110 1  
   112   52  111 1  
   113   53  112 1  
   114   54  113 1  
@<TRIPOS>SUBSTRUCTURE
     1 2UC         1

