### 
### Created by X-TOOL on Mon Sep 10 21:13:20 2018
### 

@<TRIPOS>MOLECULE
4omj_ligand
   91    91     1     0     0
SMALL
GAST_HUCK


@<TRIPOS>ATOM
      1 CBA        84.6210    1.6060    7.0600 C.3       1 2TX        -0.0336
      2 CAY        86.0360    1.0960    7.3460 C.3       1 2TX         0.0904
      3 CBB        86.8640    0.8360    6.1050 C.3       1 2TX        -0.0336
      4 OAZ        86.1370    0.2500    8.5240 O.3       1 2TX        -0.3653
      5 CAX        86.8290    1.5580    8.5010 C.3       1 2TX         0.0879
      6 CAW        88.3380    1.4940    8.2410 C.3       1 2TX        -0.0236
      7 CAV        89.0230    2.3660    9.2580 C.3       1 2TX        -0.0480
      8 CAT        90.5330    2.1650    9.4100 C.3       1 2TX        -0.0438
      9 CAU        91.1500    0.7920    9.6540 C.3       1 2TX        -0.0624
     10 CAS        91.4160    3.3900    9.5060 C.3       1 2TX        -0.0504
     11 CAR        92.8800    3.0970    9.7770 C.3       1 2TX        -0.0526
     12 CAQ        93.4830    4.3570   10.3730 C.3       1 2TX        -0.0505
     13 CAO        93.6510    5.3660    9.2660 C.3       1 2TX        -0.0439
     14 CAP        94.5770    5.0710    8.1010 C.3       1 2TX        -0.0624
     15 CAN        92.9190    6.6680    9.3270 C.3       1 2TX        -0.0505
     16 CAM        93.1360    7.6040    8.1390 C.3       1 2TX        -0.0528
     17 CAL        91.7600    8.1720    7.9060 C.3       1 2TX        -0.0528
     18 CAK        91.6660    9.0880    6.6890 C.3       1 2TX        -0.0505
     19 CAJ        91.2850   10.5090    7.0530 C.3       1 2TX        -0.0439
     20 CBC        91.0220   10.9060    8.5080 C.3       1 2TX        -0.0624
     21 CAI        91.0240   11.5140    5.9660 C.3       1 2TX        -0.0505
     22 CAH        89.5110   11.7490    5.9870 C.3       1 2TX        -0.0526
     23 CAG        89.0010   12.1160    4.6080 C.3       1 2TX        -0.0505
     24 CAF        87.9190   13.1850    4.5220 C.3       1 2TX        -0.0439
     25 CBD        87.3380   13.8380    5.7670 C.3       1 2TX        -0.0624
     26 CAE        87.3270   13.5310    3.1630 C.3       1 2TX        -0.0505
     27 CAD        86.2080   12.5050    2.9130 C.3       1 2TX        -0.0526
     28 CAC        84.9940   12.8540    3.7800 C.3       1 2TX        -0.0507
     29 CAB        84.3230   11.7030    4.5310 C.3       1 2TX        -0.0467
     30 CBE        84.8670   10.2750    4.4360 C.3       1 2TX        -0.0627
     31 CAA        83.1040   11.9890    5.4060 C.3       1 2TX        -0.0627
     32 H1         84.6333    2.2346    6.1574 H         1 2TX         0.0258
     33 H2         84.2652    2.1994    7.9152 H         1 2TX         0.0258
     34 H3         83.9479    0.7505    6.9019 H         1 2TX         0.0258
     35 H4         87.8606    0.4743    6.3983 H         1 2TX         0.0258
     36 H5         86.9668    1.7685    5.5307 H         1 2TX         0.0258
     37 H6         86.3662    0.0763    5.4846 H         1 2TX         0.0258
     38 H7         86.5349    2.3992    9.1459 H         1 2TX         0.0625
     39 H8         88.5579    1.8598    7.2272 H         1 2TX         0.0291
     40 H9         88.6903    0.4568    8.3410 H         1 2TX         0.0291
     41 H10        88.5580    2.1710   10.2356 H         1 2TX         0.0269
     42 H11        88.8506    3.4142    8.9725 H         1 2TX         0.0269
     43 H12        90.6741    2.0803    8.3224 H         1 2TX         0.0298
     44 H13        92.2430    0.8895    9.7298 H         1 2TX         0.0232
     45 H14        90.8987    0.1232    8.8177 H         1 2TX         0.0232
     46 H15        90.7535    0.3730   10.5906 H         1 2TX         0.0232
     47 H16        91.0366    4.0227   10.3219 H         1 2TX         0.0268
     48 H17        91.3467    3.9377    8.5546 H         1 2TX         0.0268
     49 H18        93.3936    2.8399    8.8389 H         1 2TX         0.0265
     50 H19        92.9729    2.2618   10.4867 H         1 2TX         0.0265
     51 H20        94.4618    4.1268   10.8190 H         1 2TX         0.0268
     52 H21        92.8133    4.7607   11.1466 H         1 2TX         0.0268
     53 H22        92.8110    4.9131    8.7190 H         1 2TX         0.0298
     54 H23        94.5672    5.9194    7.4009 H         1 2TX         0.0232
     55 H24        94.2355    4.1633    7.5819 H         1 2TX         0.0232
     56 H25        95.5997    4.9165    8.4755 H         1 2TX         0.0232
     57 H26        93.2419    7.1955   10.2367 H         1 2TX         0.0268
     58 H27        91.8431    6.4486    9.3927 H         1 2TX         0.0268
     59 H28        93.4903    7.0497    7.2574 H         1 2TX         0.0265
     60 H29        93.8557    8.3982    8.3865 H         1 2TX         0.0265
     61 H30        91.4681    8.7483    8.7963 H         1 2TX         0.0265
     62 H31        91.0596    7.3357    7.7646 H         1 2TX         0.0265
     63 H32        90.9062    8.6849    6.0033 H         1 2TX         0.0268
     64 H33        92.6434    9.1042    6.1847 H         1 2TX         0.0268
     65 H34        92.3415   10.8061    7.1272 H         1 2TX         0.0298
     66 H35        90.7619   11.9737    8.5554 H         1 2TX         0.0232
     67 H36        91.9257   10.7219    9.1074 H         1 2TX         0.0232
     68 H37        90.1894   10.3078    8.9066 H         1 2TX         0.0232
     69 H38        91.3385   11.1161    4.9899 H         1 2TX         0.0268
     70 H39        91.5622   12.4513    6.1706 H         1 2TX         0.0268
     71 H40        89.2835   12.5684    6.6848 H         1 2TX         0.0265
     72 H41        89.0086   10.8303    6.3239 H         1 2TX         0.0265
     73 H42        88.5972   11.2005    4.1511 H         1 2TX         0.0268
     74 H43        89.8616   12.4698    4.0213 H         1 2TX         0.0268
     75 H44        88.6766   13.9773    4.4314 H         1 2TX         0.0298
     76 H45        86.5769   14.5757    5.4729 H         1 2TX         0.0232
     77 H46        88.1407   14.3421    6.3252 H         1 2TX         0.0232
     78 H47        86.8762   13.0685    6.4031 H         1 2TX         0.0232
     79 H48        88.0965   13.4552    2.3806 H         1 2TX         0.0268
     80 H49        86.9147   14.5507    3.1743 H         1 2TX         0.0268
     81 H50        86.5679   11.4987    3.1736 H         1 2TX         0.0265
     82 H51        85.9196   12.5278    1.8517 H         1 2TX         0.0265
     83 H52        84.2369   13.3079    3.1236 H         1 2TX         0.0268
     84 H53        85.3211   13.5918    4.5274 H         1 2TX         0.0268
     85 H54        83.6698   11.5147    3.6663 H         1 2TX         0.0295
     86 H55        84.2445    9.6042    5.0463 H         1 2TX         0.0232
     87 H56        85.9026   10.2518    4.8060 H         1 2TX         0.0232
     88 H57        84.8446    9.9431    3.3875 H         1 2TX         0.0232
     89 H58        82.8575   13.0597    5.3527 H         1 2TX         0.0232
     90 H59        83.3281   11.7157    6.4477 H         1 2TX         0.0232
     91 H60        82.2485   11.3976    5.0477 H         1 2TX         0.0232
@<TRIPOS>BOND
     1    1    2 1  
     2    2    3 1  
     3    2    4 1  
     4    2    5 1  
     5    4    5 1  
     6    5    6 1  
     7    6    7 1  
     8    7    8 1  
     9    8    9 1  
    10    8   10 1  
    11   10   11 1  
    12   11   12 1  
    13   12   13 1  
    14   13   14 1  
    15   13   15 1  
    16   15   16 1  
    17   16   17 1  
    18   17   18 1  
    19   18   19 1  
    20   19   20 1  
    21   19   21 1  
    22   21   22 1  
    23   22   23 1  
    24   23   24 1  
    25   24   25 1  
    26   24   26 1  
    27   26   27 1  
    28   27   28 1  
    29   28   29 1  
    30   29   30 1  
    31   29   31 1  
    32    1   32 1  
    33    1   33 1  
    34    1   34 1  
    35    3   35 1  
    36    3   36 1  
    37    3   37 1  
    38    5   38 1  
    39    6   39 1  
    40    6   40 1  
    41    7   41 1  
    42    7   42 1  
    43    8   43 1  
    44    9   44 1  
    45    9   45 1  
    46    9   46 1  
    47   10   47 1  
    48   10   48 1  
    49   11   49 1  
    50   11   50 1  
    51   12   51 1  
    52   12   52 1  
    53   13   53 1  
    54   14   54 1  
    55   14   55 1  
    56   14   56 1  
    57   15   57 1  
    58   15   58 1  
    59   16   59 1  
    60   16   60 1  
    61   17   61 1  
    62   17   62 1  
    63   18   63 1  
    64   18   64 1  
    65   19   65 1  
    66   20   66 1  
    67   20   67 1  
    68   20   68 1  
    69   21   69 1  
    70   21   70 1  
    71   22   71 1  
    72   22   72 1  
    73   23   73 1  
    74   23   74 1  
    75   24   75 1  
    76   25   76 1  
    77   25   77 1  
    78   25   78 1  
    79   26   79 1  
    80   26   80 1  
    81   27   81 1  
    82   27   82 1  
    83   28   83 1  
    84   28   84 1  
    85   29   85 1  
    86   30   86 1  
    87   30   87 1  
    88   30   88 1  
    89   31   89 1  
    90   31   90 1  
    91   31   91 1  
@<TRIPOS>SUBSTRUCTURE
     1 2TX         1

