### 
### Created by X-TOOL on Mon Sep 10 21:13:20 2018
### 

@<TRIPOS>MOLECULE
4omk_ligand
   92    91     1     0     0
SMALL
GAST_HUCK


@<TRIPOS>ATOM
      1 C1         13.8780   -0.2390    8.9390 C.3       1 SQL        -0.0627
      2 C2         14.1480    0.7280    7.8130 C.3       1 SQL        -0.0467
      3 C3         13.1270    0.9070    6.6950 C.3       1 SQL        -0.0627
      4 C4         15.4190    1.5320    7.8130 C.3       1 SQL        -0.0507
      5 C5         16.4610    1.4020    8.9240 C.3       1 SQL        -0.0526
      6 C6         17.7360    1.8440    8.2750 C.3       1 SQL        -0.0505
      7 C7         18.9070    1.8990    9.2240 C.3       1 SQL        -0.0439
      8 C8         19.3430    0.6440    9.9740 C.3       1 SQL        -0.0624
      9 C9         19.6530    3.2210    9.3220 C.3       1 SQL        -0.0505
     10 C10        20.8860    3.2480   10.2150 C.3       1 SQL        -0.0526
     11 C11        21.3690    4.6760   10.3880 C.3       1 SQL        -0.0505
     12 C12        21.8830    5.2340    9.0600 C.3       1 SQL        -0.0439
     13 C13        22.9020    4.4690    8.2430 C.3       1 SQL        -0.0624
     14 C14        21.4130    6.5620    8.5200 C.3       1 SQL        -0.0505
     15 C15        20.4330    7.4230    9.2810 C.3       1 SQL        -0.0528
     16 C16        20.8800    8.8520    9.0650 C.3       1 SQL        -0.0528
     17 C17        20.5960    9.3130    7.6260 C.3       1 SQL        -0.0505
     18 C18        19.5790   10.4280    7.3550 C.3       1 SQL        -0.0439
     19 C19        18.8290   11.0820    8.4950 C.3       1 SQL        -0.0624
     20 C20        19.2960   10.8950    5.9330 C.3       1 SQL        -0.0505
     21 C21        17.7800   11.0310    5.7510 C.3       1 SQL        -0.0526
     22 C22        17.5010   11.6650    4.4110 C.3       1 SQL        -0.0505
     23 C23        16.3880   12.6900    4.2230 C.3       1 SQL        -0.0439
     24 C24        15.5280   13.1540    5.4110 C.3       1 SQL        -0.0505
     25 C25        14.1800   13.7590    4.9880 C.3       1 SQL        -0.0526
     26 C26        13.1470   12.6640    4.7800 C.3       1 SQL        -0.0507
     27 C27        12.4070   11.6140    3.9670 C.3       1 SQL        -0.0467
     28 C28        11.2100   10.9320    4.6050 C.3       1 SQL        -0.0627
     29 C29        12.8750   11.1800    2.5730 C.3       1 SQL        -0.0627
     30 C30        16.2170   13.2820    2.8260 C.3       1 SQL        -0.0624
     31 H1         12.9098   -0.7340    8.7729 H         1 SQL         0.0232
     32 H2         13.8514    0.3075    9.8933 H         1 SQL         0.0232
     33 H3         14.6758   -0.9956    8.9718 H         1 SQL         0.0232
     34 H4         14.6439   -0.0684    7.2387 H         1 SQL         0.0295
     35 H5         13.5001    1.6483    5.9730 H         1 SQL         0.0232
     36 H6         12.1748    1.2567    7.1205 H         1 SQL         0.0232
     37 H7         12.9695   -0.0547    6.1848 H         1 SQL         0.0232
     38 H8         15.1145    2.5889    7.7989 H         1 SQL         0.0268
     39 H9         15.9379    1.2873    6.8744 H         1 SQL         0.0268
     40 H10        16.5379    0.3602    9.2686 H         1 SQL         0.0265
     41 H11        16.2091    2.0520    9.7749 H         1 SQL         0.0265
     42 H12        17.5821    2.8483    7.8535 H         1 SQL         0.0268
     43 H13        17.9770    1.1395    7.4653 H         1 SQL         0.0268
     44 H14        18.2539    2.1827   10.0625 H         1 SQL         0.0298
     45 H15        20.2066    0.8802   10.6130 H         1 SQL         0.0232
     46 H16        19.6242   -0.1360    9.2512 H         1 SQL         0.0232
     47 H17        18.5126    0.2830   10.5986 H         1 SQL         0.0232
     48 H18        18.9480    3.9735    9.7050 H         1 SQL         0.0268
     49 H19        19.9712    3.4998    8.3066 H         1 SQL         0.0268
     50 H20        21.6834    2.6470    9.7536 H         1 SQL         0.0265
     51 H21        20.6325    2.8273   11.1992 H         1 SQL         0.0265
     52 H22        22.1829    4.6954   11.1277 H         1 SQL         0.0268
     53 H23        20.5353    5.2992   10.7437 H         1 SQL         0.0268
     54 H24        21.0625    4.7231    8.5349 H         1 SQL         0.0298
     55 H25        23.1396    5.0350    7.3302 H         1 SQL         0.0232
     56 H26        22.4894    3.4870    7.9685 H         1 SQL         0.0232
     57 H27        23.8175    4.3292    8.8365 H         1 SQL         0.0232
     58 H28        20.9497    6.3535    7.5444 H         1 SQL         0.0268
     59 H29        22.3152    7.1742    8.3742 H         1 SQL         0.0268
     60 H30        20.4557    7.1730   10.3520 H         1 SQL         0.0265
     61 H31        19.4143    7.2781    8.8921 H         1 SQL         0.0265
     62 H32        21.9607    8.9227    9.2575 H         1 SQL         0.0265
     63 H33        20.3394    9.5065    9.7645 H         1 SQL         0.0265
     64 H34        20.2482    8.4276    7.0737 H         1 SQL         0.0268
     65 H35        21.5553    9.6524    7.2081 H         1 SQL         0.0268
     66 H36        20.3801   11.1762    7.4462 H         1 SQL         0.0298
     67 H37        18.1523   11.8515    8.0950 H         1 SQL         0.0232
     68 H38        19.5465   11.5482    9.1863 H         1 SQL         0.0232
     69 H39        18.2430   10.3218    9.0323 H         1 SQL         0.0232
     70 H40        19.6899   10.1590    5.2167 H         1 SQL         0.0268
     71 H41        19.7779   11.8687    5.7607 H         1 SQL         0.0268
     72 H42        17.3678   11.6634    6.5511 H         1 SQL         0.0265
     73 H43        17.3128   10.0360    5.7926 H         1 SQL         0.0265
     74 H44        17.2805   10.8392    3.7186 H         1 SQL         0.0268
     75 H45        18.4333   12.1617    4.1043 H         1 SQL         0.0268
     76 H46        15.6608   11.8957    3.9988 H         1 SQL         0.0298
     77 H47        16.0905   13.9141    5.9730 H         1 SQL         0.0268
     78 H48        15.3331   12.2876    6.0601 H         1 SQL         0.0268
     79 H49        14.3119   14.3154    4.0483 H         1 SQL         0.0265
     80 H50        13.8282   14.4440    5.7735 H         1 SQL         0.0265
     81 H51        12.2662   13.2381    5.1033 H         1 SQL         0.0268
     82 H52        13.4748   12.0042    5.5969 H         1 SQL         0.0268
     83 H53        11.7635   12.3872    3.5219 H         1 SQL         0.0295
     84 H54        10.7838   10.2037    3.8993 H         1 SQL         0.0232
     85 H55        10.4499   11.6860    4.8574 H         1 SQL         0.0232
     86 H56        11.5290   10.4121    5.5204 H         1 SQL         0.0232
     87 H57        13.7477   11.7801    2.2759 H         1 SQL         0.0232
     88 H58        12.0612   11.3329    1.8489 H         1 SQL         0.0232
     89 H59        13.1519   10.1157    2.5940 H         1 SQL         0.0232
     90 H60        16.9302   12.8067    2.1365 H         1 SQL         0.0232
     91 H61        16.4070   14.3649    2.8609 H         1 SQL         0.0232
     92 H62        15.1907   13.1009    2.4741 H         1 SQL         0.0232
@<TRIPOS>BOND
     1    1    2 1  
     2    2    3 1  
     3    2    4 1  
     4    4    5 1  
     5    5    6 1  
     6    6    7 1  
     7    7    8 1  
     8    7    9 1  
     9    9   10 1  
    10   10   11 1  
    11   11   12 1  
    12   12   13 1  
    13   12   14 1  
    14   14   15 1  
    15   15   16 1  
    16   16   17 1  
    17   17   18 1  
    18   18   19 1  
    19   18   20 1  
    20   20   21 1  
    21   21   22 1  
    22   22   23 1  
    23   23   24 1  
    24   23   30 1  
    25   24   25 1  
    26   25   26 1  
    27   26   27 1  
    28   27   28 1  
    29   27   29 1  
    30    1   31 1  
    31    1   32 1  
    32    1   33 1  
    33    2   34 1  
    34    3   35 1  
    35    3   36 1  
    36    3   37 1  
    37    4   38 1  
    38    4   39 1  
    39    5   40 1  
    40    5   41 1  
    41    6   42 1  
    42    6   43 1  
    43    7   44 1  
    44    8   45 1  
    45    8   46 1  
    46    8   47 1  
    47    9   48 1  
    48    9   49 1  
    49   10   50 1  
    50   10   51 1  
    51   11   52 1  
    52   11   53 1  
    53   12   54 1  
    54   13   55 1  
    55   13   56 1  
    56   13   57 1  
    57   14   58 1  
    58   14   59 1  
    59   15   60 1  
    60   15   61 1  
    61   16   62 1  
    62   16   63 1  
    63   17   64 1  
    64   17   65 1  
    65   18   66 1  
    66   19   67 1  
    67   19   68 1  
    68   19   69 1  
    69   20   70 1  
    70   20   71 1  
    71   21   72 1  
    72   21   73 1  
    73   22   74 1  
    74   22   75 1  
    75   23   76 1  
    76   24   77 1  
    77   24   78 1  
    78   25   79 1  
    79   25   80 1  
    80   26   81 1  
    81   26   82 1  
    82   27   83 1  
    83   28   84 1  
    84   28   85 1  
    85   28   86 1  
    86   29   87 1  
    87   29   88 1  
    88   29   89 1  
    89   30   90 1  
    90   30   91 1  
    91   30   92 1  
@<TRIPOS>SUBSTRUCTURE
     1 SQL         1

