### 
### Created by X-TOOL on Mon Sep 10 21:13:18 2018
### 

@<TRIPOS>MOLECULE
4ona_ligand
   49    51     1     0     0
SMALL
GAST_HUCK


@<TRIPOS>ATOM
      1 CAA         9.8820  -19.5650  -32.8690 C.3       1 UW1        -0.0369
      2 CAM         8.4650  -19.2160  -32.4400 C.3       1 UW1         0.0690
      3 OAP         7.5490  -19.8620  -33.3510 O.3       1 UW1        -0.3145
      4 CAR         6.2110  -19.6990  -33.1340 C.ar      1 UW1         0.0982
      5 CAK         5.7060  -19.0210  -32.0590 C.ar      1 UW1        -0.0142
      6 CAH         5.3860  -20.3650  -34.0170 C.ar      1 UW1        -0.0219
      7 CAI         4.0570  -20.4690  -33.7640 C.ar      1 UW1        -0.0483
      8 CAW         3.4990  -19.8980  -32.6060 C.ar      1 UW1        -0.0002
      9 CAL         2.1500  -20.0470  -32.2290 C.ar      1 UW1        -0.0324
     10 CAX         4.3290  -19.1310  -31.7700 C.ar      1 UW1         0.0354
     11 NAN         3.8580  -18.5410  -30.6360 N.ar      1 UW1        -0.3020
     12 CAJ         2.5980  -18.7500  -30.3250 C.ar      1 UW1         0.0135
     13 CAS         1.6910  -19.4890  -31.0660 C.ar      1 UW1         0.0099
     14 CAU         0.2780  -19.5800  -30.6640 C.2       1 UW1         0.0413
     15 NAO        -0.3240  -18.4550  -30.3000 N.2       1 UW1        -0.2258
     16 NAY        -1.6140  -18.8070  -29.9920 N.pl3     1 UW1        -0.1764
     17 CAZ        -2.5250  -17.7040  -29.5200 C.3       1 UW1         0.0848
     18 CAC        -1.7460  -16.3900  -29.4720 C.3       1 UW1        -0.0307
     19 CAD        -3.6890  -17.5590  -30.5000 C.3       1 UW1        -0.0307
     20 CAB        -3.0340  -18.0420  -28.1160 C.3       1 UW1        -0.0307
     21 CAT        -1.8300  -20.1250  -30.1670 C.2       1 UW1         0.1815
     22 NAF        -3.0320  -20.7180  -30.0560 N.pl3     1 UW1        -0.3015
     23 CAV        -0.6040  -20.6920  -30.5830 C.2       1 UW1         0.0848
     24 CAQ        -0.4390  -22.1420  -30.7720 C.2       1 UW1         0.1682
     25 OAG        -1.4230  -22.8540  -30.9150 O.2       1 UW1        -0.4114
     26 NAE         0.7670  -22.6760  -30.7610 N.am      1 UW1        -0.3083
     27 H          10.6001  -19.0835  -32.1889 H         1 UW1         0.0256
     28 H          10.0529  -19.2078  -33.8952 H         1 UW1         0.0256
     29 H          10.0178  -20.6560  -32.8330 H         1 UW1         0.0256
     30 H           8.3217  -18.1260  -32.4776 H         1 UW1         0.0614
     31 H           8.2866  -19.5742  -31.4154 H         1 UW1         0.0614
     32 H           6.3522  -18.4096  -31.4396 H         1 UW1         0.0520
     33 H           5.8010  -20.8066  -34.9158 H         1 UW1         0.0614
     34 H           3.4183  -20.9980  -34.4620 H         1 UW1         0.0648
     35 H           1.4717  -20.6064  -32.8630 H         1 UW1         0.0759
     36 H           2.2363  -18.3037  -29.4057 H         1 UW1         0.0859
     37 H          -2.4093  -15.5829  -29.1275 H         1 UW1         0.0263
     38 H          -1.3686  -16.1505  -30.4771 H         1 UW1         0.0263
     39 H          -0.8995  -16.4907  -28.7768 H         1 UW1         0.0263
     40 H          -4.3571  -16.7543  -30.1592 H         1 UW1         0.0263
     41 H          -4.2486  -18.5048  -30.5472 H         1 UW1         0.0263
     42 H          -3.2990  -17.3134  -31.4988 H         1 UW1         0.0263
     43 H          -3.7003  -17.2403  -27.7647 H         1 UW1         0.0263
     44 H          -2.1800  -18.1362  -27.4292 H         1 UW1         0.0263
     45 H          -3.5874  -18.9922  -28.1455 H         1 UW1         0.0263
     46 H          -3.1210  -21.7334  -30.2041 H         1 UW1         0.1827
     47 H          -3.8636  -20.1567  -29.8229 H         1 UW1         0.1827
     48 H           0.8787  -23.6614  -30.8895 H         1 UW1         0.1790
     49 H           1.5697  -22.0955  -30.6242 H         1 UW1         0.1790
@<TRIPOS>BOND
     1    1    2 1  
     2    2    3 1  
     3    3    4 1  
     4    4    5 ar 
     5    4    6 ar 
     6    5   10 ar 
     7    6    7 ar 
     8    7    8 ar 
     9    8    9 ar 
    10    8   10 ar 
    11    9   13 ar 
    12   10   11 ar 
    13   11   12 ar 
    14   12   13 ar 
    15   13   14 1  
    16   14   15 2  
    17   14   23 1  
    18   15   16 1  
    19   16   17 1  
    20   16   21 1  
    21   17   18 1  
    22   17   19 1  
    23   17   20 1  
    24   21   22 1  
    25   21   23 2  
    26   23   24 1  
    27   24   25 2  
    28   24   26 am 
    29    1   27 1  
    30    1   28 1  
    31    1   29 1  
    32    2   30 1  
    33    2   31 1  
    34    5   32 1  
    35    6   33 1  
    36    7   34 1  
    37    9   35 1  
    38   12   36 1  
    39   18   37 1  
    40   18   38 1  
    41   18   39 1  
    42   19   40 1  
    43   19   41 1  
    44   19   42 1  
    45   20   43 1  
    46   20   44 1  
    47   20   45 1  
    48   22   46 1  
    49   22   47 1  
    50   26   48 1  
    51   26   49 1  
@<TRIPOS>SUBSTRUCTURE
     1 UW1         1

