### 
### Created by X-TOOL on Mon Sep 10 21:13:20 2018
### 

@<TRIPOS>MOLECULE
4oo9_ligand
   46    48     1     0     0
SMALL
GAST_HUCK


@<TRIPOS>ATOM
      1 C1        -24.9420   -6.7880   40.8390 C.ar      1 2U8         0.0182
      2 N1        -20.7960   -4.3510   45.5040 N.am      1 2U8        -0.2455
      3 O1        -24.9830   -2.9800   43.7630 O.3       1 2U8        -0.3762
      4 C2        -25.1450   -8.0810   41.3520 C.ar      1 2U8        -0.0532
      5 O2        -18.7660   -5.3900   45.0750 O.2       1 2U8        -0.3774
      6 C3        -25.1500   -6.5380   39.4670 C.ar      1 2U8        -0.0454
      7 O3        -19.5140   -5.1790   47.1890 O.3       1 2U8        -0.2671
      8 C4        -24.5020   -5.6880   41.6960 C.1       1 2U8        -0.0652
      9 C5        -25.5560   -9.1190   40.5140 C.ar      1 2U8        -0.0672
     10 C6        -25.7700   -8.8810   39.1450 C.ar      1 2U8        -0.0604
     11 C7        -25.5690   -7.5870   38.6120 C.ar      1 2U8        -0.0450
     12 C8        -25.7930   -7.3150   37.1470 C.3       1 2U8        -0.0311
     13 C9        -24.1940   -4.7640   42.4400 C.1       1 2U8        -0.0620
     14 C10       -23.8270   -3.6010   43.2760 C.3       1 2U8         0.1317
     15 C11       -23.0770   -2.5060   42.4660 C.3       1 2U8        -0.0122
     16 C12       -21.6920   -2.9420   41.9420 C.3       1 2U8        -0.0474
     17 C13       -20.7690   -3.5540   43.0010 C.3       1 2U8        -0.0292
     18 C14       -21.4020   -4.3440   44.1730 C.3       1 2U8         0.0533
     19 C15       -22.9230   -4.1610   44.4130 C.3       1 2U8         0.0242
     20 C16       -23.0060   -3.4230   45.7590 C.3       1 2U8        -0.0241
     21 C17       -21.6700   -3.6800   46.4640 C.3       1 2U8         0.0366
     22 C18       -19.5610   -4.9000   45.8770 C.2       1 2U8         0.3221
     23 C19       -18.3970   -5.8790   47.7150 C.3       1 2U8         0.0663
     24 H         -25.5148   -2.6861   43.0327 H         1 2U8         0.2114
     25 H         -24.9812   -8.2734   42.4061 H         1 2U8         0.0572
     26 H         -24.9894   -5.5435   39.0666 H         1 2U8         0.0566
     27 H         -25.7107  -10.1120   40.9202 H         1 2U8         0.0600
     28 H         -26.0892   -9.6899   38.4979 H         1 2U8         0.0558
     29 H         -25.5845   -6.2560   36.9346 H         1 2U8         0.0390
     30 H         -26.8375   -7.5422   36.8874 H         1 2U8         0.0390
     31 H         -25.1206   -7.9481   36.5495 H         1 2U8         0.0390
     32 H         -22.9392   -1.6297   43.1164 H         1 2U8         0.0303
     33 H         -23.7001   -2.2279   41.6032 H         1 2U8         0.0303
     34 H         -21.1912   -2.0577   41.5212 H         1 2U8         0.0267
     35 H         -21.8454   -3.6886   41.1489 H         1 2U8         0.0267
     36 H         -20.1905   -2.7289   43.4420 H         1 2U8         0.0287
     37 H         -20.0875   -4.2412   42.4782 H         1 2U8         0.0287
     38 H         -21.2948   -5.3827   43.8271 H         1 2U8         0.0562
     39 H         -23.3213   -5.1719   44.5846 H         1 2U8         0.0361
     40 H         -23.8379   -3.8177   46.3608 H         1 2U8         0.0289
     41 H         -23.1508   -2.3449   45.5956 H         1 2U8         0.0289
     42 H         -21.2212   -2.7267   46.7798 H         1 2U8         0.0522
     43 H         -21.8257   -4.3213   47.3440 H         1 2U8         0.0522
     44 H         -18.5284   -6.0182   48.7982 H         1 2U8         0.0575
     45 H         -17.4804   -5.3002   47.5283 H         1 2U8         0.0575
     46 H         -18.3164   -6.8612   47.2263 H         1 2U8         0.0575
@<TRIPOS>BOND
     1    1    4 ar 
     2    1    6 ar 
     3    8    1 1  
     4   18    2 1  
     5    2   21 1  
     6    2   22 am 
     7   14    3 1  
     8    4    9 ar 
     9   22    5 2  
    10    6   11 ar 
    11   22    7 1  
    12    7   23 1  
    13   13    8 3  
    14    9   10 ar 
    15   11   10 ar 
    16   11   12 1  
    17   14   13 1  
    18   15   14 1  
    19   14   19 1  
    20   16   15 1  
    21   17   16 1  
    22   17   18 1  
    23   18   19 1  
    24   19   20 1  
    25   20   21 1  
    26    3   24 1  
    27    4   25 1  
    28    6   26 1  
    29    9   27 1  
    30   10   28 1  
    31   12   29 1  
    32   12   30 1  
    33   12   31 1  
    34   15   32 1  
    35   15   33 1  
    36   16   34 1  
    37   16   35 1  
    38   17   36 1  
    39   17   37 1  
    40   18   38 1  
    41   19   39 1  
    42   20   40 1  
    43   20   41 1  
    44   21   42 1  
    45   21   43 1  
    46   23   44 1  
    47   23   45 1  
    48   23   46 1  
@<TRIPOS>SUBSTRUCTURE
     1 2U8         1

