### 
### Created by X-TOOL on Mon Sep 10 21:13:18 2018
### 

@<TRIPOS>MOLECULE
4ool_ligand
   55    56     1     0     0
SMALL
GAST_HUCK


@<TRIPOS>ATOM
      1 C3         24.3500    4.2140   15.4100 C.2       1 2U2         0.0081
      2 C2         24.8960    3.1820   14.7260 C.2       1 2U2         0.0260
      3 C5         23.5120    3.8710   13.0940 C.2       1 2U2         0.1779
      4 C12        23.5940   -0.2790   15.9970 C.2       1 2U2        -0.0145
      5 C15        23.6090   -1.0880   18.6310 C.2       1 2U2         0.1049
      6 C14        22.5100   -0.4090   18.1930 C.2       1 2U2         0.1325
      7 C11        24.6920   -0.9390   16.4970 C.2       1 2U2         0.1303
      8 C13        22.4690    0.0090   16.8240 C.2       1 2U2         0.0929
      9 C23        28.7480    5.4570   17.4350 C.2       1 2U2         0.1272
     10 C6         25.8320    2.2220   15.3770 C.2       1 2U2         0.1489
     11 C29        32.3360    3.5670   16.9580 C.2       1 2U2         0.0874
     12 C20        26.4890    2.6010   16.6620 C.2       1 2U2         0.2189
     13 C34        33.1540    4.7390   16.6390 C.2       1 2U2         0.0774
     14 C32        34.1080    1.4980   18.9770 C.2       1 2U2         0.0368
     15 C10        25.9070   -1.1900   15.5960 C.3       1 2U2         0.1674
     16 C30        32.9000    2.1630   16.8670 C.3       1 2U2         0.0109
     17 C31        34.2550    2.0650   17.5850 C.3       1 2U2         0.0109
     18 C26        29.1280    3.2030   18.5310 C.3       1 2U2         0.1283
     19 C22        28.1470    4.1160   17.7890 C.3       1 2U2         0.1419
     20 N1         24.3810    2.9990   13.5050 N.2       1 2U2        -0.3138
     21 N7         25.9910    1.0530   14.8150 N.2       1 2U2        -0.1260
     22 N24        31.1250    3.8170   17.3220 N.2       1 2U2        -0.1579
     23 N16        24.6660   -1.3830   17.8020 N.pl3     1 2U2        -0.1204
     24 N9         22.8960    3.8870   11.8550 N.pl3     1 2U2        -0.2979
     25 N21        27.4530    3.5480   16.6180 N.am      1 2U2        -0.2634
     26 O36        33.7550    4.8060   15.5720 O.co2     1 2U2        -0.5593
     27 O33        34.4640    0.3520   19.2140 O.co2     1 2U2        -0.5688
     28 O17        21.5110    0.6200   16.3630 O.2       1 2U2        -0.4558
     29 O27        28.8400    5.8010   16.2810 O.2       1 2U2        -0.3724
     30 O28        26.1450    2.0850   17.7120 O.2       1 2U2        -0.3862
     31 O35        33.2030    5.6430   17.4580 O.co2     1 2U2        -0.5593
     32 O37        33.6310    2.1860   19.8690 O.co2     1 2U2        -0.5688
     33 O19        21.4840   -0.1530   19.0610 O.3       1 2U2        -0.3474
     34 O18        25.7210   -2.1860   18.3280 O.3       1 2U2        -0.2413
     35 O8         26.7310   -0.0170   15.3720 O.3       1 2U2        -0.2069
     36 O25        30.1810    2.8180   17.6540 O.3       1 2U2        -0.2420
     37 S4         23.2030    5.0400   14.3660 S.3       1 2U2         0.0150
     38 H1         24.5830    4.4876   16.4380 H         1 2U2         0.0635
     39 H2         23.5837    0.0286   14.9524 H         1 2U2         0.0200
     40 H3         23.6508   -1.4070   19.6714 H         1 2U2         0.0953
     41 H4         29.1004    6.1174   18.2259 H         1 2U2         0.1374
     42 H5         25.5458   -1.5496   14.6212 H         1 2U2         0.0912
     43 H6         26.5304   -1.9656   16.0649 H         1 2U2         0.0912
     44 H7         33.0343    1.8974   15.8080 H         1 2U2         0.0455
     45 H8         32.1939    1.4609   17.3344 H         1 2U2         0.0455
     46 H9         34.9211    1.4119   17.0022 H         1 2U2         0.0453
     47 H10        34.6957    3.0705   17.6540 H         1 2U2         0.0453
     48 H11        28.5981    2.3054   18.8824 H         1 2U2         0.0690
     49 H12        29.5485    3.7416   19.3930 H         1 2U2         0.0690
     50 H13        27.3526    4.3233   18.5211 H         1 2U2         0.0818
     51 H14        23.1272    3.1671   11.1556 H         1 2U2         0.1863
     52 H15        22.2063    4.6188   11.6322 H         1 2U2         0.1863
     53 H16        27.7174    3.8918   15.7169 H         1 2U2         0.1877
     54 H17        21.6981   -0.5074   19.9160 H         1 2U2         0.2376
     55 H18        25.5350   -2.3964   19.2355 H         1 2U2         0.2603
@<TRIPOS>BOND
     1    2    1 2  
     2    1   37 1  
     3   10    2 1  
     4    2   20 1  
     5   20    3 2  
     6    3   24 1  
     7    3   37 1  
     8    7    4 2  
     9    4    8 1  
    10    5    6 2  
    11   23    5 1  
    12    8    6 1  
    13    6   33 1  
    14   15    7 1  
    15    7   23 1  
    16    8   28 2  
    17   19    9 1  
    18    9   29 2  
    19   12   10 1  
    20   10   21 2  
    21   11   13 1  
    22   11   16 1  
    23   22   11 2  
    24   25   12 am 
    25   12   30 2  
    26   13   26 ar 
    27   13   31 ar 
    28   17   14 1  
    29   14   27 ar 
    30   14   32 ar 
    31   35   15 1  
    32   16   17 1  
    33   18   19 1  
    34   36   18 1  
    35   19   25 1  
    36   21   35 1  
    37   22   36 1  
    38   23   34 1  
    39    1   38 1  
    40    4   39 1  
    41    5   40 1  
    42    9   41 1  
    43   15   42 1  
    44   15   43 1  
    45   16   44 1  
    46   16   45 1  
    47   17   46 1  
    48   17   47 1  
    49   18   48 1  
    50   18   49 1  
    51   19   50 1  
    52   24   51 1  
    53   24   52 1  
    54   25   53 1  
    55   33   54 1  
    56   34   55 1  
@<TRIPOS>SUBSTRUCTURE
     1 2U2         1

