### 
### Created by X-TOOL on Mon Sep 10 21:13:17 2018
### 

@<TRIPOS>MOLECULE
4oon_ligand
   67    69     1     0     0
SMALL
GAST_HUCK


@<TRIPOS>ATOM
      1 C41       -41.1270   12.5730   -4.6300 C.ar      1 2U4        -0.0161
      2 C42       -41.8990   10.4710   -2.9010 C.ar      1 2U4        -0.0161
      3 C7        -33.6450   10.9610    7.7630 C.2       1 2U4         0.0081
      4 C40       -40.2220   12.0620   -3.6930 C.ar      1 2U4         0.0536
      5 C39       -40.6000   10.9850   -2.8360 C.ar      1 2U4         0.0536
      6 C44       -42.4280   12.0620   -4.6770 C.ar      1 2U4         0.1271
      7 C43       -42.8130   11.0120   -3.8180 C.ar      1 2U4         0.1271
      8 C8        -34.9980   10.9640    7.6530 C.2       1 2U4         0.0260
      9 C10       -34.8900   11.9780    9.6460 C.2       1 2U4         0.1779
     10 C35       -38.8010   12.3400   -3.3830 C.2       1 2U4         0.2314
     11 C36       -39.3870   10.6310   -2.0540 C.2       1 2U4         0.2314
     12 C25       -32.9440   10.4360    2.9570 C.2       1 2U4         0.1272
     13 C12       -35.7430   10.4150    6.4840 C.2       1 2U4         0.1485
     14 C1        -35.3190   11.9900   -0.0630 C.2       1 2U4         0.0900
     15 C13       -34.9500    9.6720    5.4840 C.2       1 2U4         0.2188
     16 C30       -34.2640   12.8680   -0.5840 C.2       1 2U4         0.0775
     17 C4        -36.4820   10.0460   -2.1510 C.2       1 2U4         0.0667
     18 C17       -40.0960   10.4370    5.8640 C.2       1 2U4         0.0845
     19 C18       -39.4630   10.0960    3.4780 C.3       1 2U4        -0.0232
     20 C19       -38.8500   12.2100    4.5370 C.3       1 2U4        -0.0232
     21 C2        -36.7790   12.0190   -0.4990 C.3       1 2U4         0.0384
     22 C28       -34.8090    9.1050    1.9450 C.3       1 2U4         0.1283
     23 C24       -34.0600    9.4720    3.2300 C.3       1 2U4         0.1419
     24 C3        -36.9890   11.4440   -1.9140 C.3       1 2U4         0.1290
     25 C16       -39.0210   10.7070    4.8120 C.3       1 2U4         0.1563
     26 N9        -35.6260   11.5120    8.6890 N.2       1 2U4        -0.3138
     27 N14       -37.0320   10.6250    6.3180 N.2       1 2U4        -0.1296
     28 N26       -34.8740   11.1610    0.8110 N.2       1 2U4        -0.1578
     29 N34       -38.3750   11.4730   -2.4230 N.am      1 2U4        -0.1692
     30 N11       -35.3970   12.5750   10.7850 N.pl3     1 2U4        -0.2979
     31 N23       -34.9120   10.1200    4.2180 N.am      1 2U4        -0.2634
     32 O31       -34.4150   14.0760   -0.6280 O.co2     1 2U4        -0.5593
     33 O33       -36.4830    9.2060   -1.2550 O.co2     1 2U4        -0.5661
     34 O20       -40.0450    9.3960    6.5190 O.co2     1 2U4        -0.5445
     35 O37       -38.1500   13.2400   -3.8970 O.2       1 2U4        -0.3720
     36 O38       -39.3430    9.7320   -1.2200 O.2       1 2U4        -0.3720
     37 O29       -33.0560   11.6040    3.2440 O.2       1 2U4        -0.3724
     38 O22       -34.3180    8.6960    5.8460 O.2       1 2U4        -0.3862
     39 O32       -33.1960   12.3620   -0.9200 O.co2     1 2U4        -0.5593
     40 O5        -36.1440    9.7590   -3.2910 O.co2     1 2U4        -0.5661
     41 O21       -41.0220   11.2290    6.0740 O.co2     1 2U4        -0.5445
     42 O45       -43.3250   12.5870   -5.5540 O.3       1 2U4        -0.3324
     43 O46       -44.0790   10.5140   -3.8700 O.3       1 2U4        -0.3324
     44 O27       -35.6290   10.1820    1.4880 O.3       1 2U4        -0.2420
     45 O15       -37.7530   10.1050    5.1890 O.3       1 2U4        -0.2177
     46 S6        -33.1880   11.7210    9.2860 S.3       1 2U4         0.0150
     47 H1        -40.8225   13.3577   -5.3131 H         1 2U4         0.0576
     48 H2        -42.1979    9.6598   -2.2471 H         1 2U4         0.0576
     49 H3        -32.9526   10.5540    7.0276 H         1 2U4         0.0635
     50 H4        -32.0241   10.0797    2.4957 H         1 2U4         0.1374
     51 H5        -38.6939   10.2862    2.7149 H         1 2U4         0.0256
     52 H6        -40.4130   10.5520    3.1627 H         1 2U4         0.0256
     53 H7        -39.5992    9.0112    3.5988 H         1 2U4         0.0256
     54 H8        -38.5307   12.7175    5.4593 H         1 2U4         0.0256
     55 H9        -39.8078   12.6322    4.1990 H         1 2U4         0.0256
     56 H10       -38.0891   12.3557    3.7561 H         1 2U4         0.0256
     57 H11       -37.1291   13.0617   -0.4874 H         1 2U4         0.0482
     58 H12       -37.3709   11.4255    0.2134 H         1 2U4         0.0482
     59 H13       -35.4459    8.2297    2.1407 H         1 2U4         0.0690
     60 H14       -34.0761    8.8577    1.1629 H         1 2U4         0.0690
     61 H15       -33.6481    8.5472    3.6602 H         1 2U4         0.0818
     62 H16       -36.4014   12.1029   -2.5702 H         1 2U4         0.0800
     63 H17       -36.4150   12.6792   10.9022 H         1 2U4         0.1863
     64 H18       -34.7568   12.9156   11.5165 H         1 2U4         0.1863
     65 H19       -35.4727   10.9041    3.9519 H         1 2U4         0.1877
     66 H20       -42.9092   13.2795   -6.0540 H         1 2U4         0.2462
     67 H21       -44.1706    9.8173   -3.2306 H         1 2U4         0.2462
@<TRIPOS>BOND
     1    4    1 ar 
     2    1    6 ar 
     3    5    2 ar 
     4    2    7 ar 
     5    8    3 2  
     6    3   46 1  
     7    5    4 ar 
     8   10    4 1  
     9   11    5 1  
    10    7    6 ar 
    11    6   42 1  
    12    7   43 1  
    13   13    8 1  
    14    8   26 1  
    15   26    9 2  
    16    9   30 1  
    17    9   46 1  
    18   29   10 am 
    19   10   35 2  
    20   29   11 am 
    21   11   36 2  
    22   23   12 1  
    23   12   37 2  
    24   15   13 1  
    25   13   27 2  
    26   14   16 1  
    27   14   21 1  
    28   28   14 2  
    29   31   15 am 
    30   15   38 2  
    31   16   32 ar 
    32   16   39 ar 
    33   24   17 1  
    34   17   33 ar 
    35   17   40 ar 
    36   25   18 1  
    37   18   34 ar 
    38   18   41 ar 
    39   25   19 1  
    40   25   20 1  
    41   21   24 1  
    42   22   23 1  
    43   44   22 1  
    44   23   31 1  
    45   24   29 1  
    46   45   25 1  
    47   27   45 1  
    48   28   44 1  
    49    1   47 1  
    50    2   48 1  
    51    3   49 1  
    52   12   50 1  
    53   19   51 1  
    54   19   52 1  
    55   19   53 1  
    56   20   54 1  
    57   20   55 1  
    58   20   56 1  
    59   21   57 1  
    60   21   58 1  
    61   22   59 1  
    62   22   60 1  
    63   23   61 1  
    64   24   62 1  
    65   30   63 1  
    66   30   64 1  
    67   31   65 1  
    68   42   66 1  
    69   43   67 1  
@<TRIPOS>SUBSTRUCTURE
     1 2U4         1

