### 
### Created by X-TOOL on Mon Sep 10 21:13:20 2018
### 

@<TRIPOS>MOLECULE
4oow_ligand
   14    14     1     0     0
SMALL
GAST_HUCK


@<TRIPOS>ATOM
      1 C1        -31.3470    1.5740   15.7400 C.ar      1 CAQ        -0.0819
      2 C2        -31.4030    0.2450   15.3170 C.ar      1 CAQ        -0.0417
      3 C3        -30.2630   -0.5690   15.4350 C.ar      1 CAQ         0.1160
      4 O3        -30.2230   -1.8830   15.0630 O.3       1 CAQ        -0.3369
      5 C4        -29.0820   -0.0630   15.9640 C.ar      1 CAQ         0.1160
      6 O4        -28.0420   -0.9430   16.0380 O.3       1 CAQ        -0.3369
      7 C5        -29.0210    1.2710   16.3820 C.ar      1 CAQ        -0.0417
      8 C6        -30.1570    2.0860   16.2670 C.ar      1 CAQ        -0.0819
      9 H         -32.2231    2.2073   15.6603 H         1 CAQ         0.0495
     10 H         -32.3195   -0.1568   14.9003 H         1 CAQ         0.0509
     11 H         -29.3558   -2.2325   15.2317 H         1 CAQ         0.2442
     12 H         -28.2882   -1.6769   16.5887 H         1 CAQ         0.2442
     13 H         -28.1014    1.6723   16.7923 H         1 CAQ         0.0509
     14 H         -30.1121    3.1201   16.5889 H         1 CAQ         0.0495
@<TRIPOS>BOND
     1    1    2 ar 
     2    1    8 ar 
     3    2    3 ar 
     4    3    4 1  
     5    3    5 ar 
     6    5    6 1  
     7    5    7 ar 
     8    7    8 ar 
     9    1    9 1  
    10    2   10 1  
    11    4   11 1  
    12    6   12 1  
    13    7   13 1  
    14    8   14 1  
@<TRIPOS>SUBSTRUCTURE
     1 CAQ         1

