### 
### Created by X-TOOL on Mon Sep 10 21:13:19 2018
### 

@<TRIPOS>MOLECULE
4op1_ligand
   42    44     1     0     0
SMALL
GAST_HUCK


@<TRIPOS>ATOM
      1 C16       -40.1950   28.2580   15.7480 C.ar      1 2UW        -0.0285
      2 C15       -39.5490   29.4640   15.8450 C.ar      1 2UW        -0.0145
      3 C14       -38.5070   29.7290   14.9960 C.ar      1 2UW         0.1086
      4 N3        -37.9220   30.9100   15.1100 N.pl3     1 2UW        -0.3221
      5 N2        -38.1100   28.8200   14.0680 N.ar      1 2UW        -0.2837
      6 C13       -38.7110   27.6300   13.9890 C.ar      1 2UW         0.0214
      7 C12       -39.7900   27.3310   14.8090 C.ar      1 2UW         0.1112
      8 S2        -40.5680   25.7790   14.7530 S.o2      1 2UW         0.0457
      9 O2        -41.9980   25.9340   14.9350 O.2       1 2UW        -0.1609
     10 O3        -40.1080   25.2950   13.4510 O.2       1 2UW        -0.1609
     11 C1        -40.0130   24.8640   16.0300 C.2       1 2UW         0.1717
     12 S1        -38.4360   24.2240   16.1490 S.3       1 2UW         0.0150
     13 C2        -40.7520   24.5810   17.1170 C.2       1 2UW        -0.0209
     14 C4        -40.0570   23.8560   18.0170 C.2       1 2UW        -0.0386
     15 C3        -38.7820   23.5370   17.6670 C.2       1 2UW         0.0806
     16 C5        -37.8500   22.8090   18.4150 C.ar      1 2UW         0.0971
     17 C9        -36.5770   22.4500   17.9180 C.ar      1 2UW         0.0930
     18 C8        -35.7010   21.7460   18.7450 C.ar      1 2UW        -0.0169
     19 CL1       -36.0400   22.8460   16.2770 Cl        1 2UW        -0.0569
     20 N1        -38.1910   22.4760   19.6830 N.ar      1 2UW        -0.2655
     21 C6        -37.3520   21.8050   20.4770 C.ar      1 2UW         0.0273
     22 C7        -36.0920   21.4040   20.0300 C.ar      1 2UW        -0.0057
     23 C10       -35.1250   20.6630   20.9350 C.3       1 2UW         0.1355
     24 C17       -35.7300   19.5280   21.6780 C.3       1 2UW         0.3841
     25 F2        -36.5080   20.1070   22.5730 F         1 2UW        -0.1790
     26 F3        -36.4210   18.7170   20.9140 F         1 2UW        -0.1790
     27 F1        -34.6990   18.8860   22.2030 F         1 2UW        -0.1790
     28 C11       -34.6000   21.6100   22.0260 C.3       1 2UW        -0.0607
     29 O1        -34.1170   20.0970   20.1490 O.3       1 2UW        -0.4287
     30 H         -41.0240   28.0328   16.4091 H         1 2UW         0.0718
     31 H         -39.8582   30.1962   16.5821 H         1 2UW         0.0611
     32 H         -37.1340   31.1560   14.4940 H         1 2UW         0.1766
     33 H         -38.2545   31.5836   15.8147 H         1 2UW         0.1766
     34 H         -38.3536   26.8925   13.2795 H         1 2UW         0.0801
     35 H         -41.7848   24.8982   17.2538 H         1 2UW         0.0526
     36 H         -40.4903   23.5448   18.9664 H         1 2UW         0.0648
     37 H         -34.7177   21.4674   18.3836 H         1 2UW         0.0898
     38 H         -37.6562   21.5669   21.4898 H         1 2UW         0.1049
     39 H         -34.1313   22.4870   21.5557 H         1 2UW         0.0133
     40 H         -33.8565   21.0832   22.6421 H         1 2UW         0.0133
     41 H         -35.4365   21.9376   22.6608 H         1 2UW         0.0133
     42 H         -34.4986   19.4582   19.5584 H         1 2UW         0.1920
@<TRIPOS>BOND
     1    1    2 ar 
     2    1    7 ar 
     3    2    3 ar 
     4    3    4 1  
     5    3    5 ar 
     6    5    6 ar 
     7    6    7 ar 
     8    7    8 1  
     9    8    9 2  
    10    8   10 2  
    11    8   11 1  
    12   11   12 1  
    13   11   13 2  
    14   12   15 1  
    15   13   14 1  
    16   14   15 2  
    17   15   16 1  
    18   16   17 ar 
    19   16   20 ar 
    20   17   18 ar 
    21   17   19 1  
    22   18   22 ar 
    23   20   21 ar 
    24   21   22 ar 
    25   22   23 1  
    26   23   24 1  
    27   23   28 1  
    28   23   29 1  
    29   24   25 1  
    30   24   26 1  
    31   24   27 1  
    32    1   30 1  
    33    2   31 1  
    34    4   32 1  
    35    4   33 1  
    36    6   34 1  
    37   13   35 1  
    38   14   36 1  
    39   18   37 1  
    40   21   38 1  
    41   28   39 1  
    42   28   40 1  
    43   28   41 1  
    44   29   42 1  
@<TRIPOS>SUBSTRUCTURE
     1 2UW         1

