### 
### Created by X-TOOL on Mon Sep 10 21:13:20 2018
### 

@<TRIPOS>MOLECULE
4op2_ligand
   46    48     1     0     0
SMALL
GAST_HUCK


@<TRIPOS>ATOM
      1 C19       -44.4820  -20.6830   15.7820 C.ar      1 2UX        -0.0288
      2 C18       -45.2190  -19.5610   15.9580 C.ar      1 2UX        -0.0146
      3 C17       -44.9680  -18.4820   15.1110 C.ar      1 2UX         0.1086
      4 N2        -45.7150  -17.4150   15.2580 N.pl3     1 2UX        -0.3221
      5 N1        -44.0320  -18.5600   14.1350 N.ar      1 2UX        -0.2837
      6 C16       -43.3140  -19.6570   13.9690 C.ar      1 2UX         0.0211
      7 C15       -43.5400  -20.7480   14.7650 C.ar      1 2UX         0.1077
      8 S1        -42.5630  -22.1800   14.6780 S.o2      1 2UX         0.0275
      9 O2        -43.3870  -23.3290   15.1580 O.2       1 2UX        -0.1642
     10 O3        -42.0090  -22.2940   13.3620 O.2       1 2UX        -0.1642
     11 C5        -41.3300  -21.8880   15.7760 C.ar      1 2UX         0.0984
     12 C6        -40.4380  -20.8520   15.5020 C.ar      1 2UX        -0.0299
     13 C1        -39.4050  -20.5630   16.3890 C.ar      1 2UX        -0.0435
     14 C4        -41.1860  -22.6390   16.9240 C.ar      1 2UX        -0.0299
     15 C3        -40.1660  -22.3180   17.8200 C.ar      1 2UX        -0.0435
     16 C2        -39.2540  -21.2820   17.5630 C.ar      1 2UX         0.0023
     17 C7        -38.1950  -20.9810   18.4690 C.ar      1 2UX         0.0101
     18 C12       -37.1820  -20.0910   18.1340 C.ar      1 2UX        -0.0261
     19 C11       -36.1210  -19.8180   19.0100 C.ar      1 2UX        -0.0389
     20 C8        -38.1460  -21.5400   19.7580 C.ar      1 2UX        -0.0261
     21 C9        -37.1130  -21.2380   20.6550 C.ar      1 2UX        -0.0389
     22 C10       -36.0880  -20.3800   20.2800 C.ar      1 2UX        -0.0204
     23 C13       -34.9480  -20.0300   21.2370 C.3       1 2UX         0.1408
     24 C20       -34.3110  -21.2170   21.9250 C.3       1 2UX         0.3892
     25 F2        -35.1640  -21.7730   22.7530 F         1 2UX        -0.1774
     26 F3        -33.8980  -22.0930   21.0090 F         1 2UX        -0.1774
     27 F1        -33.2700  -20.7420   22.6010 F         1 2UX        -0.1774
     28 C14       -35.4610  -19.0300   22.2980 C.3       1 2UX        -0.0555
     29 O1        -33.8490  -19.5710   20.4950 O.3       1 2UX        -0.4215
     30 H         -44.6283  -21.5336   16.4378 H         1 2UX         0.0718
     31 H         -45.9776  -19.5034   16.7302 H         1 2UX         0.0611
     32 H         -45.5650  -16.5942   14.6542 H         1 2UX         0.1766
     33 H         -46.4520  -17.3974   15.9773 H         1 2UX         0.1766
     34 H         -42.5471  -19.6931   13.2037 H         1 2UX         0.0801
     35 H         -40.5494  -20.2694   14.5947 H         1 2UX         0.0652
     36 H         -38.7094  -19.7644   16.1578 H         1 2UX         0.0673
     37 H         -41.8558  -23.4668   17.1271 H         1 2UX         0.0652
     38 H         -40.0751  -22.8841   18.7400 H         1 2UX         0.0673
     39 H         -37.2124  -19.5948   17.1707 H         1 2UX         0.0700
     40 H         -35.3186  -19.1618   18.6927 H         1 2UX         0.0838
     41 H         -38.9289  -22.2234   20.0663 H         1 2UX         0.0700
     42 H         -37.1141  -21.6763   21.6464 H         1 2UX         0.0838
     43 H         -35.9238  -18.1677   21.7957 H         1 2UX         0.0151
     44 H         -34.6181  -18.6857   22.9153 H         1 2UX         0.0151
     45 H         -36.2063  -19.5247   22.9381 H         1 2UX         0.0151
     46 H         -33.5604  -20.2552   19.9024 H         1 2UX         0.1945
@<TRIPOS>BOND
     1    1    2 ar 
     2    1    7 ar 
     3    2    3 ar 
     4    3    4 1  
     5    3    5 ar 
     6    5    6 ar 
     7    6    7 ar 
     8    7    8 1  
     9    8    9 2  
    10    8   10 2  
    11    8   11 1  
    12   11   12 ar 
    13   11   14 ar 
    14   12   13 ar 
    15   13   16 ar 
    16   14   15 ar 
    17   15   16 ar 
    18   16   17 1  
    19   17   18 ar 
    20   17   20 ar 
    21   18   19 ar 
    22   19   22 ar 
    23   20   21 ar 
    24   21   22 ar 
    25   22   23 1  
    26   23   24 1  
    27   23   28 1  
    28   23   29 1  
    29   24   25 1  
    30   24   26 1  
    31   24   27 1  
    32    1   30 1  
    33    2   31 1  
    34    4   32 1  
    35    4   33 1  
    36    6   34 1  
    37   12   35 1  
    38   13   36 1  
    39   14   37 1  
    40   15   38 1  
    41   18   39 1  
    42   19   40 1  
    43   20   41 1  
    44   21   42 1  
    45   28   43 1  
    46   28   44 1  
    47   28   45 1  
    48   29   46 1  
@<TRIPOS>SUBSTRUCTURE
     1 2UX         1

