### 
### Created by X-TOOL on Mon Sep 10 21:13:19 2018
### 

@<TRIPOS>MOLECULE
4op3_ligand
   56    59     1     0     0
SMALL
GAST_HUCK


@<TRIPOS>ATOM
      1 C18        37.1600  -18.3760  -14.2690 C.ar      1 2UY        -0.0377
      2 C19        37.1530  -17.5320  -13.1530 C.ar      1 2UY        -0.0711
      3 C20        38.3110  -17.4060  -12.3690 C.ar      1 2UY        -0.0731
      4 C21        39.4650  -18.1130  -12.6980 C.ar      1 2UY        -0.0711
      5 C22        39.4880  -18.9480  -13.8130 C.ar      1 2UY        -0.0377
      6 C17        38.3240  -19.0980  -14.6060 C.ar      1 2UY         0.0651
      7 N3         38.2620  -19.8770  -15.7080 N.pl3     1 2UY        -0.2530
      8 C6         39.2110  -20.7310  -16.1330 C.ar      1 2UY         0.1570
      9 N2         40.2370  -21.0140  -15.3380 N.ar      1 2UY        -0.2436
     10 C10        41.1930  -21.8850  -15.6820 C.ar      1 2UY         0.1591
     11 S1         42.5180  -22.1780  -14.5970 S.o2      1 2UY         0.0397
     12 O2         42.0720  -22.3140  -13.1440 O.2       1 2UY        -0.1625
     13 O3         43.2720  -23.3680  -15.1350 O.2       1 2UY        -0.1625
     14 C12        43.5080  -20.7700  -14.7560 C.ar      1 2UY         0.1096
     15 C16        44.4510  -20.7190  -15.7850 C.ar      1 2UY        -0.0286
     16 C15        45.2570  -19.5880  -15.9230 C.ar      1 2UY        -0.0146
     17 C14        45.0790  -18.5390  -15.0230 C.ar      1 2UY         0.1086
     18 N5         45.8330  -17.4590  -15.1300 N.pl3     1 2UY        -0.3221
     19 N4         44.1430  -18.6270  -14.0300 N.ar      1 2UY        -0.2837
     20 C13        43.3500  -19.6960  -13.8790 C.ar      1 2UY         0.0213
     21 C9         41.1890  -22.5210  -16.9110 C.ar      1 2UY        -0.0131
     22 C8         40.1360  -22.2490  -17.7650 C.ar      1 2UY        -0.0312
     23 C7         39.1310  -21.3500  -17.3890 C.ar      1 2UY         0.0696
     24 C4         38.0800  -21.0710  -18.3040 C.ar      1 2UY         0.0812
     25 C3         38.1310  -21.5400  -19.6420 C.ar      1 2UY        -0.0046
     26 C2         37.0940  -21.2270  -20.5210 C.ar      1 2UY        -0.0250
     27 N1         37.0260  -20.2950  -17.9230 N.ar      1 2UY        -0.2617
     28 C5         36.0250  -19.9880  -18.7340 C.ar      1 2UY         0.0322
     29 C1         36.0210  -20.4480  -20.0550 C.ar      1 2UY         0.0048
     30 C11        34.8310  -20.0770  -20.9580 C.3       1 2UY         0.1461
     31 C24        34.4080  -21.3140  -21.7720 C.3       1 2UY         0.3904
     32 F2         33.8370  -22.1680  -20.9190 F         1 2UY        -0.1771
     33 F3         35.4820  -21.9090  -22.2830 F         1 2UY        -0.1771
     34 F1         33.5450  -20.9610  -22.7640 F         1 2UY        -0.1771
     35 C23        35.2170  -18.9030  -21.8600 C.3       1 2UY        -0.0543
     36 O1         33.7200  -19.7270  -20.1110 O.3       1 2UY        -0.4202
     37 H          36.2679  -18.4754  -14.8767 H         1 2UY         0.0539
     38 H          36.2577  -16.9780  -12.8949 H         1 2UY         0.0588
     39 H          38.3068  -16.7546  -11.5025 H         1 2UY         0.0522
     40 H          40.3515  -18.0129  -12.0822 H         1 2UY         0.0588
     41 H          40.3949  -19.4818  -14.0731 H         1 2UY         0.0539
     42 H          37.4063  -19.8109  -16.2774 H         1 2UY         0.2175
     43 H          44.5561  -21.5515  -16.4712 H         1 2UY         0.0718
     44 H          46.0012  -19.5272  -16.7088 H         1 2UY         0.0611
     45 H          45.7101  -16.6776  -14.4703 H         1 2UY         0.1766
     46 H          46.5436  -17.3986  -15.8731 H         1 2UY         0.1766
     47 H          42.6031  -19.7261  -13.0940 H         1 2UY         0.0801
     48 H          41.9805  -23.2058  -17.1933 H         1 2UY         0.0646
     49 H          40.0884  -22.7354  -18.7326 H         1 2UY         0.0766
     50 H          38.9702  -22.1376  -19.9790 H         1 2UY         0.0763
     51 H          37.1154  -21.5787  -21.5462 H         1 2UY         0.0926
     52 H          35.2053  -19.3777  -18.3726 H         1 2UY         0.1060
     53 H          35.5111  -18.0444  -21.2385 H         1 2UY         0.0153
     54 H          34.3573  -18.6243  -22.4871 H         1 2UY         0.0153
     55 H          36.0601  -19.1962  -22.5028 H         1 2UY         0.0153
     56 H          33.9468  -18.9643  -19.5921 H         1 2UY         0.1949
@<TRIPOS>BOND
     1    1    2 ar 
     2    1    6 ar 
     3    2    3 ar 
     4    3    4 ar 
     5    4    5 ar 
     6    5    6 ar 
     7    6    7 1  
     8    7    8 1  
     9    8    9 ar 
    10    8   23 ar 
    11    9   10 ar 
    12   10   11 1  
    13   10   21 ar 
    14   11   12 2  
    15   11   13 2  
    16   11   14 1  
    17   14   15 ar 
    18   14   20 ar 
    19   15   16 ar 
    20   16   17 ar 
    21   17   18 1  
    22   17   19 ar 
    23   19   20 ar 
    24   21   22 ar 
    25   22   23 ar 
    26   23   24 1  
    27   24   25 ar 
    28   24   27 ar 
    29   25   26 ar 
    30   26   29 ar 
    31   27   28 ar 
    32   28   29 ar 
    33   29   30 1  
    34   30   31 1  
    35   30   35 1  
    36   30   36 1  
    37   31   32 1  
    38   31   33 1  
    39   31   34 1  
    40    1   37 1  
    41    2   38 1  
    42    3   39 1  
    43    4   40 1  
    44    5   41 1  
    45    7   42 1  
    46   15   43 1  
    47   16   44 1  
    48   18   45 1  
    49   18   46 1  
    50   20   47 1  
    51   21   48 1  
    52   22   49 1  
    53   25   50 1  
    54   26   51 1  
    55   28   52 1  
    56   35   53 1  
    57   35   54 1  
    58   35   55 1  
    59   36   56 1  
@<TRIPOS>SUBSTRUCTURE
     1 2UY         1

