### 
### Created by X-TOOL on Mon Sep 10 21:13:18 2018
### 

@<TRIPOS>MOLECULE
4oq3_ligand
   47    50     1     0     0
SMALL
GAST_HUCK


@<TRIPOS>ATOM
      1 CL1        12.6180  -17.2620   11.2960 Cl        1 2V8        -0.0787
      2 C2         10.8720  -17.0360   11.3440 C.ar      1 2V8         0.0291
      3 C3         10.1730  -16.5090   10.2480 C.ar      1 2V8        -0.0194
      4 C5          8.7650  -16.3390   10.2770 C.ar      1 2V8         0.1019
      5 C6          8.0560  -16.7330   11.4270 C.ar      1 2V8        -0.0099
      6 C7          8.7610  -17.2580   12.5250 C.ar      1 2V8        -0.0635
      7 C9         10.1550  -17.4110   12.4790 C.ar      1 2V8        -0.0614
      8 C11         6.5460  -16.5980   11.5570 C.3       1 2V8        -0.0304
      9 N15         8.2210  -15.8220    9.1410 N.pl3     1 2V8        -0.1953
     10 C16         8.2530  -14.5830    8.7400 C.2       1 2V8         0.1554
     11 N17         7.6940  -14.4810    7.6310 N.2       1 2V8        -0.3013
     12 C18         7.2450  -15.7650    7.1950 C.2       1 2V8         0.0672
     13 C19         7.6590  -16.5470    8.2020 C.2       1 2V8         0.1135
     14 C20         7.4210  -18.0310    8.3300 C.ar      1 2V8         0.0101
     15 C21         8.4560  -18.9420    8.5090 C.ar      1 2V8        -0.0393
     16 C23         8.1350  -20.2910    8.6660 C.ar      1 2V8         0.0395
     17 C24         6.8080  -20.7450    8.6710 C.ar      1 2V8        -0.0493
     18 C26         5.7720  -19.8210    8.5020 C.ar      1 2V8        -0.0622
     19 C28         6.0890  -18.4700    8.3510 C.ar      1 2V8        -0.0532
     20 CL2         9.4400  -21.4100    8.8610 Cl        1 2V8        -0.0711
     21 C31         6.5790  -16.0550    5.9300 C.2       1 2V8         0.0572
     22 O32         6.3300  -17.2010    5.6320 O.co2     1 2V8        -0.5665
     23 O33         6.3030  -15.0790    5.0920 O.co2     1 2V8        -0.5665
     24 C35         8.7770  -13.3610    9.4560 C.ar      1 2V8         0.0229
     25 C36         9.6590  -12.4710    8.8350 C.ar      1 2V8        -0.0474
     26 C38        10.1200  -11.3340    9.5100 C.ar      1 2V8        -0.0444
     27 C39         9.6780  -11.0700   10.8070 C.ar      1 2V8        -0.0594
     28 C41         8.7780  -11.9390   11.4310 C.ar      1 2V8        -0.0663
     29 C43         8.3270  -13.0760   10.7550 C.ar      1 2V8        -0.0550
     30 C45        11.1080  -10.3920    8.8280 C.3       1 2V8        -0.0310
     31 H          10.7219  -16.2248    9.3575 H         1 2V8         0.0571
     32 H           8.2203  -17.5482   13.4186 H         1 2V8         0.0538
     33 H          10.6788  -17.8243   13.3333 H         1 2V8         0.0547
     34 H           6.1342  -16.1767   10.6280 H         1 2V8         0.0380
     35 H           6.3086  -15.9310   12.3989 H         1 2V8         0.0380
     36 H           6.1035  -17.5887   11.7380 H         1 2V8         0.0380
     37 H           9.4884  -18.6120    8.5262 H         1 2V8         0.0618
     38 H           6.5883  -21.7981    8.8041 H         1 2V8         0.0611
     39 H           4.7388  -20.1488    8.4885 H         1 2V8         0.0614
     40 H           5.2894  -17.7453    8.2479 H         1 2V8         0.0613
     41 H           9.9892  -12.6633    7.8206 H         1 2V8         0.0572
     42 H          10.0329  -10.1901   11.3313 H         1 2V8         0.0567
     43 H           8.4308  -11.7314   12.4367 H         1 2V8         0.0603
     44 H           7.6232  -13.7441   11.2381 H         1 2V8         0.0581
     45 H          11.3341  -10.7661    7.8186 H         1 2V8         0.0390
     46 H          12.0355  -10.3439    9.4175 H         1 2V8         0.0390
     47 H          10.6666   -9.3870    8.7562 H         1 2V8         0.0390
@<TRIPOS>BOND
     1    1    2 1  
     2    2    3 ar 
     3    2    7 ar 
     4    3    4 ar 
     5    4    5 ar 
     6    4    9 1  
     7    5    6 ar 
     8    5    8 1  
     9    6    7 ar 
    10    9   10 1  
    11    9   13 1  
    12   10   11 2  
    13   10   24 1  
    14   11   12 1  
    15   12   13 2  
    16   12   21 1  
    17   13   14 1  
    18   14   15 ar 
    19   14   19 ar 
    20   15   16 ar 
    21   16   17 ar 
    22   16   20 1  
    23   17   18 ar 
    24   18   19 ar 
    25   21   22 ar 
    26   21   23 ar 
    27   24   25 ar 
    28   24   29 ar 
    29   25   26 ar 
    30   26   27 ar 
    31   26   30 1  
    32   27   28 ar 
    33   28   29 ar 
    34    3   31 1  
    35    6   32 1  
    36    7   33 1  
    37    8   34 1  
    38    8   35 1  
    39    8   36 1  
    40   15   37 1  
    41   17   38 1  
    42   18   39 1  
    43   19   40 1  
    44   25   41 1  
    45   27   42 1  
    46   28   43 1  
    47   29   44 1  
    48   30   45 1  
    49   30   46 1  
    50   30   47 1  
@<TRIPOS>SUBSTRUCTURE
     1 2V8         1

