### 
### Created by X-TOOL on Mon Sep 10 21:13:18 2018
### 

@<TRIPOS>MOLECULE
4oq5_ligand
   59    63     1     0     0
SMALL
GAST_HUCK


@<TRIPOS>ATOM
      1 C1          7.4520    9.6770    9.7520 C.ar      1 2UU        -0.0723
      2 C2         11.4780    6.0150   10.2410 C.ar      1 2UU        -0.0625
      3 C3         12.4780    6.9480   10.3110 C.ar      1 2UU        -0.0621
      4 C4          6.9610    9.0530    8.6250 C.ar      1 2UU        -0.0697
      5 C5          7.8890    8.9380   10.8300 C.ar      1 2UU        -0.0697
      6 C6         11.6710    4.8560    9.5250 C.ar      1 2UU        -0.0558
      7 C7         13.6520    6.7160    9.6500 C.ar      1 2UU        -0.0542
      8 C8         11.7410    1.5730    9.0990 C.ar      1 2UU        -0.0700
      9 C9         14.2120    3.2610    7.4530 C.ar      1 2UU        -0.0613
     10 C10        10.7860    0.5910    8.9630 C.ar      1 2UU        -0.0641
     11 C11        15.2060    4.1990    7.5050 C.ar      1 2UU        -0.0585
     12 C12         6.8980    7.6760    8.5660 C.ar      1 2UU        -0.0285
     13 C13         7.8430    7.5660   10.7660 C.ar      1 2UU        -0.0285
     14 C14         8.8520    5.3340    7.7900 C.ar      1 2UU        -0.0266
     15 C15         7.0620    3.7780    8.1870 C.ar      1 2UU        -0.0266
     16 C16         9.2330    4.6190    6.6760 C.ar      1 2UU        -0.0425
     17 C17         7.4400    3.0630    7.0750 C.ar      1 2UU        -0.0425
     18 C18        11.4460    2.1920    6.8300 C.ar      1 2UU        -0.0372
     19 C19        12.8590    4.6070    8.8630 C.ar      1 2UU        -0.0155
     20 C20        13.8610    5.5570    8.9260 C.ar      1 2UU        -0.0104
     21 C21        12.0670    2.3880    8.0370 C.ar      1 2UU        -0.0371
     22 C22        13.0450    3.4420    8.1390 C.ar      1 2UU        -0.0210
     23 C23        10.1380    0.4200    7.7600 C.ar      1 2UU         0.0247
     24 C24        15.0500    5.3470    8.2550 C.ar      1 2UU        -0.0335
     25 C25        10.4890    1.2210    6.6980 C.ar      1 2UU         0.0761
     26 C26         7.3510    6.9400    9.6410 C.ar      1 2UU         0.1161
     27 C27         7.7670    4.9050    8.5360 C.ar      1 2UU         0.1162
     28 C28         8.5200    3.4920    6.3410 C.ar      1 2UU         0.1037
     29 C29         9.0750   -0.5910    7.5910 C.2       1 2UU         0.0523
     30 C30        16.1770    6.3370    8.2840 C.3       1 2UU        -0.0279
     31 N31         9.8260    1.1420    5.4470 N.am      1 2UU        -0.1853
     32 O32         8.1740   -0.4950    6.7660 O.co2     1 2UU        -0.5666
     33 O33         9.9810    3.3100    4.1870 O.2       1 2UU        -0.1458
     34 O34         7.7720    2.0460    4.3210 O.2       1 2UU        -0.1458
     35 O35         9.2620   -1.6150    8.4590 O.co2     1 2UU        -0.5666
     36 O36         7.3180    5.5590    9.6640 O.3       1 2UU        -0.2579
     37 S37         8.9910    2.5490    4.9240 S.o2      1 2UU         0.0857
     38 H           7.4947   10.7595    9.7906 H         1 2UU         0.0528
     39 H          10.5362    6.1892   10.7487 H         1 2UU         0.0618
     40 H          12.3405    7.8585   10.8830 H         1 2UU         0.0603
     41 H           6.6234    9.6460    7.7827 H         1 2UU         0.0590
     42 H           8.2647    9.4332   11.7181 H         1 2UU         0.0590
     43 H          10.8744    4.1223    9.4789 H         1 2UU         0.0610
     44 H          14.4392    7.4599    9.6947 H         1 2UU         0.0631
     45 H          12.2416    1.7064   10.0512 H         1 2UU         0.0477
     46 H          14.3520    2.3640    6.8607 H         1 2UU         0.0613
     47 H          10.5437   -0.0486    9.8040 H         1 2UU         0.0603
     48 H          16.1246    4.0393    6.9521 H         1 2UU         0.0537
     49 H           6.4987    7.1803    7.6885 H         1 2UU         0.0552
     50 H           8.1949    6.9741   11.6032 H         1 2UU         0.0552
     51 H           9.3969    6.2250    8.0803 H         1 2UU         0.0553
     52 H           6.2158    3.4558    8.7829 H         1 2UU         0.0553
     53 H          10.0774    4.9382    6.0759 H         1 2UU         0.0610
     54 H           6.8941    2.1737    6.7814 H         1 2UU         0.0610
     55 H          11.7132    2.8071    5.9783 H         1 2UU         0.0474
     56 H          17.0148    5.9566    7.6812 H         1 2UU         0.0409
     57 H          16.5094    6.4839    9.3222 H         1 2UU         0.0409
     58 H          15.8332    7.2963    7.8698 H         1 2UU         0.0409
     59 H           9.8437    0.3077    4.8960 H         1 2UU         0.2181
@<TRIPOS>BOND
     1    4    1 ar 
     2    5    1 ar 
     3    2    3 ar 
     4    6    2 ar 
     5    7    3 ar 
     6   12    4 ar 
     7   13    5 ar 
     8   19    6 ar 
     9   20    7 ar 
    10   10    8 ar 
    11   21    8 ar 
    12    9   11 ar 
    13   22    9 ar 
    14   23   10 ar 
    15   11   24 ar 
    16   26   12 ar 
    17   26   13 ar 
    18   16   14 ar 
    19   14   27 ar 
    20   17   15 ar 
    21   15   27 ar 
    22   28   16 ar 
    23   28   17 ar 
    24   18   21 ar 
    25   25   18 ar 
    26   19   20 ar 
    27   22   19 ar 
    28   20   24 ar 
    29   21   22 1  
    30   25   23 ar 
    31   23   29 1  
    32   24   30 1  
    33   31   25 1  
    34   36   26 1  
    35   27   36 1  
    36   37   28 1  
    37   29   32 ar 
    38   29   35 ar 
    39   31   37 am 
    40   37   33 2  
    41   37   34 2  
    42    1   38 1  
    43    2   39 1  
    44    3   40 1  
    45    4   41 1  
    46    5   42 1  
    47    6   43 1  
    48    7   44 1  
    49    8   45 1  
    50    9   46 1  
    51   10   47 1  
    52   11   48 1  
    53   12   49 1  
    54   13   50 1  
    55   14   51 1  
    56   15   52 1  
    57   16   53 1  
    58   17   54 1  
    59   18   55 1  
    60   30   56 1  
    61   30   57 1  
    62   30   58 1  
    63   31   59 1  
@<TRIPOS>SUBSTRUCTURE
     1 2UU         1

