### 
### Created by X-TOOL on Mon Sep 10 21:13:19 2018
### 

@<TRIPOS>MOLECULE
4oq6_ligand
   34    35     1     0     0
SMALL
GAST_HUCK


@<TRIPOS>ATOM
      1 C1         14.3780    9.4410   10.2100 C.ar      1 2UV        -0.0626
      2 C2         12.9100   11.0950   10.9600 C.ar      1 2UV        -0.0626
      3 C3         11.9800    7.8870    9.2710 C.ar      1 2UV        -0.0605
      4 C4         15.4270   10.1540   10.7470 C.ar      1 2UV        -0.0606
      5 C5         13.9520   11.8350   11.4860 C.ar      1 2UV        -0.0606
      6 C6         10.8690    7.2610    8.7350 C.ar      1 2UV        -0.0285
      7 C7         10.7790    9.9000    9.4880 C.ar      1 2UV        -0.0487
      8 C8         13.0870    9.8980   10.2880 C.ar      1 2UV        -0.0302
      9 C9         11.9620    9.2130    9.6690 C.ar      1 2UV        -0.0284
     10 C10         9.6600    9.3100    8.9290 C.ar      1 2UV         0.0395
     11 C11        15.2480   11.3710   11.3620 C.ar      1 2UV        -0.0435
     12 C12         9.6990    7.9710    8.5880 C.ar      1 2UV         0.1036
     13 C13         8.4180   10.0920    8.7830 C.2       1 2UV         0.0585
     14 C14        18.0980   13.8840   11.4220 C.3       1 2UV        -0.0635
     15 C15        16.4060   12.1330   11.9410 C.3       1 2UV        -0.0196
     16 C16        17.0140   12.9890   10.8550 C.3       1 2UV        -0.0461
     17 O17         8.4300   11.2970    9.1250 O.co2     1 2UV        -0.5642
     18 O18         8.5900    7.3720    8.0130 O.3       1 2UV        -0.3290
     19 O19         7.4370    9.4900    8.2820 O.co2     1 2UV        -0.5642
     20 H          14.5771    8.4976    9.7146 H         1 2UV         0.0595
     21 H          11.9008   11.4720   11.0801 H         1 2UV         0.0595
     22 H          12.8968    7.3196    9.3834 H         1 2UV         0.0613
     23 H          16.4276    9.7419   10.6827 H         1 2UV         0.0556
     24 H          13.7542   12.7729   11.9923 H         1 2UV         0.0556
     25 H          10.9193    6.2210    8.4335 H         1 2UV         0.0553
     26 H          10.7249   10.9383    9.7947 H         1 2UV         0.0626
     27 H          18.5262   14.4973   10.6155 H         1 2UV         0.0231
     28 H          18.8884   13.2639   11.8700 H         1 2UV         0.0231
     29 H          17.6662   14.5403   12.1919 H         1 2UV         0.0231
     30 H          17.1596   11.4281   12.3220 H         1 2UV         0.0426
     31 H          16.0538   12.7732   12.7632 H         1 2UV         0.0426
     32 H          17.4505   12.3375   10.0837 H         1 2UV         0.0285
     33 H          16.2282   13.6139   10.4055 H         1 2UV         0.0285
     34 H           7.8520    7.4375    8.6077 H         1 2UV         0.2503
@<TRIPOS>BOND
     1    4    1 ar 
     2    1    8 ar 
     3    5    2 ar 
     4    2    8 ar 
     5    3    6 ar 
     6    9    3 ar 
     7   11    4 ar 
     8   11    5 ar 
     9    6   12 ar 
    10    9    7 ar 
    11    7   10 ar 
    12    8    9 1  
    13   10   12 ar 
    14   10   13 1  
    15   15   11 1  
    16   12   18 1  
    17   13   17 ar 
    18   13   19 ar 
    19   16   14 1  
    20   15   16 1  
    21    1   20 1  
    22    2   21 1  
    23    3   22 1  
    24    4   23 1  
    25    5   24 1  
    26    6   25 1  
    27    7   26 1  
    28   14   27 1  
    29   14   28 1  
    30   14   29 1  
    31   15   30 1  
    32   15   31 1  
    33   16   32 1  
    34   16   33 1  
    35   18   34 1  
@<TRIPOS>SUBSTRUCTURE
     1 2UV         1

