### 
### Created by X-TOOL on Mon Sep 10 21:13:18 2018
### 

@<TRIPOS>MOLECULE
4or0_ligand
   30    31     1     0     0
SMALL
GAST_HUCK


@<TRIPOS>ATOM
      1 C1         10.2610   21.1540  123.3530 C.ar      1 NPS         0.0895
      2 O2         10.2250   22.4390  123.8430 O.3       1 NPS        -0.3221
      3 C2         11.3730   20.7610  122.5500 C.ar      1 NPS        -0.0299
      4 C14         9.3640   15.0470  121.4540 C.3       1 NPS         0.0406
      5 C3         11.4210   19.4830  122.0160 C.ar      1 NPS        -0.0598
      6 C4         10.3500   18.6070  122.2980 C.ar      1 NPS        -0.0322
      7 C5          9.2780   19.0120  123.0840 C.ar      1 NPS        -0.0327
      8 C6          9.1950   20.2980  123.6370 C.ar      1 NPS        -0.0317
      9 C7         10.3740   17.3120  121.7690 C.ar      1 NPS        -0.0572
     10 C8          9.3310   16.4380  122.0030 C.ar      1 NPS        -0.0301
     11 C10         8.0700   14.8320  120.7620 C.3       1 NPS        -0.0414
     12 C13         8.2250   18.1130  123.3380 C.ar      1 NPS        -0.0624
     13 C11         8.2540   16.8400  122.8030 C.ar      1 NPS        -0.0588
     14 C12        11.1180   23.3290  123.2330 C.3       1 NPS         0.0592
     15 O           9.1580   12.8290  122.3400 O.co2     1 NPS        -0.5662
     16 OXT         9.5770   14.4420  123.7660 O.co2     1 NPS        -0.5662
     17 C15         9.3840   14.0520  122.5750 C.2       1 NPS         0.0487
     18 H          12.1785   21.4605  122.3580 H         1 NPS         0.0583
     19 H          10.2216   14.9078  120.7793 H         1 NPS         0.0615
     20 H          12.2551   19.1656  121.4007 H         1 NPS         0.0599
     21 H           8.3548   20.6085  124.2475 H         1 NPS         0.0493
     22 H          11.2190   16.9920  121.1701 H         1 NPS         0.0528
     23 H           7.9838   15.5338  119.9194 H         1 NPS         0.0271
     24 H           7.2438   15.0032  121.4678 H         1 NPS         0.0271
     25 H           8.0226   13.7995  120.3855 H         1 NPS         0.0271
     26 H           7.3888   18.4208  123.9554 H         1 NPS         0.0587
     27 H           7.4416   16.1507  123.0027 H         1 NPS         0.0578
     28 H          11.0143   24.3238  123.6908 H         1 NPS         0.0577
     29 H          10.8934   23.3948  122.1582 H         1 NPS         0.0577
     30 H          12.1477   22.9675  123.3710 H         1 NPS         0.0577
@<TRIPOS>BOND
     1    1    2 1  
     2    3    1 ar 
     3    8    1 ar 
     4    2   14 1  
     5    5    3 ar 
     6   10    4 1  
     7    4   11 1  
     8    4   17 1  
     9    6    5 ar 
    10    6    7 ar 
    11    9    6 ar 
    12    7    8 ar 
    13    7   12 ar 
    14    9   10 ar 
    15   10   13 ar 
    16   12   13 ar 
    17   17   15 ar 
    18   17   16 ar 
    19    3   18 1  
    20    4   19 1  
    21    5   20 1  
    22    8   21 1  
    23    9   22 1  
    24   11   23 1  
    25   11   24 1  
    26   11   25 1  
    27   12   26 1  
    28   13   27 1  
    29   14   28 1  
    30   14   29 1  
    31   14   30 1  
@<TRIPOS>SUBSTRUCTURE
     1 NPS         1

