### 
### Created by X-TOOL on Mon Sep 10 21:13:18 2018
### 

@<TRIPOS>MOLECULE
4osf_ligand
   23    23     1     0     0
SMALL
GAST_HUCK


@<TRIPOS>ATOM
      1 O1         52.1800  -14.1370   -2.1680 O.3       1 4MT        -0.3376
      2 C2         52.7870  -14.2640   -3.4140 C.ar      1 4MT         0.0805
      3 C3         52.0640  -14.7780   -4.5130 C.ar      1 4MT        -0.0398
      4 C4         52.6850  -14.9200   -5.7500 C.ar      1 4MT        -0.0687
      5 C5         54.0120  -14.5580   -5.8920 C.ar      1 4MT        -0.0515
      6 C6         54.7110  -14.7210   -7.2210 C.3       1 4MT        -0.0014
      7 C7         54.2360  -13.6870   -8.2440 C.3       1 4MT         0.0456
      8 N8         54.3620  -12.4070   -7.6200 N.am      1 4MT        -0.2972
      9 C9         55.3160  -11.4770   -8.0970 C.2       1 4MT         0.0441
     10 S10        56.4590  -11.9150   -9.2440 S.2       1 4MT        -0.2518
     11 C11        54.7320  -14.0490   -4.7900 C.ar      1 4MT        -0.0687
     12 C12        54.1160  -13.9040   -3.5610 C.ar      1 4MT        -0.0398
     13 H1         51.8909  -14.9913   -1.8693 H         1 4MT         0.2458
     14 H2         51.0248  -15.0620   -4.3927 H         1 4MT         0.0525
     15 H3         52.1325  -15.3116   -6.5964 H         1 4MT         0.0530
     16 H4         54.5040  -15.7285   -7.6109 H         1 4MT         0.0427
     17 H5         55.7941  -14.6014   -7.0706 H         1 4MT         0.0427
     18 H6         53.1867  -13.8754   -8.5149 H         1 4MT         0.0573
     19 H7         54.8617  -13.7319   -9.1476 H         1 4MT         0.0573
     20 H8         53.7756  -12.1686   -6.8459 H         1 4MT         0.2019
     21 H9         55.3080  -10.4582   -7.7124 H         1 4MT         0.1273
     22 H10        55.7730  -13.7704   -4.9079 H         1 4MT         0.0530
     23 H11        54.6705  -13.5105   -2.7167 H         1 4MT         0.0525
@<TRIPOS>BOND
     1    1    2 1  
     2    2    3 ar 
     3    2   12 ar 
     4    3    4 ar 
     5    4    5 ar 
     6    5    6 1  
     7    5   11 ar 
     8    6    7 1  
     9    7    8 1  
    10    8    9 am 
    11    9   10 2  
    12   11   12 ar 
    13    1   13 1  
    14    3   14 1  
    15    4   15 1  
    16    6   16 1  
    17    6   17 1  
    18    7   18 1  
    19    7   19 1  
    20    8   20 1  
    21    9   21 1  
    22   11   22 1  
    23   12   23 1  
@<TRIPOS>SUBSTRUCTURE
     1 4MT         1

