### 
### Created by X-TOOL on Mon Sep 10 21:13:19 2018
### 

@<TRIPOS>MOLECULE
4ot6_ligand
   71    76     1     0     0
SMALL
GAST_HUCK


@<TRIPOS>ATOM
      1 C1         22.8400    5.7710    0.0620 C.2       1 2V1         0.1873
      2 N2         23.9820    6.2000    0.5750 N.2       1 2V1        -0.2866
      3 C3         24.1280    6.4590    1.8940 C.2       1 2V1         0.0531
      4 C4         23.0720    6.2870    2.7600 C.2       1 2V1         0.0896
      5 C5         21.7150    5.5790    0.9300 C.2       1 2V1         0.2037
      6 N6         21.8510    5.8480    2.2850 N.pl3     1 2V1        -0.2036
      7 C7         20.6460    5.5860    2.8780 C.2       1 2V1         0.0566
      8 C8         19.8050    5.1770    1.8930 C.2       1 2V1        -0.0211
      9 N9         20.4690    5.1740    0.7330 N.2       1 2V1        -0.3241
     10 N10        22.7110    5.5110   -1.3040 N.pl3     1 2V1        -0.2466
     11 C11        23.7490    5.4890   -2.2370 C.ar      1 2V1         0.0693
     12 C12        23.5390    4.8560   -3.4620 C.ar      1 2V1        -0.0324
     13 C13        24.5450    4.8160   -4.4130 C.ar      1 2V1        -0.0515
     14 C14        25.7910    5.4190   -4.1620 C.ar      1 2V1         0.0378
     15 C15        25.9820    6.0700   -2.9280 C.ar      1 2V1        -0.0515
     16 C16        24.9770    6.1000   -1.9830 C.ar      1 2V1        -0.0324
     17 C17        25.4480    6.9370    2.4010 C.ar      1 2V1        -0.0277
     18 C18        26.8700    5.3690   -5.1960 C.2       1 2V1         0.1988
     19 O19        26.5450    5.4610   -6.3620 O.2       1 2V1        -0.3900
     20 N20        28.2000    5.2080   -4.9210 N.am      1 2V1        -0.2697
     21 C21        28.7420    5.0740   -3.5440 C.3       1 2V1         0.0566
     22 C22        29.6000    3.8020   -3.4620 C.3       1 2V1         0.0680
     23 O23        30.5750    3.8190   -4.5180 O.3       1 2V1        -0.3758
     24 C24        30.0720    3.9080   -5.8630 C.3       1 2V1         0.0680
     25 C25        29.1990    5.1660   -6.0220 C.3       1 2V1         0.0566
     26 C26        26.3460    7.5600    1.5300 C.ar      1 2V1        -0.0370
     27 C27        27.5820    8.0050    1.9960 C.ar      1 2V1         0.0637
     28 C28        27.9040    7.8330    3.3420 C.ar      1 2V1        -0.0431
     29 C29        27.0170    7.2220    4.2120 C.ar      1 2V1        -0.0768
     30 C30        25.7960    6.7790    3.7480 C.ar      1 2V1        -0.0717
     31 N31        28.5200    8.6440    1.1670 N.am      1 2V1        -0.2338
     32 C32        28.6430    8.5680   -0.1850 C.2       1 2V1         0.2322
     33 C33        29.7330    9.3480   -0.8090 C.ar      1 2V1         0.0561
     34 O34        27.9110    7.8950   -0.8850 O.2       1 2V1        -0.3730
     35 C35        30.4030    8.8790   -1.9520 C.ar      1 2V1        -0.0397
     36 C36        31.4260    9.6350   -2.5050 C.ar      1 2V1        -0.0313
     37 C37        31.7920   10.8510   -1.9230 C.ar      1 2V1         0.0921
     38 C38        31.1280   11.3080   -0.7860 C.ar      1 2V1        -0.0313
     39 C39        30.1060   10.5670   -0.2260 C.ar      1 2V1        -0.0397
     40 S40        33.1030   11.8130   -2.6350 S.o2      1 2V1        -0.0041
     41 C41        33.4780   13.1880   -1.4990 C.3       1 2V1         0.0601
     42 O42        34.1980   10.9070   -2.6850 O.2       1 2V1        -0.1691
     43 O43        32.5460   12.3170   -3.8420 O.2       1 2V1        -0.1691
     44 H          23.1990    6.4972    3.8209 H         1 2V1         0.1105
     45 H          20.4073    5.6861    3.9358 H         1 2V1         0.0851
     46 H          18.7610    4.8974    2.0265 H         1 2V1         0.0510
     47 H          21.7623    5.3176   -1.6555 H         1 2V1         0.2180
     48 H          22.5818    4.3922   -3.6711 H         1 2V1         0.0549
     49 H          24.3708    4.3158   -5.3588 H         1 2V1         0.0640
     50 H          26.9294    6.5531   -2.7181 H         1 2V1         0.0640
     51 H          25.1429    6.6019   -1.0366 H         1 2V1         0.0549
     52 H          27.9112    5.0045   -2.8264 H         1 2V1         0.0544
     53 H          29.3607    5.9515   -3.3048 H         1 2V1         0.0544
     54 H          28.9562    2.9167   -3.5703 H         1 2V1         0.0580
     55 H          30.1123    3.7661   -2.4892 H         1 2V1         0.0580
     56 H          29.4677    3.0160   -6.0847 H         1 2V1         0.0580
     57 H          30.9177    3.9616   -6.5644 H         1 2V1         0.0580
     58 H          29.8341    6.0630   -5.9774 H         1 2V1         0.0544
     59 H          28.6785    5.1330   -6.9905 H         1 2V1         0.0544
     60 H          26.0803    7.6977    0.4881 H         1 2V1         0.0481
     61 H          28.8612    8.1822    3.7119 H         1 2V1         0.0489
     62 H          27.2815    7.0921    5.2552 H         1 2V1         0.0573
     63 H          25.1006    6.3050    4.4313 H         1 2V1         0.0478
     64 H          29.1830    9.2307    1.6319 H         1 2V1         0.2251
     65 H          30.1220    7.9321   -2.3987 H         1 2V1         0.0670
     66 H          31.9423    9.2816   -3.3902 H         1 2V1         0.0648
     67 H          31.4159   12.2521   -0.3379 H         1 2V1         0.0648
     68 H          29.5948   10.9262    0.6599 H         1 2V1         0.0670
     69 H          34.2895   13.8001   -1.9195 H         1 2V1         0.0468
     70 H          33.7906   12.7840   -0.5248 H         1 2V1         0.0468
     71 H          32.5803   13.8099   -1.3671 H         1 2V1         0.0468
@<TRIPOS>BOND
     1    1    2 2  
     2    1    5 1  
     3    1   10 1  
     4    2    3 1  
     5    3    4 2  
     6    3   17 1  
     7    4    6 1  
     8    5    6 1  
     9    5    9 2  
    10    6    7 1  
    11    7    8 2  
    12    8    9 1  
    13   10   11 1  
    14   11   12 ar 
    15   11   16 ar 
    16   12   13 ar 
    17   13   14 ar 
    18   14   15 ar 
    19   14   18 1  
    20   15   16 ar 
    21   17   26 ar 
    22   17   30 ar 
    23   18   19 2  
    24   18   20 am 
    25   20   21 1  
    26   20   25 1  
    27   21   22 1  
    28   22   23 1  
    29   23   24 1  
    30   24   25 1  
    31   26   27 ar 
    32   27   28 ar 
    33   27   31 1  
    34   28   29 ar 
    35   29   30 ar 
    36   31   32 am 
    37   32   33 1  
    38   32   34 2  
    39   33   35 ar 
    40   33   39 ar 
    41   35   36 ar 
    42   36   37 ar 
    43   37   38 ar 
    44   37   40 1  
    45   38   39 ar 
    46   40   41 1  
    47   40   42 2  
    48   40   43 2  
    49    4   44 1  
    50    7   45 1  
    51    8   46 1  
    52   10   47 1  
    53   12   48 1  
    54   13   49 1  
    55   15   50 1  
    56   16   51 1  
    57   21   52 1  
    58   21   53 1  
    59   22   54 1  
    60   22   55 1  
    61   24   56 1  
    62   24   57 1  
    63   25   58 1  
    64   25   59 1  
    65   26   60 1  
    66   28   61 1  
    67   29   62 1  
    68   30   63 1  
    69   31   64 1  
    70   35   65 1  
    71   36   66 1  
    72   38   67 1  
    73   39   68 1  
    74   41   69 1  
    75   41   70 1  
    76   41   71 1  
@<TRIPOS>SUBSTRUCTURE
     1 2V1         1

