### 
### Created by X-TOOL on Mon Sep 10 21:13:21 2018
### 

@<TRIPOS>MOLECULE
4otf_ligand
   80    85     1     0     0
SMALL
GAST_HUCK


@<TRIPOS>ATOM
      1 C1        -38.0710   27.6490   -6.9500 C.3       1 2VL        -0.0380
      2 C2        -39.0470   27.7390   -8.1150 C.ar      1 2VL        -0.0261
      3 C3        -38.5930   27.9920   -9.4330 C.ar      1 2VL        -0.0416
      4 C4        -39.5310   28.0750  -10.4670 C.ar      1 2VL        -0.0855
      5 C5        -40.8890   27.8930  -10.2090 C.ar      1 2VL        -0.0890
      6 C6        -41.3330   27.6380   -8.9200 C.ar      1 2VL        -0.0543
      7 C7        -40.4180   27.5750   -7.8700 C.ar      1 2VL         0.0603
      8 N8        -40.7930   27.2790   -6.5470 N.am      1 2VL        -0.2416
      9 C9        -40.9360   28.2000   -5.5720 C.2       1 2VL         0.2223
     10 O10       -40.7690   29.3790   -5.8020 O.2       1 2VL        -0.3873
     11 C11       -41.2090   27.8130   -4.1910 C.2       1 2VL         0.0914
     12 C12       -41.0330   26.5940   -3.5870 C.2       1 2VL        -0.0621
     13 C13       -41.3300   26.6070   -2.2150 C.2       1 2VL        -0.0505
     14 C14       -41.7170   27.8170   -1.7390 C.2       1 2VL         0.0190
     15 S15       -41.6900   28.9810   -2.9850 S.3       1 2VL        -0.0333
     16 C16       -42.0950   28.1250   -0.2880 C.3       1 2VL        -0.0083
     17 C17       -42.2830   26.8220    0.4980 C.3       1 2VL        -0.0409
     18 C18       -41.1320   25.8550    0.1600 C.3       1 2VL        -0.0465
     19 C19       -41.2620   25.3860   -1.2970 C.3       1 2VL        -0.0348
     20 C20       -37.1590   28.1990   -9.7950 C.2       1 2VL         0.0313
     21 C21       -36.2940   28.8770   -8.9750 C.2       1 2VL         0.0678
     22 N22       -34.9860   29.0660   -9.3240 N.am      1 2VL        -0.2081
     23 C23       -34.5280   28.6080  -10.5120 C.2       1 2VL         0.2827
     24 O24       -33.3630   28.7550  -10.8950 O.2       1 2VL        -0.3847
     25 C25       -35.4660   27.8850  -11.3630 C.2       1 2VL         0.2088
     26 N26       -36.7140   27.7060  -10.9720 N.2       1 2VL        -0.2986
     27 N27       -34.9550   27.4120  -12.5510 N.pl3     1 2VL        -0.2514
     28 C28       -35.6630   26.9530  -13.6680 C.ar      1 2VL         0.0581
     29 C29       -37.0420   26.7700  -13.7010 C.ar      1 2VL        -0.0439
     30 C30       -37.6400   26.2970  -14.8730 C.ar      1 2VL        -0.0617
     31 C31       -36.8630   26.0130  -15.9910 C.ar      1 2VL         0.0126
     32 C32       -35.4930   26.1900  -15.9590 C.ar      1 2VL        -0.0617
     33 C33       -34.8960   26.6650  -14.7990 C.ar      1 2VL        -0.0439
     34 C34       -37.4780   25.5030  -17.2730 C.3       1 2VL         0.0969
     35 C36       -38.5420   26.4780  -17.7000 C.2       1 2VL         0.2370
     36 O37       -38.1800   27.5950  -18.0160 O.2       1 2VL        -0.3880
     37 N38       -39.8490   26.1520  -17.7110 N.am      1 2VL        -0.2651
     38 C39       -40.3040   24.8120  -17.3350 C.3       1 2VL         0.0738
     39 C40       -39.2260   23.7920  -17.7190 C.3       1 2VL        -0.0080
     40 N41       -37.9810   24.1430  -17.0020 N.4       1 2VL         0.2634
     41 C42       -36.9140   23.1410  -17.1520 C.3       1 2VL        -0.0397
     42 C43       -40.8610   27.1380  -18.1260 C.3       1 2VL         0.0231
     43 C44       -34.0870   29.7850   -8.4060 C.3       1 2VL         0.0562
     44 H1        -37.0456   27.8002   -7.3183 H         1 2VL         0.0352
     45 H2        -38.1497   26.6569   -6.4815 H         1 2VL         0.0352
     46 H3        -38.3124   28.4249   -6.2086 H         1 2VL         0.0352
     47 H4        -39.1993   28.2827  -11.4779 H         1 2VL         0.0413
     48 H5        -41.6034   27.9512  -11.0222 H         1 2VL         0.0506
     49 H6        -42.3895   27.4880   -8.7293 H         1 2VL         0.0427
     50 H7        -40.9651   26.3219   -6.3137 H         1 2VL         0.2215
     51 H8        -40.6965   25.7051   -4.1186 H         1 2VL         0.0472
     52 H9        -43.0336   28.6983   -0.2708 H         1 2VL         0.0446
     53 H10       -41.2944   28.7182    0.1780 H         1 2VL         0.0446
     54 H11       -43.2431   26.3614    0.2223 H         1 2VL         0.0291
     55 H12       -42.2765   27.0388    1.5764 H         1 2VL         0.0291
     56 H13       -41.1774   24.9839    0.8301 H         1 2VL         0.0281
     57 H14       -40.1697   26.3708    0.2937 H         1 2VL         0.0281
     58 H15       -40.3892   24.7725   -1.5651 H         1 2VL         0.0350
     59 H16       -42.1788   24.7889   -1.4107 H         1 2VL         0.0350
     60 H17       -36.6562   29.2726   -8.0272 H         1 2VL         0.1095
     61 H18       -33.9280   27.3937  -12.6269 H         1 2VL         0.2153
     62 H19       -37.6456   26.9916  -12.8283 H         1 2VL         0.0520
     63 H20       -38.7135   26.1511  -14.9104 H         1 2VL         0.0535
     64 H21       -34.8906   25.9604  -16.8305 H         1 2VL         0.0535
     65 H22       -33.8226   26.8140  -14.7709 H         1 2VL         0.0520
     66 H23       -36.7139   25.4482  -18.0624 H         1 2VL         0.1239
     67 H24       -41.2388   24.5777  -17.8654 H         1 2VL         0.0575
     68 H25       -40.4785   24.7729  -16.2496 H         1 2VL         0.0575
     69 H26       -39.0522   23.8248  -18.8047 H         1 2VL         0.0835
     70 H27       -39.5498   22.7813  -17.4298 H         1 2VL         0.0835
     71 H28       -38.2290   24.1356  -16.0250 H         1 2VL         0.2066
     72 H29       -36.0235   23.4675  -16.5949 H         1 2VL         0.0778
     73 H30       -36.6606   23.0317  -18.2168 H         1 2VL         0.0778
     74 H31       -37.2601   22.1747  -16.7564 H         1 2VL         0.0778
     75 H32       -40.3664   28.0884  -18.3750 H         1 2VL         0.0486
     76 H33       -41.5738   27.3000  -17.3040 H         1 2VL         0.0486
     77 H34       -41.3987   26.7622  -19.0090 H         1 2VL         0.0486
     78 H35       -34.6416   30.0739   -7.5011 H         1 2VL         0.0598
     79 H36       -33.7006   30.6871   -8.9028 H         1 2VL         0.0598
     80 H37       -33.2472   29.1312   -8.1282 H         1 2VL         0.0598
@<TRIPOS>BOND
     1    1    2 1  
     2    2    3 ar 
     3    2    7 ar 
     4    3    4 ar 
     5    3   20 1  
     6    4    5 ar 
     7    5    6 ar 
     8    6    7 ar 
     9    7    8 1  
    10    8    9 am 
    11    9   10 2  
    12    9   11 1  
    13   11   12 2  
    14   11   15 1  
    15   12   13 1  
    16   13   14 2  
    17   13   19 1  
    18   14   15 1  
    19   14   16 1  
    20   16   17 1  
    21   17   18 1  
    22   18   19 1  
    23   20   21 2  
    24   20   26 1  
    25   21   22 1  
    26   22   23 am 
    27   22   43 1  
    28   23   24 2  
    29   23   25 1  
    30   25   26 2  
    31   25   27 1  
    32   27   28 1  
    33   28   29 ar 
    34   28   33 ar 
    35   29   30 ar 
    36   30   31 ar 
    37   31   32 ar 
    38   31   34 1  
    39   32   33 ar 
    40   34   35 1  
    41   34   40 1  
    42   35   36 2  
    43   35   37 am 
    44   37   38 1  
    45   37   42 1  
    46   38   39 1  
    47   39   40 1  
    48   40   41 1  
    49    1   44 1  
    50    1   45 1  
    51    1   46 1  
    52    4   47 1  
    53    5   48 1  
    54    6   49 1  
    55    8   50 1  
    56   12   51 1  
    57   16   52 1  
    58   16   53 1  
    59   17   54 1  
    60   17   55 1  
    61   18   56 1  
    62   18   57 1  
    63   19   58 1  
    64   19   59 1  
    65   21   60 1  
    66   27   61 1  
    67   29   62 1  
    68   30   63 1  
    69   32   64 1  
    70   33   65 1  
    71   34   66 1  
    72   38   67 1  
    73   38   68 1  
    74   39   69 1  
    75   39   70 1  
    76   40   71 1  
    77   41   72 1  
    78   41   73 1  
    79   41   74 1  
    80   42   75 1  
    81   42   76 1  
    82   42   77 1  
    83   43   78 1  
    84   43   79 1  
    85   43   80 1  
@<TRIPOS>SUBSTRUCTURE
     1 2VL         1

