### 
### Created by X-TOOL on Mon Sep 10 21:13:17 2018
### 

@<TRIPOS>MOLECULE
4oty_ligand
   32    33     1     0     0
SMALL
GAST_HUCK


@<TRIPOS>ATOM
      1 OAB       -17.6450   38.1710   27.9330 O.co2     1 LUR        -0.5667
      2 CAN       -16.8490   38.8740   27.3340 C.2       1 LUR         0.0443
      3 OAC       -15.9400   39.5580   28.0230 O.co2     1 LUR        -0.5667
      4 CAL       -16.8980   38.9750   25.8320 C.3       1 LUR         0.0296
      5 CAR       -17.4930   40.3050   25.4400 C.ar      1 LUR        -0.0134
      6 CAK       -18.8360   40.4070   25.1100 C.ar      1 LUR        -0.0670
      7 CAO       -19.3650   41.6410   24.7500 C.ar      1 LUR        -0.0642
      8 CAA       -20.8240   41.7410   24.3930 C.3       1 LUR        -0.0382
      9 CAI       -18.5620   42.7800   24.7140 C.ar      1 LUR        -0.0774
     10 CAJ       -17.2100   42.7280   25.0420 C.ar      1 LUR        -0.0522
     11 CAS       -16.6380   41.5160   25.4060 C.ar      1 LUR         0.0551
     12 NAM       -15.3290   41.4100   25.7310 N.pl3     1 LUR        -0.2810
     13 CAT       -14.4420   42.4170   25.5670 C.ar      1 LUR         0.1039
     14 CAQ       -13.7980   43.0570   26.7370 C.ar      1 LUR         0.0589
     15 CLE       -14.2020   42.5100   28.3960 Cl        1 LUR        -0.0818
     16 CAH       -12.8830   44.0820   26.5340 C.ar      1 LUR        -0.0627
     17 CAF       -12.5650   44.5100   25.2460 C.ar      1 LUR        -0.0757
     18 CAG       -13.1390   43.9370   24.1110 C.ar      1 LUR        -0.0387
     19 CAP       -14.0630   42.9040   24.2190 C.ar      1 LUR         0.1529
     20 FAD       -14.6130   42.3590   23.1210 F         1 LUR        -0.1916
     21 H         -17.5194   38.1616   25.4292 H         1 LUR         0.0564
     22 H         -15.8793   38.8941   25.4250 H         1 LUR         0.0564
     23 H         -19.4705   39.5284   25.1327 H         1 LUR         0.0467
     24 H         -21.0680   42.7824   24.1361 H         1 LUR         0.0367
     25 H         -21.4341   41.4225   25.2510 H         1 LUR         0.0367
     26 H         -21.0360   41.0914   23.5310 H         1 LUR         0.0367
     27 H         -19.0004   43.7280   24.4239 H         1 LUR         0.0471
     28 H         -16.6072   43.6285   25.0134 H         1 LUR         0.0492
     29 H         -14.9919   40.5189   26.1224 H         1 LUR         0.2038
     30 H         -12.4105   44.5548   27.3874 H         1 LUR         0.0556
     31 H         -11.8485   45.3140   25.1224 H         1 LUR         0.0501
     32 H         -12.8602   44.3030   23.1295 H         1 LUR         0.0571
@<TRIPOS>BOND
     1    1    2 ar 
     2    2    3 ar 
     3    2    4 1  
     4    4    5 1  
     5    5    6 ar 
     6    5   11 ar 
     7    6    7 ar 
     8    7    8 1  
     9    7    9 ar 
    10    9   10 ar 
    11   10   11 ar 
    12   11   12 1  
    13   12   13 1  
    14   13   14 ar 
    15   13   19 ar 
    16   14   15 1  
    17   14   16 ar 
    18   16   17 ar 
    19   17   18 ar 
    20   18   19 ar 
    21   19   20 1  
    22    4   21 1  
    23    4   22 1  
    24    6   23 1  
    25    8   24 1  
    26    8   25 1  
    27    8   26 1  
    28    9   27 1  
    29   10   28 1  
    30   12   29 1  
    31   16   30 1  
    32   17   31 1  
    33   18   32 1  
@<TRIPOS>SUBSTRUCTURE
     1 LUR         1

