### 
### Created by X-TOOL on Mon Sep 10 21:13:16 2018
### 

@<TRIPOS>MOLECULE
4ou3_ligand
   75    75     1     0     0
SMALL
GAST_HUCK


@<TRIPOS>ATOM
      1 N          30.9990   15.1400   60.5680 N.4       1 CYS         0.2385
      2 CA         30.1970   15.5250   59.4470 C.3       1 CYS         0.0749
      3 C          28.8940   16.1990   59.8860 C.2       1 CYS         0.2277
      4 O          28.3760   15.9240   60.9270 O.2       1 CYS        -0.3907
      5 CB         29.9510   14.2770   58.6120 C.3       1 CYS         0.0643
      6 SG         28.8700   14.3540   57.2000 S.3       1 CYS        -0.0848
      7 N          28.3510   17.0730   59.0520 N.am      1 ASN        -0.2589
      8 CA         27.0310   17.6800   59.2880 C.3       1 ASN         0.1477
      9 C          26.2180   17.7220   58.0050 C.2       1 ASN         0.2061
     10 O          26.7350   18.0430   56.9810 O.2       1 ASN        -0.3942
     11 CB         27.1780   19.0850   59.8810 C.3       1 ASN         0.0773
     12 CG         25.9040   19.6220   60.5420 C.2       1 ASN         0.1780
     13 OD1        25.0630   18.8970   61.0330 O.2       1 ASN        -0.3970
     14 ND2        25.7930   20.9190   60.5530 N.am      1 ASN        -0.3007
     15 N          24.9450   17.3840   58.0800 N.am      1 GLY        -0.2663
     16 CA         24.1050   17.3080   56.9060 C.3       1 GLY         0.1201
     17 C          23.7020   15.8720   56.6920 C.2       1 GLY         0.2007
     18 O          23.0660   15.3020   57.5400 O.2       1 GLY        -0.3947
     19 N          24.1490   15.2940   55.5840 N.am      1 ARG        -0.2640
     20 CA         23.9390   13.9030   55.2110 C.3       1 ARG         0.1311
     21 C          25.1450   12.9950   55.4730 C.2       1 ARG         0.2039
     22 O          25.9990   12.7910   54.6320 O.2       1 ARG        -0.3944
     23 CB         23.7270   13.9130   53.7380 C.3       1 ARG        -0.0092
     24 CG         22.7590   12.9320   53.2430 C.3       1 ARG        -0.0156
     25 CD         21.9450   13.8140   52.3800 C.3       1 ARG         0.0627
     26 NE         22.6800   14.2320   51.2080 N.pl3     1 ARG        -0.2723
     27 CZ         22.3180   15.2910   50.5160 C.cat     1 ARG         0.2882
     28 NH1        21.3400   16.0620   50.9580 N.pl3     1 ARG        -0.2849
     29 NH2        22.9220   15.5900   49.3960 N.pl3     1 ARG        -0.2849
     30 N          25.2160   12.4180   56.6470 N.am      1 CYS        -0.2629
     31 CA         26.4450   11.8050   57.0880 C.3       1 CYS         0.1406
     32 C          26.3570   10.2840   57.2520 C.2       1 CYS         0.2040
     33 O          25.2890    9.7340   57.3630 O.2       1 CYS        -0.3944
     34 CB         26.9040   12.5430   58.3380 C.3       1 CYS         0.0443
     35 SG         27.0880   14.2980   58.0020 S.3       1 CYS        -0.0880
     36 N          27.5030    9.6290   57.1630 N.am      1 GLY        -0.2722
     37 CA         27.6380    8.1990   57.3090 C.3       1 GLY         0.0833
     38 C          29.0910    7.9360   57.6030 C.2       1 GLY         0.0570
     39 O          29.4680    6.8020   58.0120 O.co2     1 GLY        -0.5669
     40 OXT        29.8110    8.9450   57.3890 O.co2     1 GLY        -0.5669
     41 H          31.8454   14.7013   60.2407 H         1 CYS         0.2015
     42 H          30.4844   14.4907   61.1422 H         1 CYS         0.2015
     43 H          31.2322   15.9568   61.1107 H         1 CYS         0.2015
     44 H          30.7614   16.2482   58.8400 H         1 CYS         0.1107
     45 H          29.5350   13.5174   59.2901 H         1 CYS         0.0466
     46 H          30.9319   13.9421   58.2438 H         1 CYS         0.0466
     47 H          28.8579   17.3307   58.2294 H         1 ASN         0.1886
     48 H          26.4918   17.0553   60.0153 H         1 ASN         0.0826
     49 H          27.4637   19.7732   59.0719 H         1 ASN         0.0551
     50 H          27.9752   19.0585   60.6385 H         1 ASN         0.0551
     51 H          24.9901   21.3486   60.9662 H         1 ASN         0.1814
     52 H          26.5107   21.4857   60.1483 H         1 ASN         0.1814
     53 H          24.5499   17.1744   58.9744 H         1 GLY         0.1881
     54 H          24.6610   17.6709   56.0290 H         1 GLY         0.0763
     55 H          23.2072   17.9264   57.0527 H         1 GLY         0.0763
     56 H          24.6749   15.8627   54.9516 H         1 ARG         0.1883
     57 H          23.0589   13.5062   55.7382 H         1 ARG         0.0800
     58 H          24.6938   13.7122   53.2532 H         1 ARG         0.0313
     59 H          23.3740   14.9146   53.4513 H         1 ARG         0.0313
     60 H          22.1653   12.4927   54.0582 H         1 ARG         0.0301
     61 H          23.2443   12.1290   52.6688 H         1 ARG         0.0301
     62 H          21.6517   14.7049   52.9546 H         1 ARG         0.0689
     63 H          21.0436   13.2699   52.0615 H         1 ARG         0.0689
     64 H          23.5033   13.6904   50.9085 H         1 ARG         0.2642
     65 H          21.0544   16.8916   50.4185 H         1 ARG         0.2615
     66 H          20.8633   15.8333   51.8420 H         1 ARG         0.2615
     67 H          23.6849   14.9925   49.0469 H         1 ARG         0.2615
     68 H          22.6350   16.4231   48.8626 H         1 ARG         0.2615
     69 H          24.4123   12.4024   57.2418 H         1 CYS         0.1884
     70 H          27.1992   11.9837   56.3075 H         1 CYS         0.0808
     71 H          27.8713   12.1339   58.6650 H         1 CYS         0.0432
     72 H          26.1586   12.4034   59.1348 H         1 CYS         0.0432
     73 H          28.3310   10.1598   56.9825 H         1 GLY         0.1873
     74 H          27.3404    7.6920   56.3793 H         1 GLY         0.0689
     75 H          27.0112    7.8406   58.1389 H         1 GLY         0.0689
@<TRIPOS>BOND
     1    1    2 1  
     2    2    3 1  
     3    2    5 1  
     4    3    4 2  
     5    3    7 am 
     6    5    6 1  
     7    6   35 1  
     8    7    8 1  
     9    8    9 1  
    10    8   11 1  
    11    9   10 2  
    12    9   15 am 
    13   11   12 1  
    14   12   13 2  
    15   12   14 am 
    16   15   16 1  
    17   16   17 1  
    18   17   18 2  
    19   17   19 am 
    20   19   20 1  
    21   20   21 1  
    22   20   23 1  
    23   21   22 2  
    24   21   30 am 
    25   23   24 1  
    26   24   25 1  
    27   25   26 1  
    28   26   27 ar 
    29   27   28 ar 
    30   27   29 ar 
    31   30   31 1  
    32   31   32 1  
    33   31   34 1  
    34   32   33 2  
    35   32   36 am 
    36   34   35 1  
    37   36   37 1  
    38   37   38 1  
    39   38   39 ar 
    40   38   40 ar 
    41    1   41 1  
    42    1   42 1  
    43    1   43 1  
    44    2   44 1  
    45    5   45 1  
    46    5   46 1  
    47    7   47 1  
    48    8   48 1  
    49   11   49 1  
    50   11   50 1  
    51   14   51 1  
    52   14   52 1  
    53   15   53 1  
    54   16   54 1  
    55   16   55 1  
    56   19   56 1  
    57   20   57 1  
    58   23   58 1  
    59   23   59 1  
    60   24   60 1  
    61   24   61 1  
    62   25   62 1  
    63   25   63 1  
    64   26   64 1  
    65   28   65 1  
    66   28   66 1  
    67   29   67 1  
    68   29   68 1  
    69   30   69 1  
    70   31   70 1  
    71   34   71 1  
    72   34   72 1  
    73   36   73 1  
    74   37   74 1  
    75   37   75 1  
@<TRIPOS>SUBSTRUCTURE
     1 CYS         1

