### 
### Created by X-TOOL on Mon Sep 10 21:13:16 2018
### 

@<TRIPOS>MOLECULE
4oue_ligand
   33    33     1     0     0
SMALL
GAST_HUCK


@<TRIPOS>ATOM
      1 C1         26.1420  -31.7770    6.1590 C.3       1 IPT         0.1332
      2 C2         25.4350  -32.9690    6.7050 C.3       1 IPT         0.1189
      3 O2         25.0320  -33.7990    5.6790 O.3       1 IPT        -0.3857
      4 C3         24.2690  -32.5000    7.5180 C.3       1 IPT         0.1126
      5 O3         23.6340  -33.5970    8.0820 O.3       1 IPT        -0.3865
      6 C4         24.7270  -31.5360    8.5770 C.3       1 IPT         0.1118
      7 O4         25.4790  -32.2090    9.5290 O.3       1 IPT        -0.3865
      8 C5         25.5670  -30.4650    7.9440 C.3       1 IPT         0.1115
      9 O5         26.6210  -31.0280    7.2280 O.3       1 IPT        -0.3553
     10 C6         26.1240  -29.5580    8.9960 C.3       1 IPT         0.0730
     11 O6         26.5280  -28.3580    8.4400 O.3       1 IPT        -0.3924
     12 S1         27.4490  -32.3180    5.0770 S.3       1 IPT        -0.1243
     13 C1'        27.9690  -30.9690    4.0500 C.3       1 IPT         0.0021
     14 C2'        27.4210  -31.1020    2.6680 C.3       1 IPT        -0.0535
     15 C3'        27.4130  -29.6970    4.5770 C.3       1 IPT        -0.0535
     16 H          25.4358  -31.1629    5.5809 H         1 IPT         0.0740
     17 H          26.1222  -33.5277    7.3574 H         1 IPT         0.0655
     18 H          24.4433  -33.3257    5.1030 H         1 IPT         0.2100
     19 H          23.5588  -31.9818    6.8569 H         1 IPT         0.0647
     20 H          23.3300  -34.1748    7.3920 H         1 IPT         0.2100
     21 H          23.8507  -31.0784    9.0594 H         1 IPT         0.0647
     22 H          26.2365  -32.6027    9.1122 H         1 IPT         0.2100
     23 H          24.9381  -29.8791    7.2576 H         1 IPT         0.0646
     24 H          26.9878  -30.0446    9.4724 H         1 IPT         0.0584
     25 H          25.3495  -29.3633    9.7525 H         1 IPT         0.0584
     26 H          26.8780  -27.7964    9.1216 H         1 IPT         0.2095
     27 H          29.0680  -30.9300    4.0232 H         1 IPT         0.0407
     28 H          27.7597  -30.2531    2.0560 H         1 IPT         0.0240
     29 H          26.3218  -31.1092    2.7085 H         1 IPT         0.0240
     30 H          27.7777  -32.0416    2.2209 H         1 IPT         0.0240
     31 H          27.7373  -28.8625    3.9379 H         1 IPT         0.0240
     32 H          27.7755  -29.5355    5.6029 H         1 IPT         0.0240
     33 H          26.3143  -29.7506    4.5805 H         1 IPT         0.0240
@<TRIPOS>BOND
     1    1    2 1  
     2    1    9 1  
     3    1   12 1  
     4    2    3 1  
     5    2    4 1  
     6    4    5 1  
     7    4    6 1  
     8    6    7 1  
     9    6    8 1  
    10    8    9 1  
    11    8   10 1  
    12   10   11 1  
    13   12   13 1  
    14   13   14 1  
    15   13   15 1  
    16    1   16 1  
    17    2   17 1  
    18    3   18 1  
    19    4   19 1  
    20    5   20 1  
    21    6   21 1  
    22    7   22 1  
    23    8   23 1  
    24   10   24 1  
    25   10   25 1  
    26   11   26 1  
    27   13   27 1  
    28   14   28 1  
    29   14   29 1  
    30   14   30 1  
    31   15   31 1  
    32   15   32 1  
    33   15   33 1  
@<TRIPOS>SUBSTRUCTURE
     1 IPT         1

