### 
### Created by X-TOOL on Sat Nov 28 16:08:35 2015
### 

@<TRIPOS>MOLECULE
4ouj_ligand
   45    46     1     0     0
SMALL
GAST_HUCK


@<TRIPOS>ATOM
      1 C1         57.9730   14.7360    5.6610 C.3       1 LBT         0.1884
      2 C2         58.8050   14.8060    6.9270 C.3       1 LBT         0.1341
      3 C3         60.1750   14.2730    6.7260 C.3       1 LBT         0.1141
      4 C4         60.2390   12.9210    6.0730 C.3       1 LBT         0.1119
      5 C5         59.3850   12.9280    4.8250 C.3       1 LBT         0.1130
      6 C6         59.2750   11.5860    4.1310 C.3       1 LBT         0.0730
      7 O1         56.6440   15.0530    5.9230 O.3       1 LBT        -0.3401
      8 O2         58.8740   16.1680    7.3280 O.3       1 LBT        -0.3841
      9 O3         60.9680   14.3710    7.9690 O.3       1 LBT        -0.3864
     10 O4         59.6610   12.0200    6.9740 O.3       1 LBT        -0.3865
     11 O5         58.0280   13.3620    5.1420 O.3       1 LBT        -0.3405
     12 O6         60.4690   11.1320    3.6310 O.3       1 LBT        -0.3924
     13 C1'        53.3160   16.1740    3.8650 C.3       1 LBT         0.1854
     14 C2'        53.9610   14.8690    3.4320 C.3       1 LBT         0.1339
     15 C3'        54.8910   14.4150    4.4540 C.3       1 LBT         0.1144
     16 C4'        55.9100   15.4350    4.7540 C.3       1 LBT         0.1184
     17 C5'        55.2770   16.7710    5.1050 C.3       1 LBT         0.1134
     18 C6'        56.2660   17.8910    5.4040 C.3       1 LBT         0.0730
     19 O1'        52.6160   16.0060    5.0280 O.3       1 LBT        -0.3649
     20 O2'        52.9440   13.9080    3.2380 O.3       1 LBT        -0.3841
     21 O3'        55.5050   13.2810    3.9500 O.3       1 LBT        -0.3864
     22 O5'        54.3490   17.1920    4.0800 O.3       1 LBT        -0.3407
     23 O6'        55.8000   18.8930    6.2510 O.3       1 LBT        -0.3924
     24 H          58.3782   15.4364    4.9158 H         1 LBT         0.0938
     25 H          58.3107   14.2167    7.7133 H         1 LBT         0.0671
     26 H          60.6550   14.9572    6.0109 H         1 LBT         0.0648
     27 H          61.2769   12.6439    5.8364 H         1 LBT         0.0647
     28 H          59.8341   13.6428    4.1197 H         1 LBT         0.0647
     29 H          58.5621   11.6812    3.2987 H         1 LBT         0.0584
     30 H          58.8973   10.8489    4.8549 H         1 LBT         0.0584
     31 H          59.3601   16.2332    8.1416 H         1 LBT         0.2101
     32 H          61.8809   14.1927    7.7758 H         1 LBT         0.2100
     33 H          60.1782   11.9947    7.7705 H         1 LBT         0.2100
     34 H          60.8030   11.7554    2.9967 H         1 LBT         0.2095
     35 H          52.6291   16.5125    3.0754 H         1 LBT         0.0935
     36 H          54.5057   15.0226    2.4888 H         1 LBT         0.0671
     37 H          54.3415   14.1717    5.3753 H         1 LBT         0.0648
     38 H          56.5825   15.5456    3.8906 H         1 LBT         0.0651
     39 H          54.6979   16.6083    6.0259 H         1 LBT         0.0647
     40 H          56.5472   18.3586    4.4489 H         1 LBT         0.0584
     41 H          57.1562   17.4418    5.8685 H         1 LBT         0.0584
     42 H          51.9434   15.3476    4.8992 H         1 LBT         0.2126
     43 H          53.3342   13.0869    2.9621 H         1 LBT         0.2101
     44 H          54.8459   12.6245    3.7572 H         1 LBT         0.2100
     45 H          56.4822   19.5419    6.3774 H         1 LBT         0.2095
@<TRIPOS>BOND
     1    1    2 1  
     2    7    1 1  
     3    1   11 1  
     4    2    3 1  
     5    2    8 1  
     6    3    4 1  
     7    3    9 1  
     8    5    4 1  
     9    4   10 1  
    10    5    6 1  
    11   11    5 1  
    12    6   12 1  
    13   16    7 1  
    14   14   13 1  
    15   13   19 1  
    16   13   22 1  
    17   15   14 1  
    18   14   20 1  
    19   15   16 1  
    20   15   21 1  
    21   16   17 1  
    22   17   18 1  
    23   17   22 1  
    24   18   23 1  
    25    1   24 1  
    26    2   25 1  
    27    3   26 1  
    28    4   27 1  
    29    5   28 1  
    30    6   29 1  
    31    6   30 1  
    32    8   31 1  
    33    9   32 1  
    34   10   33 1  
    35   12   34 1  
    36   13   35 1  
    37   14   36 1  
    38   15   37 1  
    39   16   38 1  
    40   17   39 1  
    41   18   40 1  
    42   18   41 1  
    43   19   42 1  
    44   20   43 1  
    45   21   44 1  
    46   23   45 1  
@<TRIPOS>SUBSTRUCTURE
     1 LBT         1

