### 
### Created by X-TOOL on Mon Sep 10 21:13:19 2018
### 

@<TRIPOS>MOLECULE
4ovf_ligand
   28    30     1     0     0
SMALL
GAST_HUCK


@<TRIPOS>ATOM
      1 CL          6.9900   -1.6820   -9.6800 Cl        1 2VG        -0.0834
      2 C4          7.6370   -3.2200  -10.3320 C.ar      1 2VG         0.0186
      3 C3          8.7190   -3.8770   -9.7410 C.ar      1 2VG        -0.0658
      4 C2          9.1560   -5.0740  -10.3180 C.ar      1 2VG        -0.0312
      5 C5          7.0230   -3.7550  -11.4630 C.ar      1 2VG        -0.0664
      6 C6          7.4670   -4.9490  -12.0250 C.ar      1 2VG        -0.0476
      7 C1          8.5410   -5.6140  -11.4460 C.ar      1 2VG         0.0562
      8 N           9.1670   -6.7570  -11.7660 N.pl3     1 2VG        -0.2813
      9 C7         10.1600   -6.9750  -10.8880 C.2       1 2VG         0.0399
     10 C8         10.1810   -5.9360   -9.9660 C.2       1 2VG        -0.0480
     11 C12        11.1640   -5.8380   -8.8260 C.3       1 2VG        -0.0403
     12 C11        11.6860   -7.2490   -8.5550 C.3       1 2VG        -0.0343
     13 C9         11.1120   -8.1480  -10.8830 C.3       1 2VG         0.0140
     14 C10        12.2000   -7.9640   -9.8110 C.3       1 2VG         0.0237
     15 C13        12.7580   -9.3010   -9.4020 C.2       1 2VG         0.0400
     16 O1         12.0270  -10.4070   -9.4890 O.co2     1 2VG        -0.5685
     17 O2         13.8940   -9.3880   -8.9750 O.co2     1 2VG        -0.5685
     18 H1          9.2055   -3.4712   -8.8614 H         1 2VG         0.0517
     19 H2          6.1860   -3.2330  -11.9125 H         1 2VG         0.0508
     20 H3          6.9803   -5.3552  -12.9043 H         1 2VG         0.0531
     21 H4          8.9248   -7.3692  -12.5581 H         1 2VG         0.2217
     22 H5         10.6633   -5.4431   -7.9297 H         1 2VG         0.0322
     23 H6         11.9969   -5.1750   -9.1028 H         1 2VG         0.0322
     24 H7         10.8683   -7.8459   -8.1249 H         1 2VG         0.0298
     25 H8         12.5111   -7.1817   -7.8307 H         1 2VG         0.0298
     26 H9         11.5891   -8.2294  -11.8708 H         1 2VG         0.0464
     27 H10        10.5488   -9.0687  -10.6708 H         1 2VG         0.0464
     28 H11        13.0084   -7.3591  -10.2475 H         1 2VG         0.0490
@<TRIPOS>BOND
     1    1    2 1  
     2    2    3 ar 
     3    2    5 ar 
     4    3    4 ar 
     5    4    7 ar 
     6    4   10 1  
     7    5    6 ar 
     8    6    7 ar 
     9    7    8 1  
    10    8    9 1  
    11    9   10 2  
    12    9   13 1  
    13   10   11 1  
    14   11   12 1  
    15   12   14 1  
    16   13   14 1  
    17   14   15 1  
    18   15   16 ar 
    19   15   17 ar 
    20    3   18 1  
    21    5   19 1  
    22    6   20 1  
    23    8   21 1  
    24   11   22 1  
    25   11   23 1  
    26   12   24 1  
    27   12   25 1  
    28   13   26 1  
    29   13   27 1  
    30   14   28 1  
@<TRIPOS>SUBSTRUCTURE
     1 2VG         1

