### 
### Created by X-TOOL on Mon Sep 10 21:13:18 2018
### 

@<TRIPOS>MOLECULE
4ovg_ligand
   35    37     1     0     0
SMALL
GAST_HUCK


@<TRIPOS>ATOM
      1 O2          6.6650   -8.7890  -13.3490 O.2       1 2VF        -0.3944
      2 C13         7.1330   -8.0510  -12.4950 C.2       1 2VF         0.2024
      3 N1          6.7060   -8.0470  -11.2280 N.am      1 2VF        -0.2987
      4 C12         8.2460   -7.1290  -12.8970 C.3       1 2VF         0.1381
      5 N           8.7340   -6.2580  -11.8140 N.pl3     1 2VF        -0.2490
      6 C3          8.1890   -5.0710  -11.4920 C.ar      1 2VF         0.0610
      7 C2          7.0930   -4.3810  -11.9840 C.ar      1 2VF        -0.0473
      8 C1          6.7650   -3.1510  -11.4320 C.ar      1 2VF        -0.0663
      9 C11         9.7940   -6.5250  -11.0320 C.2       1 2VF         0.0450
     10 C10        10.6730   -7.7450  -11.0760 C.3       1 2VF         0.0143
     11 C8         11.8840   -7.5380  -10.1470 C.3       1 2VF         0.0237
     12 C9         12.5390   -8.8360   -9.7550 C.2       1 2VF         0.0400
     13 O1         12.0070   -9.9470   -9.8530 O.co2     1 2VF        -0.5685
     14 O          13.7670   -8.7400   -9.2890 O.co2     1 2VF        -0.5685
     15 C7         11.5440   -6.8110   -8.8440 C.3       1 2VF        -0.0343
     16 C6         11.0930   -5.3730   -9.0610 C.3       1 2VF        -0.0403
     17 C5         10.0080   -5.4110  -10.0850 C.2       1 2VF        -0.0477
     18 C4          8.9400   -4.4480  -10.3750 C.ar      1 2VF        -0.0309
     19 C14         8.5800   -3.2210   -9.8350 C.ar      1 2VF        -0.0658
     20 C           7.4750   -2.5870  -10.3890 C.ar      1 2VF         0.0186
     21 CL          6.8640   -1.0000   -9.8450 Cl        1 2VF        -0.0834
     22 H1          7.1193   -7.4248  -10.5631 H         1 2VF         0.1815
     23 H2          5.9734   -8.6662  -10.9453 H         1 2VF         0.1815
     24 H3          7.8849   -6.4901  -13.7163 H         1 2VF         0.0838
     25 H4          9.0882   -7.7406  -13.2528 H         1 2VF         0.0838
     26 H5          6.4992   -4.7968  -12.7900 H         1 2VF         0.0532
     27 H6          5.9167   -2.6100  -11.8355 H         1 2VF         0.0508
     28 H7         11.0242   -7.9072  -12.1057 H         1 2VF         0.0464
     29 H8         10.0999   -8.6223  -10.7415 H         1 2VF         0.0464
     30 H9         12.6157   -6.9305  -10.6998 H         1 2VF         0.0490
     31 H10        12.4383   -6.8042   -8.2035 H         1 2VF         0.0298
     32 H11        10.7351   -7.3588   -8.3385 H         1 2VF         0.0298
     33 H12        11.9338   -4.7630   -9.4228 H         1 2VF         0.0322
     34 H13        10.7110   -4.9499   -8.1202 H         1 2VF         0.0322
     35 H14         9.1364   -2.7772   -9.0173 H         1 2VF         0.0517
@<TRIPOS>BOND
     1    1    2 2  
     2    2    3 am 
     3    2    4 1  
     4    4    5 1  
     5    5    6 1  
     6    5    9 1  
     7    6    7 ar 
     8    6   18 ar 
     9    7    8 ar 
    10    8   20 ar 
    11    9   10 1  
    12    9   17 2  
    13   10   11 1  
    14   11   12 1  
    15   11   15 1  
    16   12   13 ar 
    17   12   14 ar 
    18   15   16 1  
    19   16   17 1  
    20   17   18 1  
    21   18   19 ar 
    22   19   20 ar 
    23   20   21 1  
    24    3   22 1  
    25    3   23 1  
    26    4   24 1  
    27    4   25 1  
    28    7   26 1  
    29    8   27 1  
    30   10   28 1  
    31   10   29 1  
    32   11   30 1  
    33   15   31 1  
    34   15   32 1  
    35   16   33 1  
    36   16   34 1  
    37   19   35 1  
@<TRIPOS>SUBSTRUCTURE
     1 2VF         1

