### 
### Created by X-TOOL on Mon Sep 10 21:13:18 2018
### 

@<TRIPOS>MOLECULE
4ovh_ligand
   40    42     1     0     0
SMALL
GAST_HUCK


@<TRIPOS>ATOM
      1 OAX       -34.8870   -9.9000   -8.9910 O.co2     1 2VE        -0.5669
      2 CAW       -33.7410   -9.6430   -9.4140 C.2       1 2VE         0.0570
      3 OAY       -32.7250   -9.4300   -8.7250 O.co2     1 2VE        -0.5669
      4 CAV       -33.4890   -9.7640  -10.8590 C.3       1 2VE         0.0833
      5 NAU       -33.0520   -8.4800  -11.4310 N.am      1 2VE        -0.2719
      6 C         -32.4370   -8.4920  -12.6180 C.2       1 2VE         0.2065
      7 O         -32.4240   -9.4930  -13.3160 O.2       1 2VE        -0.3941
      8 CA        -31.8310   -7.2330  -13.1560 C.3       1 2VE         0.1387
      9 N         -31.2520   -6.4170  -12.0040 N.pl3     1 2VE        -0.2478
     10 CAH       -30.2160   -6.6380  -11.1730 C.2       1 2VE         0.0456
     11 CAJ       -29.3410   -7.7340  -11.1170 C.3       1 2VE         0.0144
     12 CAK       -28.1280   -7.4300  -10.1840 C.3       1 2VE         0.0237
     13 CAO       -27.3190   -8.6860   -9.7820 C.2       1 2VE         0.0400
     14 OAQ       -27.8690   -9.8100   -9.8920 O.co2     1 2VE        -0.5685
     15 OAP       -26.1520   -8.4830   -9.3670 O.co2     1 2VE        -0.5685
     16 CAL       -28.6120   -6.7570   -8.9300 C.3       1 2VE        -0.0343
     17 CAM       -29.1970   -5.4300   -9.3240 C.3       1 2VE        -0.0401
     18 CAI       -30.1540   -5.5740  -10.3390 C.2       1 2VE        -0.0467
     19 CAB       -31.1310   -4.7240  -10.6580 C.ar      1 2VE        -0.0283
     20 CAA       -31.8030   -5.2520  -11.6910 C.ar      1 2VE         0.0632
     21 CAF       -32.8510   -4.6220  -12.2290 C.ar      1 2VE        -0.0458
     22 CAE       -33.2550   -3.4070  -11.7290 C.ar      1 2VE        -0.0712
     23 CAD       -32.5800   -2.8470  -10.6750 C.ar      1 2VE        -0.0085
     24 BR        -33.2350   -1.2140  -10.0920 Br        1 2VE        -0.0623
     25 CAC       -31.4890   -3.5340  -10.1320 C.ar      1 2VE        -0.0696
     26 H1        -34.4150  -10.0834  -11.3595 H         1 2VE         0.0689
     27 H2        -32.7041  -10.5166  -11.0249 H         1 2VE         0.0689
     28 H3        -33.2110   -7.6210  -10.9443 H         1 2VE         0.1873
     29 H4        -32.6045   -6.6440  -13.6705 H         1 2VE         0.0839
     30 H5        -31.0296   -7.4856  -13.8659 H         1 2VE         0.0839
     31 H6        -28.9708   -7.9516  -12.1297 H         1 2VE         0.0464
     32 H7        -29.8835   -8.6087  -10.7290 H         1 2VE         0.0464
     33 H8        -27.4535   -6.7456  -10.7194 H         1 2VE         0.0490
     34 H9        -27.7713   -6.6055   -8.2370 H         1 2VE         0.0298
     35 H10       -29.3804   -7.3764   -8.4444 H         1 2VE         0.0298
     36 H11       -28.3895   -4.7754   -9.6838 H         1 2VE         0.0323
     37 H12       -29.6743   -4.9738   -8.4442 H         1 2VE         0.0323
     38 H13       -33.3833   -5.0694  -13.0606 H         1 2VE         0.0536
     39 H14       -34.1038   -2.8936  -12.1662 H         1 2VE         0.0522
     40 H15       -30.9374   -3.1151   -9.2981 H         1 2VE         0.0545
@<TRIPOS>BOND
     1    1    2 ar 
     2    2    3 ar 
     3    2    4 1  
     4    4    5 1  
     5    5    6 am 
     6    6    7 2  
     7    6    8 1  
     8    8    9 1  
     9    9   10 1  
    10    9   20 1  
    11   10   11 1  
    12   10   18 2  
    13   11   12 1  
    14   12   13 1  
    15   12   16 1  
    16   13   14 ar 
    17   13   15 ar 
    18   16   17 1  
    19   17   18 1  
    20   18   19 1  
    21   19   20 ar 
    22   19   25 ar 
    23   20   21 ar 
    24   21   22 ar 
    25   22   23 ar 
    26   23   24 1  
    27   23   25 ar 
    28    4   26 1  
    29    4   27 1  
    30    5   28 1  
    31    8   29 1  
    32    8   30 1  
    33   11   31 1  
    34   11   32 1  
    35   12   33 1  
    36   16   34 1  
    37   16   35 1  
    38   17   36 1  
    39   17   37 1  
    40   21   38 1  
    41   22   39 1  
    42   25   40 1  
@<TRIPOS>SUBSTRUCTURE
     1 2VE         1

