### 
### Created by X-TOOL on Mon Sep 10 21:13:18 2018
### 

@<TRIPOS>MOLECULE
4ovz_ligand
   57    60     1     0     0
SMALL
GAST_HUCK


@<TRIPOS>ATOM
      1 F55        -7.4620   45.9030  -43.4420 F         1 P85        -0.1893
      2 C26        -8.1640   46.5600  -42.5280 C.ar      1 P85         0.1248
      3 C27        -9.2240   45.9240  -41.8140 C.ar      1 P85        -0.0348
      4 C28        -9.9250   46.6530  -40.8640 C.ar      1 P85        -0.0601
      5 C25        -7.8590   47.9510  -42.2370 C.ar      1 P85        -0.0348
      6 C24        -8.5490   48.6710  -41.2710 C.ar      1 P85        -0.0601
      7 C23        -9.5760   48.0340  -40.5620 C.ar      1 P85        -0.0248
      8 C22       -10.4100   48.7790  -39.5700 C.3       1 P85         0.0627
      9 N21       -11.8180   48.4360  -39.8070 N.am      1 P85        -0.2760
     10 C19       -12.6300   47.9630  -38.7550 C.2       1 P85         0.1812
     11 O20       -12.2050   47.8670  -37.6470 O.2       1 P85        -0.3966
     12 C16       -14.0810   47.5870  -39.0210 C.3       1 P85         0.0583
     13 C17       -14.1210   46.1350  -39.2260 C.3       1 P85         0.0074
     14 C18       -15.4680   45.7020  -39.7240 C.3       1 P85        -0.0277
     15 N13       -16.6190   46.1040  -38.8530 N.4       1 P85         0.2502
     16 C14       -16.3930   47.3730  -38.0970 C.3       1 P85        -0.0277
     17 C15       -14.9970   47.9410  -37.9190 C.3       1 P85         0.0074
     18 C11       -18.0950   45.9920  -39.4280 C.3       1 P85         0.0122
     19 C12       -19.2720   46.1120  -38.5340 C.3       1 P85        -0.0107
     20 C1        -18.2270   44.5750  -40.1400 C.ar      1 P85         0.0148
     21 C2        -18.3020   43.4700  -39.3570 C.ar      1 P85        -0.0554
     22 C3        -18.3950   42.1220  -39.9630 C.ar      1 P85        -0.0705
     23 C4        -18.3820   41.9970  -41.3190 C.ar      1 P85        -0.0631
     24 C5        -18.3130   43.1940  -42.1660 C.ar      1 P85        -0.0241
     25 C6        -18.2230   44.4390  -41.6090 C.ar      1 P85        -0.0068
     26 C10       -18.2990   43.0470  -43.5660 C.ar      1 P85        -0.0569
     27 C9        -18.1990   44.2060  -44.3860 C.ar      1 P85        -0.0629
     28 C8        -18.1120   45.4640  -43.8290 C.ar      1 P85        -0.0625
     29 C7        -18.1080   45.6090  -42.4460 C.ar      1 P85        -0.0546
     30 H          -9.4771   44.8885  -42.0108 H         1 P85         0.0587
     31 H         -10.7484   46.1853  -40.3364 H         1 P85         0.0548
     32 H          -7.0676   48.4419  -42.7918 H         1 P85         0.0587
     33 H          -8.2980   49.7061  -41.0692 H         1 P85         0.0548
     34 H         -10.2635   49.8616  -39.6984 H         1 P85         0.0676
     35 H         -10.1226   48.4886  -38.5487 H         1 P85         0.0676
     36 H         -12.2051   48.5388  -40.7233 H         1 P85         0.1877
     37 H         -14.4189   48.1008  -39.9330 H         1 P85         0.0542
     38 H         -13.9107   45.6305  -38.2714 H         1 P85         0.0344
     39 H         -13.3564   45.8544  -39.9653 H         1 P85         0.0344
     40 H         -15.4667   44.6050  -39.8045 H         1 P85         0.0816
     41 H         -15.6225   46.1426  -40.7200 H         1 P85         0.0816
     42 H         -16.6065   45.3949  -38.1367 H         1 P85         0.2052
     43 H         -16.7951   47.2102  -37.0862 H         1 P85         0.0816
     44 H         -16.9834   48.1491  -38.6059 H         1 P85         0.0816
     45 H         -15.0700   49.0372  -37.8633 H         1 P85         0.0344
     46 H         -14.5789   47.5530  -36.9784 H         1 P85         0.0344
     47 H         -18.1925   46.7871  -40.1819 H         1 P85         0.1027
     48 H         -20.1937   46.0062  -39.1251 H         1 P85         0.0309
     49 H         -19.2616   47.0969  -38.0443 H         1 P85         0.0309
     50 H         -19.2339   45.3219  -37.7696 H         1 P85         0.0309
     51 H         -18.2938   43.5746  -38.2781 H         1 P85         0.0531
     52 H         -18.4727   41.2431  -39.3332 H         1 P85         0.0595
     53 H         -18.4226   41.0135  -41.7730 H         1 P85         0.0542
     54 H         -18.3637   42.0622  -44.0144 H         1 P85         0.0609
     55 H         -18.1911   44.0979  -45.4646 H         1 P85         0.0616
     56 H         -18.0469   46.3377  -44.4673 H         1 P85         0.0601
     57 H         -18.0192   46.5931  -42.0001 H         1 P85         0.0628
@<TRIPOS>BOND
     1    1    2 1  
     2    2    3 ar 
     3    2    5 ar 
     4    3    4 ar 
     5    4    7 ar 
     6    5    6 ar 
     7    6    7 ar 
     8    7    8 1  
     9    8    9 1  
    10    9   10 am 
    11   10   11 2  
    12   10   12 1  
    13   12   13 1  
    14   12   17 1  
    15   13   14 1  
    16   14   15 1  
    17   15   16 1  
    18   15   18 1  
    19   16   17 1  
    20   18   19 1  
    21   18   20 1  
    22   20   21 ar 
    23   20   25 ar 
    24   21   22 ar 
    25   22   23 ar 
    26   23   24 ar 
    27   24   25 ar 
    28   24   26 ar 
    29   25   29 ar 
    30   26   27 ar 
    31   27   28 ar 
    32   28   29 ar 
    33    3   30 1  
    34    4   31 1  
    35    5   32 1  
    36    6   33 1  
    37    8   34 1  
    38    8   35 1  
    39    9   36 1  
    40   12   37 1  
    41   13   38 1  
    42   13   39 1  
    43   14   40 1  
    44   14   41 1  
    45   15   42 1  
    46   16   43 1  
    47   16   44 1  
    48   17   45 1  
    49   17   46 1  
    50   18   47 1  
    51   19   48 1  
    52   19   49 1  
    53   19   50 1  
    54   21   51 1  
    55   22   52 1  
    56   23   53 1  
    57   26   54 1  
    58   27   55 1  
    59   28   56 1  
    60   29   57 1  
@<TRIPOS>SUBSTRUCTURE
     1 P85         1

