### 
### Created by X-TOOL on Mon Sep 10 21:13:17 2018
### 

@<TRIPOS>MOLECULE
4ow0_ligand
   57    60     1     0     0
SMALL
GAST_HUCK


@<TRIPOS>ATOM
      1 F29        -8.7950   45.8410  -42.7920 F         1 S88        -0.1853
      2 C27        -8.4950   46.9800  -42.2180 C.ar      1 S88         0.1259
      3 C26        -7.3700   47.6520  -42.6080 C.ar      1 S88        -0.0352
      4 C25        -7.0440   48.8740  -41.9890 C.ar      1 S88        -0.0703
      5 C24        -7.8890   49.4130  -40.9790 C.ar      1 S88        -0.0624
      6 C28        -9.3400   47.4950  -41.2090 C.ar      1 S88        -0.0251
      7 C23        -9.0210   48.7200  -40.5890 C.ar      1 S88        -0.0229
      8 C22        -9.9770   49.2790  -39.4950 C.3       1 S88         0.0636
      9 N21       -11.3530   48.9550  -39.8030 N.am      1 S88        -0.2755
     10 C19       -12.2010   48.4090  -38.8130 C.2       1 S88         0.1813
     11 O20       -11.8240   48.2390  -37.6700 O.2       1 S88        -0.3966
     12 C16       -13.6730   48.0270  -39.1780 C.3       1 S88         0.0583
     13 C15       -14.5370   48.3430  -38.0530 C.3       1 S88         0.0074
     14 C14       -15.9700   47.9290  -38.4060 C.3       1 S88        -0.0277
     15 N13       -16.2170   46.6060  -39.0460 N.4       1 S88         0.2502
     16 C18       -15.1130   46.1590  -39.9340 C.3       1 S88        -0.0277
     17 C17       -13.7140   46.5690  -39.5140 C.3       1 S88         0.0074
     18 C11       -17.6320   46.4130  -39.6150 C.3       1 S88         0.0122
     19 C12       -18.7090   46.5420  -38.5580 C.3       1 S88        -0.0107
     20 C10       -17.7520   45.0150  -40.2820 C.ar      1 S88         0.0148
     21 C2        -17.8000   44.8180  -41.7770 C.ar      1 S88        -0.0068
     22 C1        -17.7370   45.9260  -42.6800 C.ar      1 S88        -0.0546
     23 C6        -17.7640   45.7240  -44.0760 C.ar      1 S88        -0.0625
     24 C5        -17.8340   44.4130  -44.5740 C.ar      1 S88        -0.0629
     25 C4        -17.9230   43.3300  -43.7070 C.ar      1 S88        -0.0569
     26 C3        -17.8810   43.5350  -42.2840 C.ar      1 S88        -0.0241
     27 C7        -17.9540   42.3830  -41.3810 C.ar      1 S88        -0.0631
     28 C8        -17.9600   42.5790  -39.9570 C.ar      1 S88        -0.0705
     29 C9        -17.8460   43.9090  -39.4130 C.ar      1 S88        -0.0554
     30 H          -6.7343   47.2474  -43.3873 H         1 S88         0.0546
     31 H          -6.1463   49.4059  -42.2829 H         1 S88         0.0589
     32 H          -7.6466   50.3631  -40.5169 H         1 S88         0.0523
     33 H         -10.2294   46.9504  -40.9132 H         1 S88         0.0542
     34 H          -9.8665   50.3722  -39.4434 H         1 S88         0.0683
     35 H          -9.7111   48.8373  -38.5233 H         1 S88         0.0683
     36 H         -11.7069   49.1187  -40.7238 H         1 S88         0.1878
     37 H         -13.9992   48.6073  -40.0537 H         1 S88         0.0542
     38 H         -14.5025   49.4238  -37.8513 H         1 S88         0.0344
     39 H         -14.2012   47.7927  -37.1617 H         1 S88         0.0344
     40 H         -16.3640   48.6940  -39.0912 H         1 S88         0.0816
     41 H         -16.5467   47.9435  -37.4695 H         1 S88         0.0816
     42 H         -16.1829   45.9566  -38.2758 H         1 S88         0.2052
     43 H         -15.2984   46.5731  -40.9360 H         1 S88         0.0816
     44 H         -15.1421   45.0604  -39.9801 H         1 S88         0.0816
     45 H         -13.4159   45.9855  -38.6305 H         1 S88         0.0344
     46 H         -13.0150   46.3680  -40.3392 H         1 S88         0.0344
     47 H         -17.8016   47.1868  -40.3781 H         1 S88         0.1027
     48 H         -19.6962   46.3952  -39.0206 H         1 S88         0.0309
     49 H         -18.6612   47.5437  -38.1061 H         1 S88         0.0309
     50 H         -18.5520   45.7807  -37.7797 H         1 S88         0.0309
     51 H         -17.6676   46.9337  -42.2865 H         1 S88         0.0628
     52 H         -17.7312   46.5688  -44.7545 H         1 S88         0.0601
     53 H         -17.8185   44.2438  -45.6446 H         1 S88         0.0616
     54 H         -18.0245   42.3268  -44.1051 H         1 S88         0.0609
     55 H         -18.0036   41.3797  -41.7884 H         1 S88         0.0542
     56 H         -18.0502   41.7272  -39.2927 H         1 S88         0.0595
     57 H         -17.8326   44.0582  -38.3394 H         1 S88         0.0531
@<TRIPOS>BOND
     1    1    2 1  
     2    2    3 ar 
     3    2    6 ar 
     4    3    4 ar 
     5    4    5 ar 
     6    5    7 ar 
     7    6    7 ar 
     8    7    8 1  
     9    8    9 1  
    10    9   10 am 
    11   10   11 2  
    12   10   12 1  
    13   12   13 1  
    14   12   17 1  
    15   13   14 1  
    16   14   15 1  
    17   15   16 1  
    18   15   18 1  
    19   16   17 1  
    20   18   19 1  
    21   18   20 1  
    22   20   21 ar 
    23   20   29 ar 
    24   21   22 ar 
    25   21   26 ar 
    26   22   23 ar 
    27   23   24 ar 
    28   24   25 ar 
    29   25   26 ar 
    30   26   27 ar 
    31   27   28 ar 
    32   28   29 ar 
    33    3   30 1  
    34    4   31 1  
    35    5   32 1  
    36    6   33 1  
    37    8   34 1  
    38    8   35 1  
    39    9   36 1  
    40   12   37 1  
    41   13   38 1  
    42   13   39 1  
    43   14   40 1  
    44   14   41 1  
    45   15   42 1  
    46   16   43 1  
    47   16   44 1  
    48   17   45 1  
    49   17   46 1  
    50   18   47 1  
    51   19   48 1  
    52   19   49 1  
    53   19   50 1  
    54   22   51 1  
    55   23   52 1  
    56   24   53 1  
    57   25   54 1  
    58   27   55 1  
    59   28   56 1  
    60   29   57 1  
@<TRIPOS>SUBSTRUCTURE
     1 S88         1

