### 
### Created by X-TOOL on Mon Sep 10 21:13:17 2018
### 

@<TRIPOS>MOLECULE
4owm_ligand
   16    16     1     0     0
SMALL
GAST_HUCK


@<TRIPOS>ATOM
      1 OAB       -20.2830  -34.0490   18.7420 O.co2     1 3F0        -0.5651
      2 CAH       -19.3040  -34.8020   18.5300 C.2       1 3F0         0.0548
      3 OAC       -19.0770  -35.7580   19.3060 O.co2     1 3F0        -0.5651
      4 CAK       -18.4730  -34.5440   17.4440 C.ar      1 3F0         0.0258
      5 CAG       -17.6090  -35.5330   16.9470 C.ar      1 3F0        -0.0632
      6 CAE       -16.7840  -35.2310   15.8460 C.ar      1 3F0        -0.0733
      7 CAF       -16.8290  -33.9620   15.2570 C.ar      1 3F0        -0.0371
      8 CAJ       -17.6980  -32.9760   15.7370 C.ar      1 3F0         0.1519
      9 FAD       -17.7860  -31.6110   15.1800 F         1 3F0        -0.1919
     10 CAI       -18.4880  -33.2800   16.8240 C.ar      1 3F0         0.0850
     11 NAA       -19.2870  -32.2950   17.2560 N.pl3     1 3F0        -0.3339
     12 H         -17.5773  -36.5153   17.4043 H         1 3F0         0.0582
     13 H         -16.1112  -35.9847   15.4531 H         1 3F0         0.0503
     14 H         -16.1812  -33.7399   14.4167 H         1 3F0         0.0589
     15 H         -19.9056  -32.4509   18.0647 H         1 3F0         0.1724
     16 H         -19.2827  -31.3819   16.7794 H         1 3F0         0.1724
@<TRIPOS>BOND
     1    1    2 ar 
     2    2    3 ar 
     3    2    4 1  
     4    4    5 ar 
     5    4   10 ar 
     6    5    6 ar 
     7    6    7 ar 
     8    7    8 ar 
     9    8    9 1  
    10    8   10 ar 
    11   10   11 1  
    12    5   12 1  
    13    6   13 1  
    14    7   14 1  
    15   11   15 1  
    16   11   16 1  
@<TRIPOS>SUBSTRUCTURE
     1 3F0         1

