### 
### Created by X-TOOL on Mon Sep 10 21:13:17 2018
### 

@<TRIPOS>MOLECULE
4own_ligand
   16    16     1     0     0
SMALL
GAST_HUCK


@<TRIPOS>ATOM
      1 NAA       -20.2430  -23.5810   14.9860 N.pl3     1 5RG        -0.3361
      2 OAB       -19.4720  -25.1620   16.6730 O.co2     1 5RG        -0.5650
      3 OAC       -19.9520  -27.2540   16.3110 O.co2     1 5RG        -0.5650
      4 FAD       -19.9060  -27.5250   11.5300 F         1 5RG        -0.1939
      5 CAE       -20.3170  -24.2950   12.7230 C.ar      1 5RG        -0.0421
      6 CAF       -20.2230  -25.3510   11.8340 C.ar      1 5RG        -0.0371
      7 CAG       -19.8160  -26.8850   13.6450 C.ar      1 5RG        -0.0256
      8 CAH       -19.7670  -26.0900   15.8880 C.2       1 5RG         0.0551
      9 CAI       -20.1630  -24.5470   14.0740 C.ar      1 5RG         0.0467
     10 CAJ       -19.9790  -26.6280   12.3000 C.ar      1 5RG         0.1215
     11 CAK       -19.9120  -25.8340   14.5370 C.ar      1 5RG         0.0257
     12 H         -20.4274  -22.6107   14.6936 H         1 5RG         0.1723
     13 H         -20.1206  -23.8037   15.9842 H         1 5RG         0.1723
     14 H         -20.5078  -23.2890   12.3672 H         1 5RG         0.0514
     15 H         -20.3410  -25.1759   10.7708 H         1 5RG         0.0593
     16 H         -19.6166  -27.8912   13.9955 H         1 5RG         0.0604
@<TRIPOS>BOND
     1    9    1 1  
     2    8    2 ar 
     3    8    3 ar 
     4   10    4 1  
     5    6    5 ar 
     6    5    9 ar 
     7   10    6 ar 
     8    7   10 ar 
     9   11    7 ar 
    10    8   11 1  
    11    9   11 ar 
    12    1   12 1  
    13    1   13 1  
    14    5   14 1  
    15    6   15 1  
    16    7   16 1  
@<TRIPOS>SUBSTRUCTURE
     1 5RG         1

