### 
### Created by X-TOOL on Mon Sep 10 21:13:17 2018
### 

@<TRIPOS>MOLECULE
4owo_ligand
   16    16     1     0     0
SMALL
GAST_HUCK


@<TRIPOS>ATOM
      1 OAB       -17.8650  -35.6140   18.1310 O.co2     1 6F0        -0.5664
      2 CAH       -18.4870  -34.5290   18.0180 C.2       1 6F0         0.0554
      3 OAC       -19.4570  -34.2940   18.7890 O.co2     1 6F0        -0.5664
      4 CAK       -18.1340  -33.5950   17.0160 C.ar      1 6F0         0.0602
      5 CAJ       -17.2190  -33.9240   16.0000 C.ar      1 6F0         0.1361
      6 FAD       -16.6230  -35.1220   15.9140 F         1 6F0        -0.1830
      7 CAG       -16.9170  -32.9930   15.0190 C.ar      1 6F0        -0.0377
      8 CAE       -17.4680  -31.7230   15.0110 C.ar      1 6F0        -0.0727
      9 CAF       -18.3570  -31.3760   16.0030 C.ar      1 6F0        -0.0447
     10 CAI       -18.6880  -32.2980   16.9790 C.ar      1 6F0         0.0486
     11 NAA       -19.5490  -31.9580   17.9200 N.pl3     1 6F0        -0.3348
     12 H         -16.2256  -33.2686   14.2309 H         1 6F0         0.0501
     13 H         -17.2035  -31.0130   14.2357 H         1 6F0         0.0595
     14 H         -18.7955  -30.3848   16.0190 H         1 6F0         0.0489
     15 H         -19.8046  -32.6348   18.6531 H         1 6F0         0.1734
     16 H         -19.9653  -31.0159   17.9211 H         1 6F0         0.1734
@<TRIPOS>BOND
     1    1    2 ar 
     2    2    3 ar 
     3    2    4 1  
     4    4    5 ar 
     5    4   10 ar 
     6    5    6 1  
     7    5    7 ar 
     8    7    8 ar 
     9    8    9 ar 
    10    9   10 ar 
    11   10   11 1  
    12    7   12 1  
    13    8   13 1  
    14    9   14 1  
    15   11   15 1  
    16   11   16 1  
@<TRIPOS>SUBSTRUCTURE
     1 6F0         1

