### 
### Created by X-TOOL on Mon Sep 10 21:13:18 2018
### 

@<TRIPOS>MOLECULE
4owv_ligand
   16    16     1     0     0
SMALL
GAST_HUCK


@<TRIPOS>ATOM
      1 C           0.8990   38.1210  -16.3460 C.2       1 BE2         0.0559
      2 O1          0.0120   38.2730  -17.2210 O.co2     1 BE2        -0.5650
      3 O2          1.8540   38.9220  -16.2540 O.co2     1 BE2        -0.5650
      4 C1          0.8020   36.9630  -15.3860 C.ar      1 BE2         0.0272
      5 C2         -0.2910   35.9480  -15.5230 C.ar      1 BE2         0.0505
      6 C3         -0.3730   34.8930  -14.6180 C.ar      1 BE2        -0.0406
      7 N2         -1.2170   36.0410  -16.5180 N.pl3     1 BE2        -0.3340
      8 C4          0.5680   34.7960  -13.6060 C.ar      1 BE2        -0.0709
      9 C5          1.5810   35.7410  -13.4840 C.ar      1 BE2        -0.0714
     10 C6          1.7230   36.8170  -14.3470 C.ar      1 BE2        -0.0592
     11 H          -1.1636   34.1565  -14.7043 H         1 BE2         0.0523
     12 H          -1.1694   36.8158  -17.1950 H         1 BE2         0.1735
     13 H          -1.9646   35.3365  -16.5932 H         1 BE2         0.1735
     14 H           0.5141   33.9742  -12.9012 H         1 BE2         0.0604
     15 H           2.2941   35.6311  -12.6750 H         1 BE2         0.0513
     16 H           2.5306   37.5285  -14.2179 H         1 BE2         0.0616
@<TRIPOS>BOND
     1    1    2 ar 
     2    1    3 ar 
     3    1    4 1  
     4    4    5 ar 
     5    4   10 ar 
     6    5    6 ar 
     7    5    7 1  
     8    6    8 ar 
     9    8    9 ar 
    10    9   10 ar 
    11    6   11 1  
    12    7   12 1  
    13    7   13 1  
    14    8   14 1  
    15    9   15 1  
    16   10   16 1  
@<TRIPOS>SUBSTRUCTURE
     1 BE2         1

