### 
### Created by X-TOOL on Mon Sep 10 21:13:17 2018
### 

@<TRIPOS>MOLECULE
4oya_ligand
   38    41     1     0     0
SMALL
GAST_HUCK


@<TRIPOS>ATOM
      1 C2         17.2900   20.7040   -1.0160 C.2       1 1VE         0.1575
      2 C6         18.0940   21.8720   -1.1490 C.2       1 1VE         0.1702
      3 C7         17.6110   23.2180   -1.5580 C.2       1 1VE         0.1693
      4 C10        19.4970   24.5220   -0.4750 C.ar      1 1VE        -0.0546
      5 C11        20.1700   25.7170   -0.2670 C.ar      1 1VE        -0.0648
      6 C12        19.7250   26.8770   -0.8680 C.ar      1 1VE        -0.0283
      7 C13        18.6200   26.8390   -1.6900 C.ar      1 1VE         0.1005
      8 C15        16.8180   28.3100   -2.4230 C.3       1 1VE         0.1519
      9 C16        16.3740   28.0840   -3.8250 C.2       1 1VE         0.1521
     10 C19        14.6280   26.5480   -6.5220 C.ar      1 1VE        -0.0656
     11 C21        15.3290   28.0610   -8.2530 C.ar      1 1VE        -0.0766
     12 C22        16.0710   28.7900   -7.3320 C.ar      1 1VE        -0.0422
     13 C23        16.0910   28.3930   -5.9900 C.ar      1 1VE         0.0784
     14 C26        17.9290   25.6580   -1.8830 C.ar      1 1VE        -0.0148
     15 N1         15.9530   20.6110   -1.1960 N.pl3     1 1VE        -0.3283
     16 N3         18.0380   19.7010   -0.6610 N.2       1 1VE        -0.0968
     17 O4         19.3070   20.2140   -0.5720 O.3       1 1VE        -0.0672
     18 N5         19.3330   21.5610   -0.8900 N.2       1 1VE        -0.0777
     19 O8         16.5410   23.2790   -2.1540 O.2       1 1VE        -0.3710
     20 C9         18.3680   24.4790   -1.2860 C.ar      1 1VE         0.0248
     21 O14        18.2130   28.0530   -2.2550 O.3       1 1VE        -0.2949
     22 N17        15.5520   27.1150   -4.2300 N.2       1 1VE        -0.3158
     23 C18        15.3770   27.2870   -5.5860 C.ar      1 1VE         0.0208
     24 C20        14.6160   26.9430   -7.8500 C.ar      1 1VE        -0.0786
     25 N24        16.6910   28.8670   -4.8670 N.pl3     1 1VE        -0.2442
     26 H          19.8539   23.6145   -0.0017 H         1 1VE         0.0576
     27 H          21.0475   25.7398    0.3691 H         1 1VE         0.0601
     28 H          20.2424   27.8135   -0.6941 H         1 1VE         0.0579
     29 H          16.2513   27.6409   -1.7588 H         1 1VE         0.0889
     30 H          16.6144   29.3560   -2.1503 H         1 1VE         0.0889
     31 H          14.0653   25.6770   -6.2060 H         1 1VE         0.0535
     32 H          15.3076   28.3683   -9.2923 H         1 1VE         0.0528
     33 H          16.6313   29.6614   -7.6510 H         1 1VE         0.0541
     34 H          17.0398   25.6493   -2.5029 H         1 1VE         0.0592
     35 H          15.4782   19.7056   -1.0707 H         1 1VE         0.1694
     36 H          15.4094   21.4456   -1.4584 H         1 1VE         0.1694
     37 H          14.0465   26.3752   -8.5768 H         1 1VE         0.0516
     38 H          17.2961   29.6994   -4.8226 H         1 1VE         0.2323
@<TRIPOS>BOND
     1    2    1 1  
     2    1   15 1  
     3    1   16 2  
     4    3    2 1  
     5    2   18 2  
     6    3   19 2  
     7   20    3 1  
     8    5    4 ar 
     9    4   20 ar 
    10    6    5 ar 
    11    7    6 ar 
    12    7   14 ar 
    13   21    7 1  
    14    9    8 1  
    15    8   21 1  
    16    9   22 2  
    17   25    9 1  
    18   23   10 ar 
    19   10   24 ar 
    20   12   11 ar 
    21   11   24 ar 
    22   13   12 ar 
    23   13   23 ar 
    24   13   25 1  
    25   14   20 ar 
    26   16   17 1  
    27   17   18 1  
    28   22   23 1  
    29    4   26 1  
    30    5   27 1  
    31    6   28 1  
    32    8   29 1  
    33    8   30 1  
    34   10   31 1  
    35   11   32 1  
    36   12   33 1  
    37   14   34 1  
    38   15   35 1  
    39   15   36 1  
    40   24   37 1  
    41   25   38 1  
@<TRIPOS>SUBSTRUCTURE
     1 1VE         1

