### 
### Created by X-TOOL on Mon Sep 10 21:13:17 2018
### 

@<TRIPOS>MOLECULE
4oyb_ligand
   34    35     1     0     0
SMALL
GAST_HUCK


@<TRIPOS>ATOM
      1 C1         15.1710   27.0360   -7.8260 C.3       1 1VJ        -0.0371
      2 C2         15.1270   27.0880   -6.3040 C.3       1 1VJ         0.0741
      3 C6         18.0410   27.7980   -4.1320 C.3       1 1VJ         0.1703
      4 C8         18.6520   26.8360   -2.0070 C.ar      1 1VJ         0.0998
      5 C10        20.0990   25.8840   -0.3630 C.ar      1 1VJ        -0.0648
      6 C11        19.5060   24.6530   -0.5500 C.ar      1 1VJ        -0.0546
      7 C12        18.4770   24.5050   -1.4700 C.ar      1 1VJ         0.0248
      8 C13        18.0560   25.6140   -2.1970 C.ar      1 1VJ        -0.0149
      9 C14        17.7870   23.2100   -1.7290 C.2       1 1VJ         0.1693
     10 C16        18.2930   21.9080   -1.2070 C.2       1 1VJ         0.1702
     11 O3         16.4560   27.4220   -5.8100 O.3       1 1VJ        -0.2751
     12 C4         16.5960   27.5820   -4.4800 C.2       1 1VJ         0.2648
     13 O5         15.6870   27.5550   -3.6850 O.2       1 1VJ        -0.3674
     14 O7         18.2440   27.9610   -2.7250 O.3       1 1VJ        -0.2951
     15 C9         19.6710   26.9800   -1.0930 C.ar      1 1VJ        -0.0284
     16 O15        16.7600   23.2200   -2.4000 O.2       1 1VJ        -0.3710
     17 N17        19.5320   21.6910   -0.8640 N.2       1 1VJ        -0.0777
     18 O18        19.5630   20.3680   -0.4440 O.3       1 1VJ        -0.0672
     19 N19        18.3490   19.7820   -0.5310 N.2       1 1VJ        -0.0968
     20 C20        17.5550   20.7030   -0.9950 C.2       1 1VJ         0.1575
     21 N21        16.2380   20.4870   -1.2200 N.pl3     1 1VJ        -0.3283
     22 H          14.1726   26.7844   -8.2133 H         1 1VJ         0.0255
     23 H          15.8922   26.2696   -8.1460 H         1 1VJ         0.0255
     24 H          15.4798   28.0164   -8.2176 H         1 1VJ         0.0255
     25 H          14.8206   26.1083   -5.9088 H         1 1VJ         0.0610
     26 H          14.4082   27.8551   -5.9804 H         1 1VJ         0.0610
     27 H          18.3974   28.7020   -4.6475 H         1 1VJ         0.0875
     28 H          18.6208   26.9281   -4.4742 H         1 1VJ         0.0875
     29 H          20.9019   25.9938    0.3570 H         1 1VJ         0.0601
     30 H          19.8447   23.7978    0.0236 H         1 1VJ         0.0576
     31 H          17.2526   25.5126   -2.9177 H         1 1VJ         0.0592
     32 H          20.1367   27.9477   -0.9452 H         1 1VJ         0.0579
     33 H          15.8266   19.5634   -1.0233 H         1 1VJ         0.1694
     34 H          15.6471   21.2462   -1.5880 H         1 1VJ         0.1694
@<TRIPOS>BOND
     1    2    1 1  
     2   11    2 1  
     3   12    3 1  
     4    3   14 1  
     5    4    8 ar 
     6   14    4 1  
     7    4   15 ar 
     8    5    6 ar 
     9   15    5 ar 
    10    7    6 ar 
    11    8    7 ar 
    12    7    9 1  
    13    9   10 1  
    14    9   16 2  
    15   10   17 2  
    16   10   20 1  
    17   11   12 1  
    18   12   13 2  
    19   17   18 1  
    20   18   19 1  
    21   19   20 2  
    22   20   21 1  
    23    1   22 1  
    24    1   23 1  
    25    1   24 1  
    26    2   25 1  
    27    2   26 1  
    28    3   27 1  
    29    3   28 1  
    30    5   29 1  
    31    6   30 1  
    32    8   31 1  
    33   15   32 1  
    34   21   33 1  
    35   21   34 1  
@<TRIPOS>SUBSTRUCTURE
     1 1VJ         1

