### 
### Created by X-TOOL on Mon Sep 10 21:13:17 2018
### 

@<TRIPOS>MOLECULE
4oyi_ligand
   21    22     1     0     0
SMALL
GAST_HUCK


@<TRIPOS>ATOM
      1 C2         17.2490   20.5360   -0.9150 C.2       1 1VK         0.1575
      2 C6         18.0090   21.7290   -1.1140 C.2       1 1VK         0.1704
      3 C7         17.4670   23.0340   -1.5770 C.2       1 1VK         0.1719
      4 C10        17.6940   25.4530   -2.0430 C.ar      1 1VK        -0.0435
      5 C11        18.3050   26.6780   -1.8930 C.ar      1 1VK        -0.0561
      6 C12        19.4030   26.8050   -1.0700 C.ar      1 1VK        -0.0573
      7 C13        19.8920   25.7070   -0.3960 C.ar      1 1VK        -0.0561
      8 C14        19.2840   24.4730   -0.5420 C.ar      1 1VK        -0.0435
      9 N1         15.9160   20.3710   -1.1050 N.pl3     1 1VK        -0.3283
     10 N3         18.0390   19.5850   -0.5090 N.2       1 1VK        -0.0968
     11 O4         19.2900   20.1610   -0.4480 O.3       1 1VK        -0.0672
     12 N5         19.2580   21.4890   -0.8260 N.2       1 1VK        -0.0777
     13 O8         16.3850   23.0330   -2.1590 O.2       1 1VK        -0.3710
     14 C9         18.1770   24.3340   -1.3680 C.ar      1 1VK         0.0335
     15 H          16.8304   25.3586   -2.6914 H         1 1VK         0.0670
     16 H          17.9220   27.5428   -2.4226 H         1 1VK         0.0630
     17 H          19.8827   27.7700   -0.9526 H         1 1VK         0.0654
     18 H          20.7558   25.8106    0.2506 H         1 1VK         0.0630
     19 H          19.6730   23.6124   -0.0100 H         1 1VK         0.0670
     20 H          15.4798   19.4552   -0.9262 H         1 1VK         0.1694
     21 H          15.3401   21.1615   -1.4281 H         1 1VK         0.1694
@<TRIPOS>BOND
     1    2    1 1  
     2    1    9 1  
     3    1   10 2  
     4    3    2 1  
     5    2   12 2  
     6    3   13 2  
     7   14    3 1  
     8    4    5 ar 
     9    4   14 ar 
    10    5    6 ar 
    11    6    7 ar 
    12    7    8 ar 
    13    8   14 ar 
    14   10   11 1  
    15   11   12 1  
    16    4   15 1  
    17    5   16 1  
    18    6   17 1  
    19    7   18 1  
    20    8   19 1  
    21    9   20 1  
    22    9   21 1  
@<TRIPOS>SUBSTRUCTURE
     1 1VK         1

