### 
### Created by X-TOOL on Mon Sep 10 21:13:17 2018
### 

@<TRIPOS>MOLECULE
4oym_ligand
   25    26     1     0     0
SMALL
GAST_HUCK


@<TRIPOS>ATOM
      1 C1         17.1090   28.0100   -1.9230 C.3       1 1ZC         0.0594
      2 C3         18.4060   26.8820   -0.2480 C.ar      1 1ZC         0.0961
      3 C5         19.9110   25.8450    1.3050 C.ar      1 1ZC        -0.0648
      4 C6         19.2690   24.6330    1.1240 C.ar      1 1ZC        -0.0546
      5 C7         18.1810   24.5340    0.2650 C.ar      1 1ZC         0.0248
      6 C8         17.7560   25.6700   -0.4170 C.ar      1 1ZC        -0.0151
      7 C11        17.9430   21.9350    0.4340 C.2       1 1ZC         0.1702
      8 C15        17.1330   20.7790    0.5150 C.2       1 1ZC         0.1575
      9 O2         18.0720   28.0560   -0.8710 O.3       1 1ZC        -0.3202
     10 C4         19.4860   26.9670    0.6210 C.ar      1 1ZC        -0.0286
     11 C9         17.4500   23.2600    0.0020 C.2       1 1ZC         0.1693
     12 O10        16.3920   23.2930   -0.6200 O.2       1 1ZC        -0.3710
     13 N12        19.1680   21.6100    0.7380 N.2       1 1ZC        -0.0777
     14 O13        19.1120   20.2570    1.0280 O.3       1 1ZC        -0.0672
     15 N14        17.8550   19.7650    0.8860 N.2       1 1ZC        -0.0968
     16 N16        15.8100   20.7060    0.2800 N.pl3     1 1ZC        -0.3283
     17 H          16.9496   29.0239   -2.3187 H         1 1ZC         0.0577
     18 H          16.1591   27.6149   -1.5336 H         1 1ZC         0.0577
     19 H          17.4759   27.3559   -2.7277 H         1 1ZC         0.0577
     20 H          20.7511   25.9143    1.9865 H         1 1ZC         0.0601
     21 H          19.6169   23.7547    1.6557 H         1 1ZC         0.0576
     22 H          16.9070   25.6061   -1.0879 H         1 1ZC         0.0592
     23 H          19.9951   27.9135    0.7623 H         1 1ZC         0.0579
     24 H          15.3199   19.8045    0.3699 H         1 1ZC         0.1694
     25 H          15.2874   21.5516    0.0102 H         1 1ZC         0.1694
@<TRIPOS>BOND
     1    9    1 1  
     2    6    2 ar 
     3    2    9 1  
     4    2   10 ar 
     5    4    3 ar 
     6    3   10 ar 
     7    5    4 ar 
     8    5    6 ar 
     9   11    5 1  
    10    7    8 1  
    11    7   11 1  
    12    7   13 2  
    13    8   15 2  
    14    8   16 1  
    15   11   12 2  
    16   13   14 1  
    17   14   15 1  
    18    1   17 1  
    19    1   18 1  
    20    1   19 1  
    21    3   20 1  
    22    4   21 1  
    23    6   22 1  
    24   10   23 1  
    25   16   24 1  
    26   16   25 1  
@<TRIPOS>SUBSTRUCTURE
     1 1ZC         1

