### 
### Created by X-TOOL on Mon Sep 10 21:13:17 2018
### 

@<TRIPOS>MOLECULE
4oyo_ligand
   22    23     1     0     0
SMALL
GAST_HUCK


@<TRIPOS>ATOM
      1 C1         15.4970   32.7100   -1.0600 C.3       1 1WC         0.0024
      2 C2         16.5530   32.4820   -2.0860 C.2       1 1WC         0.0794
      3 C6         17.8980   31.8390   -3.7230 C.2       1 1WC        -0.0046
      4 C7         16.6880   31.5200   -3.0750 C.2       1 1WC         0.0020
      5 C8         15.7890   30.3930   -3.4230 C.ar      1 1WC        -0.0279
      6 C10        13.5420   29.6300   -3.8710 C.ar      1 1WC        -0.0692
      7 C11        14.0110   28.3510   -4.0930 C.ar      1 1WC        -0.0685
      8 C12        15.3600   28.0820   -3.9870 C.ar      1 1WC        -0.0555
      9 C13        16.2410   29.0960   -3.6590 C.ar      1 1WC         0.0360
     10 N3         17.6230   33.2840   -2.1780 N.pl3     1 1WC        -0.2134
     11 N5         18.4660   32.9080   -3.1780 N.2       1 1WC        -0.2280
     12 C9         14.4190   30.6470   -3.5370 C.ar      1 1WC        -0.0651
     13 CL1        17.9270   28.7110   -3.5370 Cl        1 1WC        -0.0771
     14 H          15.7588   33.5896   -0.4536 H         1 1WC         0.0457
     15 H          15.4205   31.8260   -0.4098 H         1 1WC         0.0457
     16 H          14.5321   32.8828   -1.5590 H         1 1WC         0.0457
     17 H          18.3130   31.2814   -4.5614 H         1 1WC         0.0647
     18 H          12.4819   29.8388   -3.9587 H         1 1WC         0.0599
     19 H          13.3190   27.5574   -4.3508 H         1 1WC         0.0557
     20 H          15.7286   27.0775   -4.1605 H         1 1WC         0.0604
     21 H          17.7884   34.0928   -1.5620 H         1 1WC         0.2562
     22 H          14.0410   31.6478   -3.3625 H         1 1WC         0.0554
@<TRIPOS>BOND
     1    2    1 1  
     2    4    2 2  
     3    2   10 1  
     4    4    3 1  
     5    3   11 2  
     6    5    4 1  
     7    5    9 ar 
     8   12    5 ar 
     9    6    7 ar 
    10    6   12 ar 
    11    7    8 ar 
    12    8    9 ar 
    13    9   13 1  
    14   10   11 1  
    15    1   14 1  
    16    1   15 1  
    17    1   16 1  
    18    3   17 1  
    19    6   18 1  
    20    7   19 1  
    21    8   20 1  
    22   10   21 1  
    23   12   22 1  
@<TRIPOS>SUBSTRUCTURE
     1 1WC         1

