### 
### Created by X-TOOL on Mon Sep 10 21:13:17 2018
### 

@<TRIPOS>MOLECULE
4oyp_ligand
   17    18     1     0     0
SMALL
GAST_HUCK


@<TRIPOS>ATOM
      1 OAA        16.8220   30.4920   -2.2860 O.co2     1 BZ2        -0.5578
      2 OAB        15.2970   28.8720   -2.4030 O.co2     1 BZ2        -0.5578
      3 CAC        19.9780   25.7350    1.2620 C.ar      1 BZ2        -0.0750
      4 CAD        18.9420   24.8580    0.9760 C.ar      1 BZ2        -0.0719
      5 CAE        19.9450   27.0420    0.7930 C.ar      1 BZ2        -0.0687
      6 CAF        17.8620   25.2860    0.2280 C.ar      1 BZ2        -0.0294
      7 CAG        18.4670   28.6800   -0.6130 C.2       1 BZ2        -0.0298
      8 OAH        16.8690   27.1610   -0.9860 O.3       1 BZ2        -0.2458
      9 CAI        16.4020   29.3360   -2.0250 C.2       1 BZ2         0.0987
     10 CAJ        17.2800   28.4580   -1.2150 C.2       1 BZ2         0.1530
     11 CAK        18.8570   27.4900    0.0190 C.ar      1 BZ2        -0.0049
     12 CAL        17.8480   26.5880   -0.2350 C.ar      1 BZ2         0.1268
     13 H          20.8197   25.3978    1.8560 H         1 BZ2         0.0532
     14 H          18.9797   23.8373    1.3392 H         1 BZ2         0.0554
     15 H          20.7593   27.7194    1.0235 H         1 BZ2         0.0559
     16 H          17.0410   24.6131    0.0084 H         1 BZ2         0.0565
     17 H          19.0232   29.6163   -0.6171 H         1 BZ2         0.0415
@<TRIPOS>BOND
     1    9    1 ar 
     2    9    2 ar 
     3    4    3 ar 
     4    5    3 ar 
     5    6    4 ar 
     6   11    5 ar 
     7   12    6 ar 
     8   10    7 2  
     9    7   11 1  
    10   10    8 1  
    11    8   12 1  
    12    9   10 1  
    13   11   12 ar 
    14    3   13 1  
    15    4   14 1  
    16    5   15 1  
    17    6   16 1  
    18    7   17 1  
@<TRIPOS>SUBSTRUCTURE
     1 BZ2         1

