### 
### Created by X-TOOL on Mon Sep 10 21:13:17 2018
### 

@<TRIPOS>MOLECULE
4oys_ligand
   53    56     1     0     0
SMALL
GAST_HUCK


@<TRIPOS>ATOM
      1 C1         17.3650  -17.5320  -23.2920 C.2       1 1TT         0.2519
      2 C2         16.7830  -16.2380  -22.9490 C.3       1 1TT         0.2451
      3 C3         17.5870  -15.0730  -22.8260 C.2       1 1TT         0.4441
      4 C8         21.5200  -17.4830  -24.3330 C.3       1 1TT         0.1424
      5 C9         20.9610  -18.7490  -23.6650 C.3       1 1TT         0.0018
      6 C10        19.4430  -18.8370  -23.8370 C.3       1 1TT         0.0395
      7 C13        21.3230  -17.4360  -25.8360 C.3       1 1TT         0.4148
      8 C20        15.2910  -12.3470  -21.8090 C.3       1 1TT         0.1035
      9 C21        15.6640  -13.4390  -22.7910 C.3       1 1TT         0.1780
     10 C22        21.6370  -14.9430  -23.7030 C.3       1 1TT         0.0729
     11 C24        21.6420  -13.0550  -22.0020 C.ar      1 1TT        -0.0244
     12 C30        15.3240  -13.0900  -24.2310 C.3       1 1TT        -0.0062
     13 N4         18.9570  -15.1450  -23.1160 N.pl3     1 1TT        -0.1065
     14 N5         18.8070  -17.5460  -23.5150 N.am      1 1TT        -0.2166
     15 C6         19.5360  -16.3280  -23.3940 C.cat     1 1TT         0.2692
     16 N7         20.9550  -16.2980  -23.6610 N.pl3     1 1TT        -0.2669
     17 N11        17.1270  -13.8510  -22.6430 N.2       1 1TT        -0.1255
     18 O12        16.7960  -18.6250  -23.4080 O.2       1 1TT        -0.3648
     19 F14        20.1030  -17.0200  -26.1800 F         1 1TT        -0.1679
     20 F15        22.1860  -16.5980  -26.4010 F         1 1TT        -0.1679
     21 F16        21.5000  -18.6220  -26.4200 F         1 1TT        -0.1679
     22 C17        18.0850  -12.7510  -22.4520 C.3       1 1TT         0.1710
     23 C18        17.5500  -11.7500  -21.4530 C.3       1 1TT         0.1009
     24 O19        16.2530  -11.2730  -21.8170 O.3       1 1TT        -0.3686
     25 C23        21.8820  -14.4030  -22.3250 C.ar      1 1TT         0.0099
     26 C25        21.8790  -12.6220  -20.6680 C.ar      1 1TT         0.0621
     27 C26        22.3430  -13.5430  -19.6860 C.ar      1 1TT         0.0182
     28 N27        22.5680  -14.8560  -19.9930 N.ar      1 1TT        -0.3039
     29 C28        22.3340  -15.2630  -21.2780 C.ar      1 1TT         0.0147
     30 CL1        21.5670  -10.9860  -20.2180 Cl        1 1TT        -0.0626
     31 H          16.2788  -16.3711  -21.9805 H         1 1TT         0.1300
     32 H          16.0348  -16.0185  -23.7248 H         1 1TT         0.1300
     33 H          22.6061  -17.4768  -24.1591 H         1 1TT         0.0679
     34 H          21.2002  -18.7246  -22.5916 H         1 1TT         0.0313
     35 H          21.4266  -19.6333  -24.1245 H         1 1TT         0.0313
     36 H          19.0475  -19.6122  -23.1642 H         1 1TT         0.0527
     37 H          19.2123  -19.1033  -24.8790 H         1 1TT         0.0527
     38 H          15.2450  -12.7772  -20.7976 H         1 1TT         0.0618
     39 H          14.3043  -11.9441  -22.0813 H         1 1TT         0.0618
     40 H          15.0564  -14.3178  -22.5291 H         1 1TT         0.1003
     41 H          20.9965  -14.2382  -24.2535 H         1 1TT         0.0731
     42 H          22.6011  -15.0450  -24.2226 H         1 1TT         0.0731
     43 H          21.2840  -12.3610  -22.7538 H         1 1TT         0.0683
     44 H          15.6189  -13.9207  -24.8890 H         1 1TT         0.0286
     45 H          15.8658  -12.1790  -24.5253 H         1 1TT         0.0286
     46 H          14.2413  -12.9178  -24.3208 H         1 1TT         0.0286
     47 H          19.5249  -14.2857  -23.1163 H         1 1TT         0.3186
     48 H          18.2536  -12.2466  -23.4149 H         1 1TT         0.0969
     49 H          19.0363  -13.1598  -22.0806 H         1 1TT         0.0969
     50 H          18.2411  -10.8958  -21.4010 H         1 1TT         0.0615
     51 H          17.4874  -12.2316  -20.4660 H         1 1TT         0.0615
     52 H          22.5214  -13.1960  -18.6747 H         1 1TT         0.0772
     53 H          22.5027  -16.3067  -21.5173 H         1 1TT         0.0766
@<TRIPOS>BOND
     1    2    1 1  
     2    1   14 am 
     3    1   18 2  
     4    3    2 1  
     5    3   13 1  
     6   17    3 2  
     7    5    4 1  
     8    4    7 1  
     9    4   16 1  
    10    6    5 1  
    11   14    6 1  
    12    7   19 1  
    13    7   20 1  
    14    7   21 1  
    15    9    8 1  
    16    8   24 1  
    17    9   12 1  
    18    9   17 1  
    19   16   10 1  
    20   10   25 1  
    21   25   11 ar 
    22   11   26 ar 
    23   13   15 ar 
    24   14   15 ar 
    25   15   16 ar 
    26   17   22 1  
    27   22   23 1  
    28   23   24 1  
    29   25   29 ar 
    30   26   27 ar 
    31   26   30 1  
    32   27   28 ar 
    33   28   29 ar 
    34    2   31 1  
    35    2   32 1  
    36    4   33 1  
    37    5   34 1  
    38    5   35 1  
    39    6   36 1  
    40    6   37 1  
    41    8   38 1  
    42    8   39 1  
    43    9   40 1  
    44   10   41 1  
    45   10   42 1  
    46   11   43 1  
    47   12   44 1  
    48   12   45 1  
    49   12   46 1  
    50   13   47 1  
    51   22   48 1  
    52   22   49 1  
    53   23   50 1  
    54   23   51 1  
    55   27   52 1  
    56   29   53 1  
@<TRIPOS>SUBSTRUCTURE
     1 1TT         1

