### 
### Created by X-TOOL on Mon Sep 10 21:13:19 2018
### 

@<TRIPOS>MOLECULE
4oyt_ligand
   56    58     1     0     0
SMALL
GAST_HUCK


@<TRIPOS>ATOM
      1 N1         21.0110   -2.4360   20.3400 N.2       1 FON        -0.2723
      2 C2         20.6500   -1.1750   20.5970 C.cat     1 FON         0.3035
      3 NA2        20.5970   -0.2980   19.5680 N.pl3     1 FON        -0.2178
      4 N3         20.3580   -0.7330   21.8510 N.am      1 FON        -0.2075
      5 C4         20.3920   -1.5260   22.9480 C.2       1 FON         0.2318
      6 O4         20.0990   -1.0910   24.0960 O.2       1 FON        -0.3892
      7 C4A        20.7990   -2.9230   22.6960 C.3       1 FON         0.2159
      8 N5         20.8610   -3.9500   23.6210 N.am      1 FON        -0.2261
      9 C6         20.1670   -5.0970   23.0030 C.3       1 FON         0.0917
     10 C7         21.2030   -5.7000   22.0540 C.3       1 FON         0.0607
     11 N8         21.4550   -4.6390   21.0660 N.pl3     1 FON        -0.2830
     12 C8A        21.0930   -3.3410   21.3080 C.2       1 FON         0.1457
     13 C9         19.4870   -6.0070   24.0040 C.3       1 FON         0.0506
     14 N10        18.4880   -5.1290   24.5680 N.pl3     1 FON        -0.3176
     15 C11        14.3670   -5.2490   24.3180 C.ar      1 FON         0.0362
     16 C12        15.1170   -5.2690   23.1330 C.ar      1 FON        -0.0535
     17 C13        16.5130   -5.2320   23.1660 C.ar      1 FON        -0.0382
     18 C14        17.1510   -5.1910   24.4110 C.ar      1 FON         0.0433
     19 C15        16.3980   -5.1620   25.5820 C.ar      1 FON        -0.0382
     20 C16        15.0130   -5.1950   25.5410 C.ar      1 FON        -0.0535
     21 C          12.8680   -5.2840   24.3320 C.2       1 FON         0.1968
     22 O          12.2460   -5.0260   23.3080 O.2       1 FON        -0.3908
     23 N          12.2830   -5.5790   25.5010 N.am      1 FON        -0.2725
     24 CA         10.9710   -6.1880   25.6900 C.3       1 FON         0.0951
     25 CB         10.8880   -7.5720   25.0490 C.3       1 FON        -0.0064
     26 CG          9.5310   -7.8140   24.3880 C.3       1 FON         0.0038
     27 CD          9.6650   -8.7970   23.2420 C.2       1 FON         0.0350
     28 OE1        10.7160   -9.4810   23.1480 O.co2     1 FON        -0.5690
     29 OE2         8.7120   -8.8860   22.4300 O.co2     1 FON        -0.5690
     30 CT         10.6500   -6.3190   27.1540 C.2       1 FON         0.0601
     31 O1         11.5950   -6.5010   27.9550 O.co2     1 FON        -0.5666
     32 O2          9.4530   -6.2370   27.5190 O.co2     1 FON        -0.5666
     33 CP1        21.4710   -3.8740   24.7410 C.2       1 FON         0.1771
     34 O3         20.9070   -3.8330   25.8290 O.2       1 FON        -0.3825
     35 H          20.8144   -0.6125   18.6116 H         1 FON         0.4602
     36 H          20.3393    0.6841   19.7411 H         1 FON         0.4602
     37 H          20.1052    0.2274   21.9681 H         1 FON         0.1934
     38 H          21.8477   -2.6555   22.8929 H         1 FON         0.1104
     39 H          19.3536   -4.7014   22.3770 H         1 FON         0.0606
     40 H          20.8048   -6.6010   21.5646 H         1 FON         0.0557
     41 H          22.1258   -5.9545   22.5959 H         1 FON         0.0557
     42 H          21.9128   -4.8776   20.1747 H         1 FON         0.1934
     43 H          20.1928   -6.3566   24.7719 H         1 FON         0.0538
     44 H          19.0251   -6.8737   23.5086 H         1 FON         0.0538
     45 H          18.8398   -4.3640   25.1612 H         1 FON         0.1775
     46 H          14.6061   -5.3138   22.1780 H         1 FON         0.0636
     47 H          17.0893   -5.2350   22.2479 H         1 FON         0.0530
     48 H          16.9027   -5.1129   26.5401 H         1 FON         0.0530
     49 H          14.4394   -5.1786   26.4607 H         1 FON         0.0636
     50 H          12.7989   -5.3590   26.3289 H         1 FON         0.1864
     51 H          10.2197   -5.5373   25.2187 H         1 FON         0.0726
     52 H          11.0457   -8.3340   25.8265 H         1 FON         0.0323
     53 H          11.6756   -7.6583   24.2859 H         1 FON         0.0323
     54 H           9.1410   -6.8603   24.0028 H         1 FON         0.0432
     55 H           8.8327   -8.2212   25.1340 H         1 FON         0.0432
     56 H          22.5595   -3.8438   24.7286 H         1 FON         0.1549
@<TRIPOS>BOND
     1    1    2 ar 
     2   12    1 2  
     3    2    3 ar 
     4    4    2 ar 
     5    5    4 am 
     6    5    6 2  
     7    7    5 1  
     8    8    7 1  
     9    7   12 1  
    10    9    8 1  
    11    8   33 am 
    12    9   10 1  
    13   13    9 1  
    14   10   11 1  
    15   11   12 1  
    16   14   13 1  
    17   18   14 1  
    18   16   15 ar 
    19   15   20 ar 
    20   15   21 1  
    21   17   16 ar 
    22   17   18 ar 
    23   18   19 ar 
    24   19   20 ar 
    25   21   22 2  
    26   21   23 am 
    27   23   24 1  
    28   24   25 1  
    29   24   30 1  
    30   25   26 1  
    31   26   27 1  
    32   27   28 ar 
    33   27   29 ar 
    34   30   31 ar 
    35   30   32 ar 
    36   33   34 2  
    37    3   35 1  
    38    3   36 1  
    39    4   37 1  
    40    7   38 1  
    41    9   39 1  
    42   10   40 1  
    43   10   41 1  
    44   11   42 1  
    45   13   43 1  
    46   13   44 1  
    47   14   45 1  
    48   16   46 1  
    49   17   47 1  
    50   19   48 1  
    51   20   49 1  
    52   23   50 1  
    53   24   51 1  
    54   25   52 1  
    55   25   53 1  
    56   26   54 1  
    57   26   55 1  
    58   33   56 1  
@<TRIPOS>SUBSTRUCTURE
     1 FON         1

