### 
### Created by X-TOOL on Mon Sep 10 21:13:17 2018
### 

@<TRIPOS>MOLECULE
4oz2_ligand
   22    23     1     0     0
SMALL
GAST_HUCK


@<TRIPOS>ATOM
      1 C1         20.6890   28.1390   -8.6960 C.3       1 1Z6         0.0017
      2 C2         21.0420   29.5680   -8.9320 C.2       1 1Z6         0.0778
      3 N4         22.2840   31.2810   -9.1990 N.2       1 1Z6        -0.2288
      4 C6         21.0300   31.7480   -9.2900 C.2       1 1Z6        -0.0056
      5 C7         20.1990   30.6680   -9.1280 C.2       1 1Z6        -0.0012
      6 C8         18.7230   30.7160   -9.1600 C.ar      1 1Z6        -0.0452
      7 C10        16.6730   31.8220   -9.7790 C.ar      1 1Z6        -0.0352
      8 C11        15.9820   30.7870   -9.2230 C.ar      1 1Z6         0.1252
      9 C13        16.5910   29.7220   -8.6350 C.ar      1 1Z6        -0.0352
     10 C14        17.9700   29.6860   -8.6000 C.ar      1 1Z6        -0.0668
     11 N3         22.3220   29.9400   -8.9790 N.pl3     1 1Z6        -0.2143
     12 C9         18.0550   31.7870   -9.7560 C.ar      1 1Z6        -0.0668
     13 F12        14.6230   30.8210   -9.2530 F         1 1Z6        -0.1888
     14 H          21.6097   27.5475   -8.5846 H         1 1Z6         0.0454
     15 H          20.1099   27.7584   -9.5502 H         1 1Z6         0.0454
     16 H          20.0871   28.0566   -7.7790 H         1 1Z6         0.0454
     17 H          20.7302   32.7812   -9.4592 H         1 1Z6         0.0644
     18 H          16.1490   32.6566  -10.2306 H         1 1Z6         0.0587
     19 H          16.0053   28.9186   -8.2031 H         1 1Z6         0.0587
     20 H          18.4728   28.8475   -8.1319 H         1 1Z6         0.0546
     21 H          23.1548   29.3434   -8.8723 H         1 1Z6         0.2558
     22 H          18.6225   32.5952  -10.2030 H         1 1Z6         0.0546
@<TRIPOS>BOND
     1    2    1 1  
     2    5    2 2  
     3    2   11 1  
     4    4    3 2  
     5    3   11 1  
     6    5    4 1  
     7    6    5 1  
     8    6   10 ar 
     9   12    6 ar 
    10    7    8 ar 
    11    7   12 ar 
    12    8    9 ar 
    13    8   13 1  
    14    9   10 ar 
    15    1   14 1  
    16    1   15 1  
    17    1   16 1  
    18    4   17 1  
    19    7   18 1  
    20    9   19 1  
    21   10   20 1  
    22   11   21 1  
    23   12   22 1  
@<TRIPOS>SUBSTRUCTURE
     1 1Z6         1

