### 
### Created by X-TOOL on Mon Sep 10 21:13:17 2018
### 

@<TRIPOS>MOLECULE
4oz3_ligand
   22    23     1     0     0
SMALL
GAST_HUCK


@<TRIPOS>ATOM
      1 C2         19.1020   20.7380   -6.8620 C.3       1 1Z8         0.3860
      2 C5         17.6790   21.1170   -6.8630 C.2       1 1Z8         0.1287
      3 C10        17.0880   22.3760   -6.8780 C.2       1 1Z8         0.0254
      4 C11        17.6850   23.7260   -6.9010 C.ar      1 1Z8        -0.0253
      5 C12        17.0370   24.7690   -7.5590 C.ar      1 1Z8        -0.0581
      6 C13        17.5940   26.0330   -7.6010 C.ar      1 1Z8        -0.0639
      7 C14        18.8010   26.2750   -6.9880 C.ar      1 1Z8        -0.0640
      8 C15        19.4580   25.2610   -6.3360 C.ar      1 1Z8        -0.0639
      9 C16        18.9130   23.9890   -6.2990 C.ar      1 1Z8        -0.0581
     10 F1         19.2540   19.5010   -7.0680 F         1 1Z8        -0.2192
     11 F3         19.7090   20.9880   -5.7120 F         1 1Z8        -0.2192
     12 F4         19.8060   21.3620   -7.8140 F         1 1Z8        -0.2192
     13 N6         16.7830   20.1380   -6.8570 N.2       1 1Z8        -0.1477
     14 N7         15.5960   20.7810   -6.8640 N.pl3     1 1Z8        -0.1806
     15 C9         15.7400   22.1150   -6.8780 C.2       1 1Z8         0.0840
     16 H          16.0847   24.5869   -8.0438 H         1 1Z8         0.0599
     17 H          17.0789   26.8347   -8.1177 H         1 1Z8         0.0612
     18 H          19.2344   27.2681   -7.0196 H         1 1Z8         0.0598
     19 H          20.4063   25.4570   -5.8488 H         1 1Z8         0.0612
     20 H          19.4469   23.1904   -5.7969 H         1 1Z8         0.0599
     21 H          14.6840   20.3023   -6.8591 H         1 1Z8         0.2831
     22 H          14.9384   22.8521   -6.8876 H         1 1Z8         0.1100
@<TRIPOS>BOND
     1    1    2 1  
     2    1   10 1  
     3    1   11 1  
     4    1   12 1  
     5    2    3 1  
     6    2   13 2  
     7    3    4 1  
     8    3   15 2  
     9    4    5 ar 
    10    4    9 ar 
    11    5    6 ar 
    12    6    7 ar 
    13    7    8 ar 
    14    8    9 ar 
    15   13   14 1  
    16   14   15 1  
    17    5   16 1  
    18    6   17 1  
    19    7   18 1  
    20    8   19 1  
    21    9   20 1  
    22   14   21 1  
    23   15   22 1  
@<TRIPOS>SUBSTRUCTURE
     1 1Z8         1

