### 
### Created by X-TOOL on Mon Sep 10 21:13:17 2018
### 

@<TRIPOS>MOLECULE
4ozo_ligand
   36    37     1     0     0
SMALL
GAST_HUCK


@<TRIPOS>ATOM
      1 O2'        29.8180  -32.0470    1.1680 O.2       1 OTN         0.1746
      2 N1'        29.0270  -32.1340    2.3860 N.2       1 OTN         0.3107
      3 O3'        28.9150  -33.3240    3.0240 O.2       1 OTN         0.1746
      4 C2'        28.4600  -30.9980    2.8330 C.ar      1 OTN         0.2115
      5 C3'        28.6140  -29.8450    2.0680 C.ar      1 OTN        -0.0244
      6 C4'        28.0560  -28.6420    2.4660 C.ar      1 OTN        -0.0604
      7 C5'        27.3170  -28.5890    3.6350 C.ar      1 OTN        -0.0623
      8 C6'        27.1450  -29.7420    4.3900 C.ar      1 OTN        -0.0410
      9 C1'        27.6840  -30.9620    3.9970 C.ar      1 OTN         0.0621
     10 S01        27.4200  -32.3240    5.0610 S.3       1 OTN        -0.0590
     11 C1         26.1130  -31.7210    6.1220 C.3       1 OTN         0.1469
     12 O5         26.5640  -30.8030    7.1790 O.3       1 OTN        -0.3527
     13 C5         25.4430  -30.3960    7.9770 C.3       1 OTN         0.1117
     14 C6         25.9500  -29.4290    9.0480 C.3       1 OTN         0.0730
     15 O6         26.5440  -28.2930    8.4170 O.3       1 OTN        -0.3924
     16 C4         24.7820  -31.6070    8.6470 C.3       1 OTN         0.1118
     17 O4         25.7230  -32.2940    9.4780 O.3       1 OTN        -0.3865
     18 C3         24.3340  -32.5310    7.5510 C.3       1 OTN         0.1127
     19 O3         23.6660  -33.7160    8.0740 O.3       1 OTN        -0.3865
     20 C2         25.5610  -32.9450    6.7600 C.3       1 OTN         0.1211
     21 O2         25.0850  -33.8050    5.7450 O.3       1 OTN        -0.3855
     22 H          29.1805  -29.8899    1.1449 H         1 OTN         0.0674
     23 H          28.1967  -27.7494    1.8672 H         1 OTN         0.0575
     24 H          26.8753  -27.6537    3.9592 H         1 OTN         0.0643
     25 H          26.5751  -29.6894    5.3106 H         1 OTN         0.0580
     26 H          25.3469  -31.2159    5.5154 H         1 OTN         0.0768
     27 H          24.7041  -29.8888    7.3393 H         1 OTN         0.0646
     28 H          26.6995  -29.9348    9.6744 H         1 OTN         0.0584
     29 H          25.1080  -29.1019    9.6757 H         1 OTN         0.0584
     30 H          27.2707  -28.5771    7.8751 H         1 OTN         0.2095
     31 H          23.9214  -31.2821    9.2502 H         1 OTN         0.0647
     32 H          26.4524  -32.5933    8.9480 H         1 OTN         0.2100
     33 H          23.6356  -31.9943    6.8921 H         1 OTN         0.0647
     34 H          23.3992  -34.2724    7.3518 H         1 OTN         0.2100
     35 H          26.3116  -33.4396    7.3940 H         1 OTN         0.0657
     36 H          24.4629  -33.3367    5.2007 H         1 OTN         0.2100
@<TRIPOS>BOND
     1    1    2 2  
     2    2    3 2  
     3    2    4 1  
     4    4    5 ar 
     5    4    9 ar 
     6    5    6 ar 
     7    6    7 ar 
     8    7    8 ar 
     9    8    9 ar 
    10    9   10 1  
    11   10   11 1  
    12   11   12 1  
    13   11   20 1  
    14   12   13 1  
    15   13   14 1  
    16   13   16 1  
    17   14   15 1  
    18   16   17 1  
    19   16   18 1  
    20   18   19 1  
    21   18   20 1  
    22   20   21 1  
    23    5   22 1  
    24    6   23 1  
    25    7   24 1  
    26    8   25 1  
    27   11   26 1  
    28   13   27 1  
    29   14   28 1  
    30   14   29 1  
    31   15   30 1  
    32   16   31 1  
    33   17   32 1  
    34   18   33 1  
    35   19   34 1  
    36   20   35 1  
    37   21   36 1  
@<TRIPOS>SUBSTRUCTURE
     1 OTN         1

