### 
### Created by X-TOOL on Mon Sep 10 21:13:19 2018
### 

@<TRIPOS>MOLECULE
4p0a_ligand
   62    62     1     0     0
SMALL
GAST_HUCK


@<TRIPOS>ATOM
      1 N          13.2430  -11.9290   -1.1980 N.4       1 ASP         0.2391
      2 CA         12.6190  -11.3200   -2.3730 C.3       1 ASP         0.0764
      3 C          11.2590  -10.6960   -2.0280 C.2       1 ASP         0.2284
      4 O          10.5570  -11.1750   -1.1420 O.2       1 ASP        -0.3906
      5 CB         12.4540  -12.3360   -3.5000 C.3       1 ASP         0.0607
      6 CG         12.0670  -11.6790   -4.8130 C.2       1 ASP         0.0425
      7 OD1        12.9690  -11.1910   -5.5410 O.co2     1 ASP        -0.5686
      8 OD2        10.8490  -11.6020   -5.0870 O.co2     1 ASP        -0.5686
      9 N          10.9000   -9.6210   -2.7300 N.am      1 LEU        -0.2609
     10 CA          9.7360   -8.8010   -2.3730 C.3       1 LEU         0.1313
     11 C           8.4150   -9.1420   -3.1100 C.2       1 LEU         0.2040
     12 O           7.3520   -8.6270   -2.7480 O.2       1 LEU        -0.3944
     13 CB         10.0750   -7.3110   -2.5810 C.3       1 LEU        -0.0101
     14 CG         11.3580   -6.7690   -1.9320 C.3       1 LEU        -0.0425
     15 CD1        11.4810   -5.2470   -2.0700 C.3       1 LEU        -0.0625
     16 CD2        11.4100   -7.1680   -0.4830 C.3       1 LEU        -0.0625
     17 N           8.4670  -10.0040   -4.1210 N.am      1 TYR        -0.2621
     18 CA          7.2780  -10.2460   -4.9320 C.3       1 TYR         0.1390
     19 C           6.7450  -11.6910   -4.8770 C.2       1 TYR         0.2050
     20 O           5.7840  -12.0300   -5.5730 O.2       1 TYR        -0.3943
     21 CB          7.5410   -9.8280   -6.3820 C.3       1 TYR         0.0163
     22 CG          8.0090   -8.3960   -6.5190 C.ar      1 TYR        -0.0493
     23 CD1         9.3660   -8.0800   -6.4850 C.ar      1 TYR        -0.0685
     24 CD2         7.0980   -7.3570   -6.6370 C.ar      1 TYR        -0.0685
     25 CE1         9.7970   -6.7610   -6.5920 C.ar      1 TYR        -0.0398
     26 CE2         7.5170   -6.0350   -6.7500 C.ar      1 TYR        -0.0398
     27 CZ          8.8640   -5.7490   -6.7240 C.ar      1 TYR         0.0805
     28 OH          9.2680   -4.4560   -6.8330 O.3       1 TYR        -0.3376
     29 N           7.3220  -12.5240   -4.0170 N.am      1 GLY        -0.2720
     30 CA          6.9120  -13.9180   -3.9340 C.3       1 GLY         0.0833
     31 C           5.4660  -14.2020   -3.5330 C.2       1 GLY         0.0570
     32 O           5.1350  -14.4440   -2.3690 O.co2     1 GLY        -0.5669
     33 OXT         4.5720  -14.2260   -4.3830 O.co2     1 GLY        -0.5669
     34 H          14.1313  -12.3281   -1.4582 H         1 ASP         0.2016
     35 H          12.6425  -12.6531   -0.8359 H         1 ASP         0.2016
     36 H          13.3852  -11.2254   -0.4904 H         1 ASP         0.2016
     37 H          13.2823  -10.5181   -2.7292 H         1 ASP         0.1117
     38 H          11.6692  -13.0533   -3.2181 H         1 ASP         0.0512
     39 H          13.4060  -12.8695   -3.6381 H         1 ASP         0.0512
     40 H          11.4436   -9.3639   -3.5290 H         1 LEU         0.1885
     41 H           9.5512   -8.9617   -1.3006 H         1 LEU         0.0800
     42 H           9.2336   -6.7248   -2.1831 H         1 LEU         0.0315
     43 H          10.1594   -7.1423   -3.6647 H         1 LEU         0.0315
     44 H          12.2165   -7.2249   -2.4469 H         1 LEU         0.0298
     45 H          12.4121   -4.9095   -1.5914 H         1 LEU         0.0232
     46 H          10.6218   -4.7639   -1.5817 H         1 LEU         0.0232
     47 H          11.4974   -4.9756   -3.1358 H         1 LEU         0.0232
     48 H          11.3207   -8.2612   -0.4003 H         1 LEU         0.0232
     49 H          10.5804   -6.6903    0.0589 H         1 LEU         0.0232
     50 H          12.3669   -6.8444   -0.0477 H         1 LEU         0.0232
     51 H           9.3192  -10.4856   -4.3253 H         1 TYR         0.1885
     52 H           6.4826   -9.5981   -4.5351 H         1 TYR         0.0821
     53 H           6.6086   -9.9463   -6.9536 H         1 TYR         0.0453
     54 H           8.3141  -10.4890   -6.8007 H         1 TYR         0.0453
     55 H          10.0964   -8.8732   -6.3736 H         1 TYR         0.0530
     56 H           6.0371   -7.5795   -6.6413 H         1 TYR         0.0530
     57 H          10.8557   -6.5289   -6.5720 H         1 TYR         0.0525
     58 H           6.7903   -5.2379   -6.8575 H         1 TYR         0.0525
     59 H           8.9036   -3.9500   -6.1162 H         1 TYR         0.2458
     60 H           8.0488  -12.1879   -3.4180 H         1 GLY         0.1873
     61 H           7.5620  -14.4098   -3.1953 H         1 GLY         0.0689
     62 H           7.0747  -14.3694   -4.9238 H         1 GLY         0.0689
@<TRIPOS>BOND
     1    1    2 1  
     2    2    3 1  
     3    2    5 1  
     4    3    4 2  
     5    3    9 am 
     6    5    6 1  
     7    6    7 ar 
     8    6    8 ar 
     9    9   10 1  
    10   10   11 1  
    11   10   13 1  
    12   11   12 2  
    13   11   17 am 
    14   13   14 1  
    15   14   15 1  
    16   14   16 1  
    17   17   18 1  
    18   18   19 1  
    19   18   21 1  
    20   19   20 2  
    21   19   29 am 
    22   21   22 1  
    23   22   23 ar 
    24   22   24 ar 
    25   23   25 ar 
    26   24   26 ar 
    27   25   27 ar 
    28   26   27 ar 
    29   27   28 1  
    30   29   30 1  
    31   30   31 1  
    32   31   32 ar 
    33   31   33 ar 
    34    1   34 1  
    35    1   35 1  
    36    1   36 1  
    37    2   37 1  
    38    5   38 1  
    39    5   39 1  
    40    9   40 1  
    41   10   41 1  
    42   13   42 1  
    43   13   43 1  
    44   14   44 1  
    45   15   45 1  
    46   15   46 1  
    47   15   47 1  
    48   16   48 1  
    49   16   49 1  
    50   16   50 1  
    51   17   51 1  
    52   18   52 1  
    53   21   53 1  
    54   21   54 1  
    55   23   55 1  
    56   24   56 1  
    57   25   57 1  
    58   26   58 1  
    59   28   59 1  
    60   29   60 1  
    61   30   61 1  
    62   30   62 1  
@<TRIPOS>SUBSTRUCTURE
     1 ASP         1

