### 
### Created by X-TOOL on Mon Sep 10 21:13:19 2018
### 

@<TRIPOS>MOLECULE
4p0b_ligand
   63    63     1     0     0
SMALL
GAST_HUCK


@<TRIPOS>ATOM
      1 N          10.6380  -12.8900   -3.8640 N.4       1 ASP         0.2391
      2 CA         11.0610  -12.1510   -2.6830 C.3       1 ASP         0.0764
      3 C          10.0500  -11.0710   -2.3150 C.2       1 ASP         0.2284
      4 O           9.2920  -11.2220   -1.3580 O.2       1 ASP        -0.3906
      5 CB         12.4440  -11.5320   -2.8960 C.3       1 ASP         0.0607
      6 CG         13.5590  -12.3880   -2.3260 C.2       1 ASP         0.0425
      7 OD1        13.3390  -13.6030   -2.1280 O.co2     1 ASP        -0.5686
      8 OD2        14.6560  -11.8470   -2.0710 O.co2     1 ASP        -0.5686
      9 N          10.0410   -9.9810   -3.0770 N.am      1 MET        -0.2609
     10 CA          9.2320   -8.8170   -2.7290 C.3       1 MET         0.1318
     11 C           7.9050   -8.7760   -3.4850 C.2       1 MET         0.2040
     12 O           7.1130   -7.8500   -3.3090 O.2       1 MET        -0.3944
     13 CB         10.0120   -7.5280   -2.9930 C.3       1 MET        -0.0034
     14 CG         11.3580   -7.4490   -2.2950 C.3       1 MET        -0.0024
     15 SD         12.2410   -5.9370   -2.7200 S.3       1 MET        -0.1639
     16 CE         10.9910   -4.7080   -2.3510 C.3       1 MET        -0.0181
     17 N           7.6620   -9.7840   -4.3170 N.am      1 TYR        -0.2621
     18 CA          6.4740   -9.8100   -5.1710 C.3       1 TYR         0.1390
     19 C           5.6890  -11.1100   -5.0360 C.2       1 TYR         0.2052
     20 O           4.4850  -11.1450   -5.2880 O.2       1 TYR        -0.3942
     21 CB          6.8390   -9.5460   -6.6350 C.3       1 TYR         0.0163
     22 CG          7.4960   -8.2070   -6.8630 C.ar      1 TYR        -0.0493
     23 CD1         6.7320   -7.0630   -7.0500 C.ar      1 TYR        -0.0685
     24 CD2         8.8800   -8.0820   -6.8830 C.ar      1 TYR        -0.0685
     25 CE1         7.3230   -5.8340   -7.2570 C.ar      1 TYR        -0.0398
     26 CE2         9.4810   -6.8540   -7.0900 C.ar      1 TYR        -0.0398
     27 CZ          8.6960   -5.7350   -7.2760 C.ar      1 TYR         0.0805
     28 OH          9.2780   -4.5070   -7.4830 O.3       1 TYR        -0.3376
     29 N           6.3900  -12.1800   -4.6700 N.am      1 ARG        -0.2672
     30 CA          5.7800  -13.4950   -4.4870 C.3       1 ARG         0.1198
     31 C           4.7120  -13.4810   -3.3950 C.2       1 ARG         0.2147
     32 O           4.3460  -14.5260   -2.8560 O.co2     1 ARG        -0.4120
     33 CB          6.8520  -14.5320   -4.1470 C.3       1 ARG        -0.0276
     34 H          11.3242  -13.5953   -4.0827 H         1 ASP         0.2016
     35 H          10.5478  -12.2562   -4.6426 H         1 ASP         0.2016
     36 H           9.7492  -13.3303   -3.6844 H         1 ASP         0.2016
     37 H          11.1265  -12.8590   -1.8437 H         1 ASP         0.1117
     38 H          12.4691  -10.5479   -2.4052 H         1 ASP         0.0512
     39 H          12.6121  -11.4076   -3.9759 H         1 ASP         0.0512
     40 H          10.6002   -9.9584   -3.9057 H         1 MET         0.1885
     41 H           9.0078   -8.8729   -1.6536 H         1 MET         0.0800
     42 H           9.3990   -6.6803   -2.6529 H         1 MET         0.0320
     43 H          10.1823   -7.4459   -4.0766 H         1 MET         0.0320
     44 H          11.9671   -8.3141   -2.5960 H         1 MET         0.0378
     45 H          11.1975   -7.4743   -1.2071 H         1 MET         0.0378
     46 H          11.3887   -3.7049   -2.5647 H         1 MET         0.0340
     47 H          10.7143   -4.7740   -1.2884 H         1 MET         0.0340
     48 H          10.1025   -4.8903   -2.9733 H         1 MET         0.0340
     49 H           8.3088  -10.5454   -4.3604 H         1 TYR         0.1885
     50 H           5.8158   -8.9933   -4.8398 H         1 TYR         0.0821
     51 H           5.9185   -9.5882   -7.2357 H         1 TYR         0.0453
     52 H           7.5307  -10.3337   -6.9682 H         1 TYR         0.0453
     53 H           5.6507   -7.1370   -7.0330 H         1 TYR         0.0530
     54 H           9.4976   -8.9603   -6.7341 H         1 TYR         0.0530
     55 H           6.7104   -4.9518   -7.4038 H         1 TYR         0.0525
     56 H          10.5617   -6.7712   -7.1060 H         1 TYR         0.0525
     57 H           8.5998   -3.8507   -7.5917 H         1 TYR         0.2458
     58 H           7.3727  -12.0803   -4.5141 H         1 ARG         0.1876
     59 H           5.3004  -13.7846   -5.4336 H         1 ARG         0.0748
     60 O1          4.1988  -12.3860   -3.0411 O.co2     1 ARG        -0.4120
     61 H           6.3801  -15.5164   -4.0119 H         1 ARG         0.0271
     62 H           7.3632  -14.2399   -3.2178 H         1 ARG         0.0271
     63 H           7.5835  -14.5855   -4.9667 H         1 ARG         0.0271
@<TRIPOS>BOND
     1    1    2 1  
     2    2    3 1  
     3    2    5 1  
     4    3    4 2  
     5    3    9 am 
     6    5    6 1  
     7    6    7 ar 
     8    6    8 ar 
     9    9   10 1  
    10   10   11 1  
    11   10   13 1  
    12   11   12 2  
    13   11   17 am 
    14   13   14 1  
    15   14   15 1  
    16   15   16 1  
    17   17   18 1  
    18   18   19 1  
    19   18   21 1  
    20   19   20 2  
    21   19   29 am 
    22   21   22 1  
    23   22   23 ar 
    24   22   24 ar 
    25   23   25 ar 
    26   24   26 ar 
    27   25   27 ar 
    28   26   27 ar 
    29   27   28 1  
    30   29   30 1  
    31   30   31 1  
    32   30   33 1  
    33   31   32 ar 
    34    1   34 1  
    35    1   35 1  
    36    1   36 1  
    37    2   37 1  
    38    5   38 1  
    39    5   39 1  
    40    9   40 1  
    41   10   41 1  
    42   13   42 1  
    43   13   43 1  
    44   14   44 1  
    45   14   45 1  
    46   16   46 1  
    47   16   47 1  
    48   16   48 1  
    49   17   49 1  
    50   18   50 1  
    51   21   51 1  
    52   21   52 1  
    53   23   53 1  
    54   24   54 1  
    55   25   55 1  
    56   26   56 1  
    57   28   57 1  
    58   29   58 1  
    59   30   59 1  
    60   31   60 ar 
    61   33   61 1  
    62   33   62 1  
    63   33   63 1  
@<TRIPOS>SUBSTRUCTURE
     1 ASP         1

