### 
### Created by X-TOOL on Mon Sep 10 21:13:16 2018
### 

@<TRIPOS>MOLECULE
4p0n_ligand
   42    46     1     0     0
SMALL
GAST_HUCK


@<TRIPOS>ATOM
      1 C01        21.5690   27.0480   74.3400 C.3       1 1IS         0.0721
      2 O02        22.0120   26.4470   75.5140 O.3       1 1IS        -0.2629
      3 C03        23.3170   25.9210   75.4440 C.2       1 1IS         0.2793
      4 N04        24.2720   26.2050   74.5550 N.2       1 1IS        -0.2903
      5 C05        25.3860   25.4480   74.8820 C.ar      1 1IS         0.0436
      6 C06        26.6640   25.3510   74.2900 C.ar      1 1IS        -0.0486
      7 C07        27.5910   24.4800   74.8610 C.ar      1 1IS        -0.0524
      8 C08        27.2110   23.7320   76.0090 C.ar      1 1IS        -0.0078
      9 N09        26.0030   23.8450   76.5460 N.ar      1 1IS        -0.2869
     10 C10        25.0650   24.6910   76.0120 C.ar      1 1IS         0.1525
     11 N11        23.7780   25.0180   76.3450 N.pl3     1 1IS        -0.1877
     12 C12        22.8780   24.6170   77.3030 C.3       1 1IS         0.0768
     13 C13        23.0020   24.8860   78.7810 C.3       1 1IS         0.0011
     14 C14        22.0360   23.7380   78.9360 C.3       1 1IS         0.0515
     15 C15        22.6780   23.1830   77.6750 C.3       1 1IS         0.0011
     16 N16        20.7070   23.9990   78.8120 N.pl3     1 1IS        -0.2762
     17 C17        19.8540   24.4130   79.8650 C.2       1 1IS         0.1855
     18 N18        20.2050   24.6460   81.1340 N.2       1 1IS        -0.3074
     19 C19        19.1830   25.0460   81.9960 C.ar      1 1IS         0.0104
     20 C20        19.3990   25.3320   83.3880 C.ar      1 1IS        -0.0632
     21 C21        18.3470   25.7160   84.1560 C.ar      1 1IS        -0.0756
     22 C22        17.0450   25.8320   83.5850 C.ar      1 1IS        -0.0745
     23 C23        16.8420   25.5600   82.2480 C.ar      1 1IS        -0.0531
     24 C24        17.9460   25.1560   81.4560 C.ar      1 1IS         0.0494
     25 S25        18.1410   24.7250   79.7680 S.3       1 1IS         0.0286
     26 H          20.5470   27.4279   74.4856 H         1 1IS         0.0595
     27 H          21.5727   26.3087   73.5255 H         1 1IS         0.0595
     28 H          22.2369   27.8826   74.0807 H         1 1IS         0.0595
     29 H          26.9178   25.9381   73.4148 H         1 1IS         0.0649
     30 H          28.5833   24.3750   74.4375 H         1 1IS         0.0597
     31 H          27.9266   23.0520   76.4569 H         1 1IS         0.0729
     32 H          21.9313   25.0412   76.9373 H         1 1IS         0.0641
     33 H          22.6238   25.8643   79.1124 H         1 1IS         0.0317
     34 H          24.0025   24.7167   79.2056 H         1 1IS         0.0317
     35 H          22.1958   23.1367   79.8432 H         1 1IS         0.0571
     36 H          23.6017   22.6073   77.8343 H         1 1IS         0.0317
     37 H          22.0028   22.6179   77.0156 H         1 1IS         0.0317
     38 H          20.2871   23.8868   77.8782 H         1 1IS         0.1935
     39 H          20.3894   25.2423   83.8194 H         1 1IS         0.0536
     40 H          18.4972   25.9352   85.2069 H         1 1IS         0.0546
     41 H          16.2098   26.1358   84.2057 H         1 1IS         0.0534
     42 H          15.8547   25.6536   81.8103 H         1 1IS         0.0557
@<TRIPOS>BOND
     1    1    2 1  
     2    2    3 1  
     3    3    4 2  
     4    3   11 1  
     5    4    5 1  
     6    5    6 ar 
     7    5   10 ar 
     8    6    7 ar 
     9    7    8 ar 
    10    8    9 ar 
    11    9   10 ar 
    12   10   11 1  
    13   11   12 1  
    14   12   13 1  
    15   12   15 1  
    16   13   14 1  
    17   14   15 1  
    18   14   16 1  
    19   16   17 1  
    20   17   18 2  
    21   17   25 1  
    22   18   19 1  
    23   19   20 ar 
    24   19   24 ar 
    25   20   21 ar 
    26   21   22 ar 
    27   22   23 ar 
    28   23   24 ar 
    29   24   25 1  
    30    1   26 1  
    31    1   27 1  
    32    1   28 1  
    33    6   29 1  
    34    7   30 1  
    35    8   31 1  
    36   12   32 1  
    37   13   33 1  
    38   13   34 1  
    39   14   35 1  
    40   15   36 1  
    41   15   37 1  
    42   16   38 1  
    43   20   39 1  
    44   21   40 1  
    45   22   41 1  
    46   23   42 1  
@<TRIPOS>SUBSTRUCTURE
     1 1IS         1

