### 
### Created by X-TOOL on Mon Sep 10 21:13:19 2018
### 

@<TRIPOS>MOLECULE
4p0v_ligand
   51    53     1     0     0
SMALL
GAST_HUCK


@<TRIPOS>ATOM
      1 OAA        -5.7390   32.2870  -14.3490 O.2       1 1WO        -0.3486
      2 CAB        -6.5800   33.2250  -14.4610 C.2       1 1WO         0.2154
      3 CAC        -7.2920   33.8100  -13.3740 C.3       1 1WO         0.1611
      4 OAD        -7.0560   33.2910  -12.1420 O.3       1 1WO        -0.3601
      5 CAE        -8.1890   34.9200  -13.4790 C.2       1 1WO        -0.0429
      6 CAF        -8.9780   35.4090  -12.3750 C.3       1 1WO        -0.0792
      7 CAG       -10.0100   34.3160  -12.2450 C.3       1 1WO        -0.1208
      8 CAH        -8.4800   35.5060  -11.0730 C.3       1 1WO        -0.1088
      9 CAI        -9.7410   35.4380  -10.0770 C.3       1 1WO        -0.0690
     10 CAJ       -11.0740   35.9700  -10.6200 C.3       1 1WO        -0.0487
     11 CAK       -10.6860   37.1840  -11.6100 C.3       1 1WO        -0.0330
     12 CAL       -11.8920   37.7070  -12.3410 C.3       1 1WO        -0.0591
     13 CAM       -10.0500   38.3610  -10.8160 C.3       1 1WO        -0.0591
     14 CAN        -9.6370   36.7210  -12.7420 C.3       1 1WO        -0.0150
     15 CAO       -10.0960   36.8260  -14.1410 C.2       1 1WO         0.1138
     16 OAP       -11.1100   37.5050  -14.4760 O.2       1 1WO        -0.3865
     17 CAQ        -9.2370   36.3200  -15.1220 C.3       1 1WO         0.0831
     18 CAR        -8.3580   35.4270  -14.7500 C.2       1 1WO         0.0266
     19 CAS        -7.7830   34.8410  -15.7680 C.2       1 1WO         0.0285
     20 CAT        -6.8710   33.8050  -15.7060 C.2       1 1WO         0.0834
     21 CAU        -6.2970   33.3550  -16.8970 C.3       1 1WO         0.0274
     22 CAW        -5.8250   34.4490  -17.7450 C.3       1 1WO        -0.0414
     23 CAV        -7.3720   32.7490  -17.7740 C.3       1 1WO        -0.0414
     24 H          -8.1297   33.1172  -13.5422 H         1 1WO         0.0996
     25 H          -7.5802   33.7538  -11.4989 H         1 1WO         0.2170
     26 H          -9.5125   33.3719  -11.9783 H         1 1WO         0.0013
     27 H         -10.5380   34.1945  -13.2023 H         1 1WO         0.0013
     28 H         -10.7318   34.5847  -11.4596 H         1 1WO         0.0013
     29 H          -7.9477   36.4598  -10.9429 H         1 1WO         0.0049
     30 H          -7.7928   34.6717  -10.8689 H         1 1WO         0.0049
     31 H          -9.4894   36.0219   -9.1794 H         1 1WO         0.0249
     32 H          -9.8905   34.3843   -9.7990 H         1 1WO         0.0249
     33 H         -11.7064   36.3333   -9.7966 H         1 1WO         0.0271
     34 H         -11.6066   35.1808  -11.1708 H         1 1WO         0.0271
     35 H         -11.5899   38.5309  -13.0043 H         1 1WO         0.0236
     36 H         -12.6310   38.0740  -11.6136 H         1 1WO         0.0236
     37 H         -12.3370   36.8986  -12.9398 H         1 1WO         0.0236
     38 H          -9.1642   38.0003  -10.2725 H         1 1WO         0.0236
     39 H         -10.7835   38.7583  -10.0990 H         1 1WO         0.0236
     40 H          -9.7525   39.1565  -11.5150 H         1 1WO         0.0236
     41 H          -8.8268   37.4625  -12.6810 H         1 1WO         0.0319
     42 H          -8.6836   37.1706  -15.5465 H         1 1WO         0.0804
     43 H          -9.8617   35.8624  -15.9032 H         1 1WO         0.0804
     44 H          -8.0485   35.2045  -16.7596 H         1 1WO         0.0774
     45 H          -5.4902   32.6406  -16.6761 H         1 1WO         0.0630
     46 H          -5.3847   34.0363  -18.6647 H         1 1WO         0.0276
     47 H          -5.0646   35.0308  -17.2035 H         1 1WO         0.0276
     48 H          -6.6707   35.1027  -18.0047 H         1 1WO         0.0276
     49 H          -7.8288   31.8931  -17.2555 H         1 1WO         0.0276
     50 H          -6.9251   32.4087  -18.7197 H         1 1WO         0.0276
     51 H          -8.1432   33.5047  -17.9839 H         1 1WO         0.0276
@<TRIPOS>BOND
     1    1    2 2  
     2    2    3 1  
     3    2   20 1  
     4    3    4 1  
     5    3    5 1  
     6    5    6 1  
     7    5   18 2  
     8    6    7 1  
     9    6    8 1  
    10    6   14 1  
    11    8    9 1  
    12    9   10 1  
    13   10   11 1  
    14   11   12 1  
    15   11   13 1  
    16   11   14 1  
    17   14   15 1  
    18   15   16 2  
    19   15   17 1  
    20   17   18 1  
    21   18   19 1  
    22   19   20 2  
    23   20   21 1  
    24   21   22 1  
    25   21   23 1  
    26    3   24 1  
    27    4   25 1  
    28    7   26 1  
    29    7   27 1  
    30    7   28 1  
    31    8   29 1  
    32    8   30 1  
    33    9   31 1  
    34    9   32 1  
    35   10   33 1  
    36   10   34 1  
    37   12   35 1  
    38   12   36 1  
    39   12   37 1  
    40   13   38 1  
    41   13   39 1  
    42   13   40 1  
    43   14   41 1  
    44   17   42 1  
    45   17   43 1  
    46   19   44 1  
    47   21   45 1  
    48   22   46 1  
    49   22   47 1  
    50   22   48 1  
    51   23   49 1  
    52   23   50 1  
    53   23   51 1  
@<TRIPOS>SUBSTRUCTURE
     1 1WO         1

