### 
### Created by X-TOOL on Mon Sep 10 21:13:19 2018
### 

@<TRIPOS>MOLECULE
4p0w_ligand
   53    55     1     0     0
SMALL
GAST_HUCK


@<TRIPOS>ATOM
      1 CAA        34.8500   10.3290    6.4340 C.3       1 1XH        -0.0619
      2 CAB        36.3960    8.1570    1.0430 C.3       1 1XH        -0.0617
      3 CAC        34.5430   10.5360    3.8500 C.3       1 1XH        -0.0590
      4 CAD        35.2760    6.2050    2.4370 C.3       1 1XH        -0.0568
      5 OAE        30.1230    5.2340   -2.0500 O.2       1 1XH        -0.3671
      6 OAF        32.3290    5.3860    2.5690 O.2       1 1XH        -0.3469
      7 CAG        30.1600    4.6230   -0.0420 C.2       1 1XH         0.0099
      8 CAH        30.7680    4.6880    1.1930 C.2       1 1XH         0.0166
      9 CAI        31.8950    6.1940   -0.8410 C.2       1 1XH         0.0041
     10 CAJ        32.0830    7.6960    5.5500 C.3       1 1XH        -0.0525
     11 CAK        33.2850    8.2960    6.4000 C.3       1 1XH        -0.0499
     12 CAL        32.6260    7.1030    4.2310 C.3       1 1XH        -0.0490
     13 CAM        36.1990    8.6140    3.0820 C.3       1 1XH        -0.0493
     14 CAN        35.6480    8.3570    4.4300 C.3       1 1XH        -0.0468
     15 CAO        33.6980    7.1320    0.6210 C.3       1 1XH         0.0016
     16 CAP        34.1890    9.2380    5.7560 C.3       1 1XH        -0.0382
     17 CAQ        32.5640    6.2570    0.4330 C.2       1 1XH         0.0333
     18 CAR        30.7310    5.3930   -1.0080 C.2       1 1XH         0.1466
     19 CAS        31.9070    5.4700    1.4420 C.2       1 1XH         0.1768
     20 CAT        35.3540    8.4040    1.9320 C.3       1 1XH        -0.0359
     21 CAU        33.5670    8.0850    3.3930 C.3       1 1XH        -0.0275
     22 CAV        34.4810    9.0640    4.4060 C.3       1 1XH        -0.0260
     23 CAW        34.4640    7.4580    2.0950 C.3       1 1XH        -0.0135
     24 H          34.5322   10.3527    7.4868 H         1 1XH         0.0233
     25 H          34.5816   11.2789    5.9485 H         1 1XH         0.0233
     26 H          35.9395   10.1861    6.3830 H         1 1XH         0.0233
     27 H          37.0622    9.0316    1.0068 H         1 1XH         0.0233
     28 H          35.9854    7.9672    0.0403 H         1 1XH         0.0233
     29 H          36.9641    7.2771    1.3792 H         1 1XH         0.0233
     30 H          35.1454   11.1588    4.5276 H         1 1XH         0.0235
     31 H          33.5245   10.9461    3.7835 H         1 1XH         0.0235
     32 H          35.0025   10.5314    2.8506 H         1 1XH         0.0235
     33 H          35.8233    5.8679    1.5444 H         1 1XH         0.0237
     34 H          34.5964    5.4080    2.7731 H         1 1XH         0.0237
     35 H          35.9914    6.4393    3.2390 H         1 1XH         0.0237
     36 H          29.2864    4.0009   -0.2311 H         1 1XH         0.0789
     37 H          30.3463    4.1071    2.0119 H         1 1XH         0.0793
     38 H          32.2834    6.7643   -1.6835 H         1 1XH         0.0577
     39 H          31.3612    8.4943    5.3226 H         1 1XH         0.0265
     40 H          31.5843    6.9048    6.1290 H         1 1XH         0.0265
     41 H          33.8932    7.4474    6.7463 H         1 1XH         0.0268
     42 H          32.8447    8.8097    7.2673 H         1 1XH         0.0268
     43 H          31.7677    6.8298    3.5996 H         1 1XH         0.0268
     44 H          33.2045    6.1996    4.4744 H         1 1XH         0.0268
     45 H          37.0759    7.9609    2.9618 H         1 1XH         0.0268
     46 H          36.5194    9.6661    3.0593 H         1 1XH         0.0268
     47 H          36.3234    8.7294    5.2143 H         1 1XH         0.0271
     48 H          35.4609    7.2844    4.5862 H         1 1XH         0.0271
     49 H          33.3735    8.1119    0.2408 H         1 1XH         0.0478
     50 H          34.4862    6.7282   -0.0314 H         1 1XH         0.0478
     51 H          33.3378    9.8929    5.5180 H         1 1XH         0.0303
     52 H          34.8123    9.3203    1.6546 H         1 1XH         0.0305
     53 H          32.8579    8.7692    2.9041 H         1 1XH         0.0313
@<TRIPOS>BOND
     1   16    1 1  
     2   20    2 1  
     3   22    3 1  
     4   23    4 1  
     5   18    5 2  
     6   19    6 2  
     7    8    7 2  
     8   18    7 1  
     9   19    8 1  
    10   17    9 2  
    11    9   18 1  
    12   11   10 1  
    13   10   12 1  
    14   16   11 1  
    15   12   21 1  
    16   13   14 1  
    17   20   13 1  
    18   14   22 1  
    19   15   17 1  
    20   23   15 1  
    21   22   16 1  
    22   17   19 1  
    23   20   23 1  
    24   21   22 1  
    25   21   23 1  
    26    1   24 1  
    27    1   25 1  
    28    1   26 1  
    29    2   27 1  
    30    2   28 1  
    31    2   29 1  
    32    3   30 1  
    33    3   31 1  
    34    3   32 1  
    35    4   33 1  
    36    4   34 1  
    37    4   35 1  
    38    7   36 1  
    39    8   37 1  
    40    9   38 1  
    41   10   39 1  
    42   10   40 1  
    43   11   41 1  
    44   11   42 1  
    45   12   43 1  
    46   12   44 1  
    47   13   45 1  
    48   13   46 1  
    49   14   47 1  
    50   14   48 1  
    51   15   49 1  
    52   15   50 1  
    53   16   51 1  
    54   20   52 1  
    55   21   53 1  
@<TRIPOS>SUBSTRUCTURE
     1 1XH         1

