### 
### Created by X-TOOL on Mon Sep 10 21:13:19 2018
### 

@<TRIPOS>MOLECULE
4p0x_ligand
   49    51     1     0     0
SMALL
GAST_HUCK


@<TRIPOS>ATOM
      1 OAA        -8.1760   35.9860  -17.3480 O.2       1 1WO        -0.3126
      2 CAB        -8.7460   36.2080  -16.2650 C.2       1 1WO         0.2692
      3 CAC        -8.0240   36.0440  -15.0600 C.2       1 1WO         0.2337
      4 OAD        -6.6360   35.6260  -15.0480 O.3       1 1WO        -0.2488
      5 CAE        -8.7150   36.2590  -13.8500 C.2       1 1WO         0.0071
      6 CAF        -8.1390   36.1630  -12.5020 C.3       1 1WO        -0.0459
      7 CAG        -8.5770   34.8510  -11.8980 C.3       1 1WO        -0.1011
      8 CAH        -6.5970   36.2210  -12.3340 C.3       1 1WO        -0.0891
      9 CAI        -6.1220   37.6290  -12.0120 C.3       1 1WO        -0.0642
     10 CAJ        -6.7940   38.4840  -10.9500 C.3       1 1WO        -0.0480
     11 CAK        -8.1180   37.9040  -10.5290 C.3       1 1WO        -0.0296
     12 CAL        -7.8140   36.7710   -9.6090 C.3       1 1WO        -0.0588
     13 CAM        -8.9490   39.0340   -9.8030 C.3       1 1WO        -0.0588
     14 CAN        -8.8440   37.3170  -11.7470 C.3       1 1WO        -0.0021
     15 CAO       -10.1740   36.8740  -11.5220 C.2       1 1WO         0.1054
     16 OAP       -10.7060   36.6540  -10.4060 O.2       1 1WO        -0.3904
     17 CAQ       -10.8310   36.7530  -12.7490 C.2       1 1WO        -0.0092
     18 CAR       -10.0780   36.6600  -13.9270 C.2       1 1WO        -0.0186
     19 CAS       -10.7190   36.7740  -15.1220 C.2       1 1WO        -0.0362
     20 CAT       -10.0840   36.5390  -16.2630 C.2       1 1WO         0.0469
     21 CAU       -10.8110   36.7530  -17.4580 C.3       1 1WO         0.0011
     22 CAW       -11.9110   37.8050  -17.1040 C.3       1 1WO        -0.0502
     23 CAV       -11.2810   35.5380  -18.4170 C.3       1 1WO        -0.0502
     24 H          -6.5596   34.7734  -15.4599 H         1 1WO         0.2988
     25 H          -8.0832   34.0216  -12.4254 H         1 1WO         0.0075
     26 H          -9.6680   34.7490  -11.9944 H         1 1WO         0.0075
     27 H          -8.2990   34.8262  -10.8340 H         1 1WO         0.0075
     28 H          -6.1232   35.8896  -13.2698 H         1 1WO         0.0111
     29 H          -6.3015   35.5485  -11.5152 H         1 1WO         0.0111
     30 H          -6.1868   38.1979  -12.9512 H         1 1WO         0.0253
     31 H          -5.0680   37.5368  -11.7111 H         1 1WO         0.0253
     32 H          -6.9589   39.4931  -11.3556 H         1 1WO         0.0271
     33 H          -6.1353   38.5451  -10.0712 H         1 1WO         0.0271
     34 H          -8.7542   36.3107   -9.2711 H         1 1WO         0.0236
     35 H          -7.2554   37.1453   -8.7384 H         1 1WO         0.0236
     36 H          -7.2082   36.0210  -10.1386 H         1 1WO         0.0236
     37 H          -9.1538   39.8507  -10.5109 H         1 1WO         0.0236
     38 H          -8.3723   39.4233   -8.9510 H         1 1WO         0.0236
     39 H          -9.8997   38.6151   -9.4415 H         1 1WO         0.0236
     40 H          -8.9088   38.1554  -12.4561 H         1 1WO         0.0361
     41 H         -11.9190   36.7311  -12.7895 H         1 1WO         0.0616
     42 H         -11.7689   37.0624  -15.1421 H         1 1WO         0.0568
     43 H         -10.0998   37.2889  -18.1038 H         1 1WO         0.0498
     44 H         -12.5163   38.0174  -17.9976 H         1 1WO         0.0260
     45 H         -11.4329   38.7326  -16.7561 H         1 1WO         0.0260
     46 H         -12.5581   37.4056  -16.3092 H         1 1WO         0.0260
     47 H         -10.4309   34.8638  -18.5980 H         1 1WO         0.0260
     48 H         -11.6374   35.9440  -19.3752 H         1 1WO         0.0260
     49 H         -12.0942   34.9800  -17.9300 H         1 1WO         0.0260
@<TRIPOS>BOND
     1    1    2 2  
     2    2    3 1  
     3    2   20 1  
     4    3    4 1  
     5    3    5 2  
     6    5    6 1  
     7    5   18 1  
     8    6    7 1  
     9    6    8 1  
    10    6   14 1  
    11    8    9 1  
    12    9   10 1  
    13   10   11 1  
    14   11   12 1  
    15   11   13 1  
    16   11   14 1  
    17   14   15 1  
    18   15   16 2  
    19   15   17 1  
    20   17   18 2  
    21   18   19 1  
    22   19   20 2  
    23   20   21 1  
    24   21   22 1  
    25   21   23 1  
    26    4   24 1  
    27    7   25 1  
    28    7   26 1  
    29    7   27 1  
    30    8   28 1  
    31    8   29 1  
    32    9   30 1  
    33    9   31 1  
    34   10   32 1  
    35   10   33 1  
    36   12   34 1  
    37   12   35 1  
    38   12   36 1  
    39   13   37 1  
    40   13   38 1  
    41   13   39 1  
    42   14   40 1  
    43   17   41 1  
    44   19   42 1  
    45   21   43 1  
    46   22   44 1  
    47   22   45 1  
    48   22   46 1  
    49   23   47 1  
    50   23   48 1  
    51   23   49 1  
@<TRIPOS>SUBSTRUCTURE
     1 1WO         1

