### 
### Created by X-TOOL on Mon Sep 10 21:13:16 2018
### 

@<TRIPOS>MOLECULE
4p1r_ligand
   42    45     1     0     0
SMALL
GAST_HUCK


@<TRIPOS>ATOM
      1 C01        27.5930  -73.1510  -23.4310 C.3       1 2KR         0.0720
      2 O02        27.1500  -74.4900  -23.0650 O.3       1 2KR        -0.2617
      3 C03        26.2280  -75.0380  -24.0160 C.2       1 2KR         0.2934
      4 N04        25.9840  -74.5160  -25.2230 N.2       1 2KR        -0.2873
      5 C05        25.0260  -75.3080  -25.8430 C.ar      1 2KR         0.0467
      6 C06        24.3950  -75.2660  -27.0740 C.ar      1 2KR        -0.0482
      7 C07        23.4370  -76.2480  -27.4200 C.ar      1 2KR        -0.0521
      8 C08        23.1600  -77.2420  -26.4910 C.ar      1 2KR        -0.0073
      9 N09        23.7690  -77.2750  -25.3170 N.ar      1 2KR        -0.2845
     10 C10        24.7040  -76.3220  -24.9680 C.ar      1 2KR         0.1668
     11 N11        25.4720  -76.1610  -23.8430 N.pl3     1 2KR        -0.1521
     12 C12        25.4140  -76.9260  -22.7220 C.ar      1 2KR         0.0887
     13 C13        25.7640  -78.2800  -22.6730 C.ar      1 2KR        -0.0388
     14 C14        25.6560  -78.9730  -21.4650 C.ar      1 2KR        -0.0443
     15 C15        25.1950  -78.3240  -20.3340 C.ar      1 2KR         0.0523
     16 N16        25.0340  -78.9430  -19.0330 N.pl3     1 2KR        -0.2683
     17 C17        25.1680  -80.3400  -18.6990 C.ar      1 2KR         0.1232
     18 C18        25.3030  -80.6730  -17.3120 C.ar      1 2KR        -0.0180
     19 C19        25.4370  -81.9970  -16.9120 C.ar      1 2KR        -0.0511
     20 C20        25.4260  -82.9590  -17.8890 C.ar      1 2KR        -0.0313
     21 C21        25.5650  -84.4570  -17.4790 C.3       1 2KR        -0.0308
     22 C22        25.2760  -82.5910  -19.2650 C.ar      1 2KR        -0.0022
     23 N23        25.1400  -81.2930  -19.6140 N.ar      1 2KR        -0.2898
     24 C24        24.8500  -76.9670  -20.4050 C.ar      1 2KR        -0.0443
     25 C25        24.9560  -76.2880  -21.5850 C.ar      1 2KR        -0.0388
     26 H          28.2961  -72.7772  -22.6721 H         1 2KR         0.0594
     27 H          26.7234  -72.4797  -23.4875 H         1 2KR         0.0594
     28 H          28.0940  -73.1852  -24.4097 H         1 2KR         0.0594
     29 H          24.6360  -74.4766  -27.7768 H         1 2KR         0.0650
     30 H          22.9349  -76.2250  -28.3804 H         1 2KR         0.0599
     31 H          22.4302  -78.0063  -26.7325 H         1 2KR         0.0729
     32 H          26.1158  -78.7865  -23.5645 H         1 2KR         0.0543
     33 H          25.9335  -80.0196  -21.4140 H         1 2KR         0.0514
     34 H          24.7959  -78.3108  -18.2555 H         1 2KR         0.2084
     35 H          25.3006  -79.8848  -16.5678 H         1 2KR         0.0607
     36 H          25.5462  -82.2597  -15.8660 H         1 2KR         0.0645
     37 H          25.5368  -85.0878  -18.3797 H         1 2KR         0.0382
     38 H          24.7351  -84.7331  -16.8119 H         1 2KR         0.0382
     39 H          26.5212  -84.6069  -16.9563 H         1 2KR         0.0382
     40 H          25.2716  -83.3583  -20.0307 H         1 2KR         0.0720
     41 H          24.4970  -76.4537  -19.5179 H         1 2KR         0.0514
     42 H          24.6789  -75.2410  -21.6301 H         1 2KR         0.0543
@<TRIPOS>BOND
     1    1    2 1  
     2    2    3 1  
     3    3    4 2  
     4    3   11 1  
     5    4    5 1  
     6    5    6 ar 
     7    5   10 ar 
     8    6    7 ar 
     9    7    8 ar 
    10    8    9 ar 
    11    9   10 ar 
    12   10   11 1  
    13   11   12 1  
    14   12   13 ar 
    15   12   25 ar 
    16   13   14 ar 
    17   14   15 ar 
    18   15   16 1  
    19   15   24 ar 
    20   16   17 1  
    21   17   18 ar 
    22   17   23 ar 
    23   18   19 ar 
    24   19   20 ar 
    25   20   21 1  
    26   20   22 ar 
    27   22   23 ar 
    28   24   25 ar 
    29    1   26 1  
    30    1   27 1  
    31    1   28 1  
    32    6   29 1  
    33    7   30 1  
    34    8   31 1  
    35   13   32 1  
    36   14   33 1  
    37   16   34 1  
    38   18   35 1  
    39   19   36 1  
    40   21   37 1  
    41   21   38 1  
    42   21   39 1  
    43   22   40 1  
    44   24   41 1  
    45   25   42 1  
@<TRIPOS>SUBSTRUCTURE
     1 2KR         1

