### 
### Created by X-TOOL on Mon Sep 10 21:13:17 2018
### 

@<TRIPOS>MOLECULE
4p1u_ligand
   47    51     1     0     0
SMALL
GAST_HUCK


@<TRIPOS>ATOM
      1 C1        -47.4340   -4.7490    1.6290 C.ar      1 21G        -0.0198
      2 C2        -46.1210   -4.9130    1.2190 C.ar      1 21G         0.1437
      3 C3        -45.7020   -4.3800    0.0040 C.ar      1 21G         0.0297
      4 C5        -47.8600   -3.5780   -0.4420 C.ar      1 21G         0.1395
      5 C6        -48.3300   -4.0810    0.7850 C.ar      1 21G         0.0158
      6 C7        -49.7640   -3.7490    0.8590 C.2       1 21G         0.0280
      7 N4        -46.5680   -3.7510   -0.7790 N.ar      1 21G        -0.2849
      8 C8        -50.0870   -3.1210   -0.3030 C.2       1 21G         0.0541
      9 N9        -48.9470   -2.9700   -1.0520 N.pl3     1 21G        -0.2551
     10 C11       -50.6430   -4.0340    2.0080 C.ar      1 21G         0.0815
     11 N12       -51.9060   -3.6110    2.0530 N.ar      1 21G        -0.2961
     12 C13       -52.6790   -3.8400    3.1240 C.ar      1 21G         0.0374
     13 C14       -52.1480   -4.5210    4.2070 C.ar      1 21G         0.1925
     14 C15       -50.8270   -4.9640    4.1250 C.ar      1 21G         0.1541
     15 N16       -50.1150   -4.6870    3.0350 N.ar      1 21G        -0.2657
     16 N17       -50.2860   -5.6600    5.1910 N.pl3     1 21G        -0.2969
     17 C18       -48.8830   -6.0770    5.2650 C.3       1 21G         0.0570
     18 C20       -48.8900   -7.3240    6.1930 C.3       1 21G         0.0379
     19 C22       -47.7630   -7.2080    7.2380 C.3       1 21G        -0.0245
     20 C23       -46.4370   -6.8570    6.5170 C.3       1 21G        -0.0480
     21 C24       -46.5300   -5.4490    5.8620 C.3       1 21G        -0.0476
     22 C25       -47.9960   -4.9700    5.8960 C.3       1 21G        -0.0160
     23 C26       -48.3590   -4.7600    7.3880 C.3       1 21G        -0.0476
     24 C27       -48.1690   -6.0650    8.1930 C.3       1 21G        -0.0480
     25 C28       -48.9160   -8.6450    5.4530 C.2       1 21G         0.0404
     26 O29       -49.0880   -9.6520    6.0970 O.co2     1 21G        -0.5686
     27 O30       -48.7910   -8.7100    4.1130 O.co2     1 21G        -0.5686
     28 F31       -52.8640   -4.7880    5.3230 F         1 21G        -0.1819
     29 F32       -45.2730   -5.5620    2.0340 F         1 21G        -0.1848
     30 H         -47.7629   -5.1318    2.5884 H         1 21G         0.0652
     31 H         -44.6670   -4.4790   -0.3028 H         1 21G         0.0748
     32 H         -51.0844   -2.7925   -0.5913 H         1 21G         0.1113
     33 H         -48.9042   -2.4696   -1.9513 H         1 21G         0.2362
     34 H         -53.7070   -3.4965    3.1423 H         1 21G         0.0844
     35 H         -50.9053   -5.8991    5.9786 H         1 21G         0.1838
     36 H         -48.5018   -6.3317    4.2651 H         1 21G         0.0582
     37 H         -49.8351   -7.2845    6.7544 H         1 21G         0.0492
     38 H         -47.6496   -8.1508    7.7933 H         1 21G         0.0322
     39 H         -46.2395   -7.6069    5.7369 H         1 21G         0.0269
     40 H         -45.6149   -6.8628    7.2478 H         1 21G         0.0269
     41 H         -46.1853   -5.5049    4.8189 H         1 21G         0.0269
     42 H         -45.8987   -4.7414    6.4194 H         1 21G         0.0269
     43 H         -48.1137   -4.0294    5.3379 H         1 21G         0.0324
     44 H         -49.4094   -4.4419    7.4613 H         1 21G         0.0269
     45 H         -47.7091   -3.9793    7.8099 H         1 21G         0.0269
     46 H         -47.3802   -5.9192    8.9457 H         1 21G         0.0269
     47 H         -49.1120   -6.3255    8.6958 H         1 21G         0.0269
@<TRIPOS>BOND
     1    1    2 ar 
     2    1    5 ar 
     3    2    3 ar 
     4    2   29 1  
     5    3    7 ar 
     6    5    4 ar 
     7    4    7 ar 
     8    4    9 1  
     9    5    6 1  
    10    6    8 2  
    11    6   10 1  
    12    8    9 1  
    13   10   11 ar 
    14   10   15 ar 
    15   11   12 ar 
    16   12   13 ar 
    17   13   14 ar 
    18   13   28 1  
    19   14   15 ar 
    20   14   16 1  
    21   16   17 1  
    22   17   18 1  
    23   17   22 1  
    24   18   19 1  
    25   18   25 1  
    26   19   20 1  
    27   19   24 1  
    28   20   21 1  
    29   21   22 1  
    30   22   23 1  
    31   23   24 1  
    32   25   26 ar 
    33   25   27 ar 
    34    1   30 1  
    35    3   31 1  
    36    8   32 1  
    37    9   33 1  
    38   12   34 1  
    39   16   35 1  
    40   17   36 1  
    41   18   37 1  
    42   19   38 1  
    43   20   39 1  
    44   20   40 1  
    45   21   41 1  
    46   21   42 1  
    47   22   43 1  
    48   23   44 1  
    49   23   45 1  
    50   24   46 1  
    51   24   47 1  
@<TRIPOS>SUBSTRUCTURE
     1 21G         1

