### 
### Created by X-TOOL on Mon Sep 10 21:13:18 2018
### 

@<TRIPOS>MOLECULE
4p2t_ligand
   67    70     1     0     0
SMALL
GAST_HUCK


@<TRIPOS>ATOM
      1 C10       -29.5080  -14.8020  -42.2630 C.ar      1 24Q        -0.0434
      2 C17       -29.2600  -20.9860  -42.7220 C.ar      1 24Q         0.0767
      3 C20       -30.6110  -22.9090  -42.2250 C.ar      1 24Q        -0.0618
      4 C21       -29.7130  -23.7150  -42.9050 C.ar      1 24Q         0.0290
      5 C22       -28.5900  -23.1600  -43.4940 C.ar      1 24Q        -0.0515
      6 C24       -25.9960  -20.8970  -43.0660 C.ar      1 24Q        -0.0341
      7 C26       -26.2190  -20.7590  -41.7020 C.ar      1 24Q        -0.0588
      8 C28       -23.6540  -20.4630  -42.7050 C.ar      1 24Q        -0.0683
      9 C01       -25.5170  -16.7800  -46.1810 C.3       1 24Q        -0.0526
     10 C02       -26.2180  -16.3910  -44.8890 C.3       1 24Q        -0.0482
     11 C03       -25.2130  -16.0570  -43.8010 C.3       1 24Q        -0.0291
     12 C04       -24.2970  -17.2440  -43.6080 C.3       1 24Q        -0.0482
     13 C05       -23.5550  -17.5750  -44.8870 C.3       1 24Q        -0.0526
     14 C06       -24.0100  -16.7290  -46.0540 C.3       1 24Q        -0.0530
     15 C07       -25.8470  -15.7140  -42.4590 C.3       1 24Q         0.0003
     16 C08       -27.3580  -15.8260  -42.4120 C.ar      1 24Q         0.0335
     17 C09       -28.1460  -14.6890  -42.3160 C.ar      1 24Q        -0.0284
     18 C11       -30.0970  -16.0340  -42.2980 C.ar      1 24Q        -0.0208
     19 C12       -29.3030  -17.1650  -42.3910 C.ar      1 24Q         0.1198
     20 N13       -27.9480  -17.0480  -42.4400 N.ar      1 24Q        -0.2777
     21 C14       -29.8910  -18.5550  -42.4290 C.2       1 24Q         0.2494
     22 O15       -31.0810  -18.7340  -42.2620 O.2       1 24Q        -0.3672
     23 N16       -28.9560  -19.6010  -42.6490 N.am      1 24Q        -0.2304
     24 C18       -28.3550  -21.7990  -43.3920 C.ar      1 24Q        -0.0038
     25 C19       -30.3820  -21.5440  -42.1260 C.ar      1 24Q        -0.0404
     26 C23       -27.1190  -21.2040  -44.0450 C.3       1 24Q         0.0114
     27 C25       -25.1660  -20.4750  -40.8450 C.ar      1 24Q        -0.0683
     28 C27       -24.7080  -20.7470  -43.5600 C.ar      1 24Q        -0.0588
     29 C29       -23.8830  -20.3270  -41.3450 C.ar      1 24Q        -0.0686
     30 C30       -29.9650  -25.2010  -43.0230 C.2       1 24Q         0.2116
     31 O31       -30.8680  -25.7160  -42.3930 O.2       1 24Q        -0.3904
     32 N32       -29.1540  -25.9830  -43.8880 N.am      1 24Q        -0.1603
     33 S33       -29.4220  -27.5950  -44.0480 S.o2      1 24Q         0.0580
     34 O34       -30.7110  -27.8250  -44.6430 O.2       1 24Q        -0.1511
     35 O35       -29.5800  -28.2580  -42.7820 O.2       1 24Q        -0.1511
     36 C36       -28.1570  -28.3480  -45.0300 C.3       1 24Q         0.0779
     37 H         -30.1219  -13.9113  -42.1930 H         1 24Q         0.0729
     38 H         -31.4931  -23.3447  -41.7699 H         1 24Q         0.0577
     39 H         -27.8943  -23.7909  -44.0353 H         1 24Q         0.0566
     40 H         -27.2212  -20.8739  -41.3052 H         1 24Q         0.0559
     41 H         -22.6513  -20.3474  -43.1002 H         1 24Q         0.0600
     42 H         -25.8288  -16.0861  -46.9755 H         1 24Q         0.0265
     43 H         -25.8148  -17.8040  -46.4507 H         1 24Q         0.0265
     44 H         -26.8449  -17.2303  -44.5536 H         1 24Q         0.0270
     45 H         -26.8518  -15.5114  -45.0749 H         1 24Q         0.0270
     46 H         -24.6214  -15.1914  -44.1336 H         1 24Q         0.0326
     47 H         -24.8967  -18.1150  -43.3051 H         1 24Q         0.0270
     48 H         -23.5667  -17.0096  -42.8196 H         1 24Q         0.0270
     49 H         -23.7264  -18.6339  -45.1306 H         1 24Q         0.0265
     50 H         -22.4802  -17.4051  -44.7257 H         1 24Q         0.0265
     51 H         -23.6941  -15.6878  -45.8928 H         1 24Q         0.0265
     52 H         -23.5543  -17.1114  -46.9793 H         1 24Q         0.0265
     53 H         -25.5746  -14.6781  -42.2087 H         1 24Q         0.0459
     54 H         -25.4315  -16.3955  -41.7021 H         1 24Q         0.0459
     55 H         -27.6821  -13.7098  -42.2829 H         1 24Q         0.0684
     56 H         -31.1762  -16.1256  -42.2534 H         1 24Q         0.0705
     57 H         -27.9977  -19.3386  -42.7627 H         1 24Q         0.2261
     58 H         -31.0785  -20.9146  -41.5839 H         1 24Q         0.0497
     59 H         -26.7428  -21.9190  -44.7915 H         1 24Q         0.0556
     60 H         -27.4078  -20.2684  -44.5463 H         1 24Q         0.0556
     61 H         -25.3477  -20.3687  -39.7816 H         1 24Q         0.0600
     62 H         -24.5243  -20.8527  -44.6231 H         1 24Q         0.0559
     63 H         -23.0604  -20.1055  -40.6746 H         1 24Q         0.0560
     64 H         -28.4149  -25.5489  -44.4030 H         1 24Q         0.2129
     65 H         -28.3577  -29.4255  -45.1229 H         1 24Q         0.0486
     66 H         -27.1799  -28.1973  -44.5477 H         1 24Q         0.0486
     67 H         -28.1471  -27.8894  -46.0298 H         1 24Q         0.0486
@<TRIPOS>BOND
     1    1   17 ar 
     2   18    1 ar 
     3    2   23 1  
     4   24    2 ar 
     5    2   25 ar 
     6    4    3 ar 
     7   25    3 ar 
     8    5    4 ar 
     9    4   30 1  
    10   24    5 ar 
    11    6    7 ar 
    12   26    6 1  
    13    6   28 ar 
    14    7   27 ar 
    15   28    8 ar 
    16    8   29 ar 
    17   10    9 1  
    18    9   14 1  
    19   11   10 1  
    20   11   12 1  
    21   15   11 1  
    22   12   13 1  
    23   13   14 1  
    24   16   15 1  
    25   16   17 ar 
    26   20   16 ar 
    27   19   18 ar 
    28   19   20 ar 
    29   21   19 1  
    30   21   22 2  
    31   23   21 am 
    32   24   26 1  
    33   27   29 ar 
    34   30   31 2  
    35   30   32 am 
    36   32   33 am 
    37   33   34 2  
    38   33   35 2  
    39   33   36 1  
    40    1   37 1  
    41    3   38 1  
    42    5   39 1  
    43    7   40 1  
    44    8   41 1  
    45    9   42 1  
    46    9   43 1  
    47   10   44 1  
    48   10   45 1  
    49   11   46 1  
    50   12   47 1  
    51   12   48 1  
    52   13   49 1  
    53   13   50 1  
    54   14   51 1  
    55   14   52 1  
    56   15   53 1  
    57   15   54 1  
    58   17   55 1  
    59   18   56 1  
    60   23   57 1  
    61   25   58 1  
    62   26   59 1  
    63   26   60 1  
    64   27   61 1  
    65   28   62 1  
    66   29   63 1  
    67   32   64 1  
    68   36   65 1  
    69   36   66 1  
    70   36   67 1  
@<TRIPOS>SUBSTRUCTURE
     1 24Q         1

