### 
### Created by X-TOOL on Mon Sep 10 21:13:17 2018
### 

@<TRIPOS>MOLECULE
4p3h_ligand
   62    66     1     0     0
SMALL
GAST_HUCK


@<TRIPOS>ATOM
      1 C10       -29.5030  -14.6240  -42.3070 C.ar      1 25G        -0.0434
      2 C17       -29.2810  -20.7640  -42.9540 C.ar      1 25G         0.0782
      3 C20       -30.5890  -22.8920  -42.4130 C.ar      1 25G        -0.0624
      4 C21       -29.5420  -23.7220  -42.9920 C.ar      1 25G         0.0190
      5 C22       -28.3630  -23.0780  -43.5700 C.ar      1 25G        -0.0526
      6 C24       -25.9600  -20.6770  -43.1140 C.ar      1 25G        -0.0341
      7 C26       -24.5520  -20.7950  -43.5200 C.ar      1 25G        -0.0587
      8 C28       -25.1780  -19.8910  -40.8320 C.ar      1 25G        -0.0683
      9 C01       -23.1280  -17.5460  -44.8380 C.3       1 25G        -0.0526
     10 C02       -23.8140  -16.8150  -43.7080 C.3       1 25G        -0.0482
     11 C03       -25.3100  -16.6750  -43.9230 C.3       1 25G        -0.0291
     12 C04       -25.6010  -16.0500  -45.2420 C.3       1 25G        -0.0482
     13 C05       -24.9890  -16.8300  -46.3920 C.3       1 25G        -0.0526
     14 C06       -23.4940  -17.0140  -46.2030 C.3       1 25G        -0.0530
     15 C07       -25.8380  -15.8100  -42.7870 C.3       1 25G         0.0003
     16 C08       -27.3280  -15.8490  -42.6330 C.ar      1 25G         0.0335
     17 C09       -28.0840  -14.5890  -42.4840 C.ar      1 25G        -0.0284
     18 C11       -30.1860  -15.8940  -42.3160 C.ar      1 25G        -0.0208
     19 C12       -29.4070  -17.1340  -42.4980 C.ar      1 25G         0.1200
     20 N13       -27.9820  -17.1030  -42.6480 N.ar      1 25G        -0.2777
     21 C14       -30.0120  -18.4660  -42.5020 C.2       1 25G         0.2502
     22 O15       -31.2010  -18.6500  -42.2300 O.2       1 25G        -0.3668
     23 N16       -29.0940  -19.4000  -42.8890 N.am      1 25G        -0.2295
     24 C18       -28.2270  -21.6170  -43.5160 C.ar      1 25G        -0.0032
     25 C19       -30.4710  -21.4220  -42.3890 C.ar      1 25G        -0.0394
     26 C23       -27.0090  -20.9840  -44.1140 C.3       1 25G         0.0116
     27 C25       -23.4600  -20.4780  -42.5840 C.ar      1 25G        -0.0683
     28 C27       -26.3040  -20.2180  -41.7560 C.ar      1 25G        -0.0587
     29 C29       -23.7760  -20.0430  -41.2410 C.ar      1 25G        -0.0686
     30 C30       -29.6570  -25.1910  -43.1300 C.2       1 25G         0.1720
     31 N31       -30.4170  -25.9660  -42.3490 N.pl3     1 25G        -0.1552
     32 N32       -29.0190  -25.8670  -44.0520 N.2       1 25G        -0.2157
     33 N33       -29.3890  -27.1450  -43.8770 N.2       1 25G        -0.1438
     34 N34       -30.2280  -27.1860  -42.8510 N.2       1 25G        -0.0680
     35 H         -30.0597  -13.7044  -42.1674 H         1 25G         0.0729
     36 H         -31.4703  -23.3626  -41.9924 H         1 25G         0.0577
     37 H         -27.5908  -23.6782  -44.0375 H         1 25G         0.0562
     38 H         -24.3134  -21.1210  -44.5259 H         1 25G         0.0559
     39 H         -25.4011  -19.5322  -39.8337 H         1 25G         0.0600
     40 H         -23.4112  -18.6078  -44.7898 H         1 25G         0.0265
     41 H         -22.0401  -17.4503  -44.7062 H         1 25G         0.0265
     42 H         -23.3755  -15.8099  -43.6216 H         1 25G         0.0270
     43 H         -23.6433  -17.3710  -42.7744 H         1 25G         0.0270
     44 H         -25.7845  -17.6667  -43.8860 H         1 25G         0.0326
     45 H         -25.1917  -15.0290  -45.2486 H         1 25G         0.0270
     46 H         -26.6913  -16.0089  -45.3821 H         1 25G         0.0270
     47 H         -25.1665  -16.2833  -47.3298 H         1 25G         0.0265
     48 H         -25.4670  -17.8191  -46.4481 H         1 25G         0.0265
     49 H         -23.1300  -17.7211  -46.9630 H         1 25G         0.0265
     50 H         -23.0016  -16.0403  -46.3423 H         1 25G         0.0265
     51 H         -25.5370  -14.7690  -42.9762 H         1 25G         0.0459
     52 H         -25.3840  -16.1580  -41.8475 H         1 25G         0.0459
     53 H         -27.5638  -13.6383  -42.5088 H         1 25G         0.0684
     54 H         -31.2618  -15.9374  -42.1902 H         1 25G         0.0705
     55 H         -28.1918  -19.0587  -43.1528 H         1 25G         0.2272
     56 H         -31.2633  -20.8237  -41.9538 H         1 25G         0.0503
     57 H         -26.5885  -21.6726  -44.8616 H         1 25G         0.0557
     58 H         -27.3080  -20.0467  -44.6060 H         1 25G         0.0557
     59 H         -22.4269  -20.5700  -42.8992 H         1 25G         0.0600
     60 H         -27.3364  -20.1215  -41.4400 H         1 25G         0.0559
     61 H         -22.9791  -19.8296  -40.5378 H         1 25G         0.0560
     62 H         -31.0064  -25.6872  -41.5516 H         1 25G         0.2688
@<TRIPOS>BOND
     1    1   17 ar 
     2   18    1 ar 
     3    2   23 1  
     4   24    2 ar 
     5    2   25 ar 
     6    4    3 ar 
     7   25    3 ar 
     8    5    4 ar 
     9    4   30 1  
    10   24    5 ar 
    11    6    7 ar 
    12   26    6 1  
    13    6   28 ar 
    14    7   27 ar 
    15   28    8 ar 
    16    8   29 ar 
    17   10    9 1  
    18    9   14 1  
    19   11   10 1  
    20   11   12 1  
    21   15   11 1  
    22   12   13 1  
    23   13   14 1  
    24   16   15 1  
    25   16   17 ar 
    26   20   16 ar 
    27   19   18 ar 
    28   19   20 ar 
    29   21   19 1  
    30   21   22 2  
    31   23   21 am 
    32   24   26 1  
    33   27   29 ar 
    34   30   31 1  
    35   30   32 2  
    36   31   34 1  
    37   32   33 1  
    38   33   34 2  
    39    1   35 1  
    40    3   36 1  
    41    5   37 1  
    42    7   38 1  
    43    8   39 1  
    44    9   40 1  
    45    9   41 1  
    46   10   42 1  
    47   10   43 1  
    48   11   44 1  
    49   12   45 1  
    50   12   46 1  
    51   13   47 1  
    52   13   48 1  
    53   14   49 1  
    54   14   50 1  
    55   15   51 1  
    56   15   52 1  
    57   17   53 1  
    58   18   54 1  
    59   23   55 1  
    60   25   56 1  
    61   26   57 1  
    62   26   58 1  
    63   27   59 1  
    64   28   60 1  
    65   29   61 1  
    66   31   62 1  
@<TRIPOS>SUBSTRUCTURE
     1 25G         1

