### 
### Created by X-TOOL on Mon Sep 10 21:13:16 2018
### 

@<TRIPOS>MOLECULE
4p58_ligand
   22    23     1     0     0
SMALL
GAST_HUCK


@<TRIPOS>ATOM
      1 N3         18.0670   18.5270   16.7920 N.2       1 2F6        -0.2229
      2 C5         18.7090   18.7660   14.3710 C.3       1 2F6         0.0585
      3 C6         16.5450   19.4360   15.4740 C.2       1 2F6         0.0635
      4 C7         16.0540   19.3910   16.7510 C.2       1 2F6         0.0335
      5 C8         14.6960   19.8600   17.1720 C.2       1 2F6         0.0693
      6 C10        12.5130   20.3240   17.0310 C.2       1 2F6        -0.0150
      7 C1         16.9930   18.5000   19.0330 C.3       1 2F6        -0.0259
      8 C2         17.0430   18.7910   17.5510 C.2       1 2F6         0.0205
      9 N4         17.7840   18.9150   15.4920 N.pl3     1 2F6        -0.2140
     10 C9         13.5600   19.8500   16.3420 C.2       1 2F6        -0.0528
     11 N11        12.9580   20.6310   18.2660 N.2       1 2F6        -0.2313
     12 N13        14.3190   20.3410   18.3480 N.pl3     1 2F6        -0.2252
     13 H          18.2391   19.1515   13.4542 H         1 2F6         0.0601
     14 H          18.9550   17.7022   14.2375 H         1 2F6         0.0601
     15 H          19.6293   19.3322   14.5772 H         1 2F6         0.0601
     16 H          16.0248   19.8245   14.5997 H         1 2F6         0.1037
     17 H          11.4947   20.4395   16.6628 H         1 2F6         0.0637
     18 H          16.0202   18.8176   19.4364 H         1 2F6         0.0382
     19 H          17.7982   19.0500   19.5421 H         1 2F6         0.0382
     20 H          17.1241   17.4206   19.1994 H         1 2F6         0.0382
     21 H          13.5356   19.5118   15.3071 H         1 2F6         0.0283
     22 H          14.9217   20.4759   19.1723 H         1 2F6         0.2508
@<TRIPOS>BOND
     1    1    8 2  
     2    9    1 1  
     3    9    2 1  
     4    3    4 2  
     5    3    9 1  
     6    4    5 1  
     7    4    8 1  
     8    5   10 2  
     9    5   12 1  
    10   10    6 1  
    11    6   11 2  
    12    8    7 1  
    13   11   12 1  
    14    2   13 1  
    15    2   14 1  
    16    2   15 1  
    17    3   16 1  
    18    6   17 1  
    19    7   18 1  
    20    7   19 1  
    21    7   20 1  
    22   10   21 1  
    23   12   22 1  
@<TRIPOS>SUBSTRUCTURE
     1 2F6         1

