### 
### Created by X-TOOL on Mon Sep 10 21:13:17 2018
### 

@<TRIPOS>MOLECULE
4p5z_ligand
   55    59     1     0     0
SMALL
GAST_HUCK


@<TRIPOS>ATOM
      1 F36        -4.7520    0.0410  -15.4620 F         1 Q7M        -0.2209
      2 C33        -3.7870   -0.5410  -14.8830 C.3       1 Q7M         0.3726
      3 F37        -3.5300    0.2640  -13.9820 F         1 Q7M        -0.2209
      4 F35        -4.1260   -1.5210  -14.1640 F         1 Q7M        -0.2209
      5 C29        -2.5870   -0.7300  -15.7290 C.ar      1 Q7M         0.0333
      6 C28        -1.6610   -1.7390  -15.5800 C.ar      1 Q7M        -0.0127
      7 C30        -2.3870    0.2130  -16.6780 C.ar      1 Q7M        -0.0452
      8 C31        -1.3100    0.1530  -17.5140 C.ar      1 Q7M        -0.0435
      9 C32        -0.3960   -0.8330  -17.3960 C.ar      1 Q7M        -0.0114
     10 C27        -0.5340   -1.8130  -16.4450 C.ar      1 Q7M         0.0958
     11 N26         0.4190   -2.7980  -16.5040 N.am      1 Q7M        -0.2088
     12 C25         0.2900   -4.0070  -15.9690 C.2       1 Q7M         0.3152
     13 O34        -0.7330   -4.3550  -15.4800 O.2       1 Q7M        -0.3811
     14 N24         1.3600   -4.7930  -16.0040 N.am      1 Q7M        -0.2187
     15 C17         1.4430   -6.0970  -15.6120 C.ar      1 Q7M         0.0597
     16 C16         0.3830   -6.9220  -15.3930 C.ar      1 Q7M        -0.0461
     17 C15         0.5450   -8.1980  -14.9490 C.ar      1 Q7M        -0.0420
     18 C18         2.6840   -6.6550  -15.3610 C.ar      1 Q7M        -0.0461
     19 C19         2.8260   -7.9640  -14.8960 C.ar      1 Q7M        -0.0420
     20 C14         1.7440   -8.7960  -14.6740 C.ar      1 Q7M         0.0858
     21 N11         1.6550  -10.0410  -14.2440 N.pl3     1 Q7M        -0.1628
     22 C10         1.2850  -10.4460  -13.0210 C.2       1 Q7M         0.1936
     23 N21         1.1400   -9.6430  -11.9630 N.pl3     1 Q7M        -0.2916
     24 C12         1.6810  -11.0000  -15.1390 C.ar      1 Q7M         0.1843
     25 C8          1.4230  -12.2610  -14.4130 C.ar      1 Q7M         0.0773
     26 C9          1.1620  -11.9220  -12.9960 C.2       1 Q7M         0.0962
     27 C22         0.8170  -12.9360  -11.9390 C.2       1 Q7M         0.1654
     28 N4          0.5580  -14.1840  -12.2410 N.am      1 Q7M        -0.3094
     29 O23         0.7230  -12.6540  -10.7710 O.2       1 Q7M        -0.4152
     30 N13         1.9630  -11.0420  -16.4400 N.ar      1 Q7M        -0.2599
     31 C4          1.9910  -12.2380  -17.0560 C.ar      1 Q7M         0.0532
     32 C5          1.7000  -13.4870  -16.3140 C.ar      1 Q7M         0.0441
     33 N7          1.4410  -13.4460  -15.0170 N.ar      1 Q7M        -0.3056
     34 C3          2.2610  -12.3290  -18.4000 C.ar      1 Q7M        -0.0419
     35 C2          2.2800  -13.5600  -19.0200 C.ar      1 Q7M        -0.0587
     36 C1          2.0280  -14.7210  -18.3210 C.ar      1 Q7M        -0.0590
     37 C6          1.7320  -14.6950  -16.9730 C.ar      1 Q7M        -0.0431
     38 H          -1.7917   -2.4802  -14.7999 H         1 Q7M         0.0709
     39 H          -3.0934    1.0293  -16.7760 H         1 Q7M         0.0740
     40 H          -1.1870    0.9072  -18.2829 H         1 Q7M         0.0664
     41 H           0.4593   -0.8512  -18.0618 H         1 Q7M         0.0758
     42 H           1.2716   -2.5911  -16.9840 H         1 Q7M         0.2264
     43 H           2.2003   -4.3823  -16.3579 H         1 Q7M         0.2238
     44 H          -0.6191   -6.5520  -15.5776 H         1 Q7M         0.0485
     45 H          -0.3509   -8.7900  -14.8009 H         1 Q7M         0.0535
     46 H           3.5728   -6.0580  -15.5304 H         1 Q7M         0.0485
     47 H           3.8229   -8.3426  -14.7015 H         1 Q7M         0.0535
     48 H           0.8515  -10.0345  -11.0550 H         1 Q7M         0.1901
     49 H           1.3167   -8.6325  -12.0554 H         1 Q7M         0.1901
     50 H           0.3315  -14.8367  -11.5181 H         1 Q7M         0.1787
     51 H           0.5868  -14.4840  -13.1945 H         1 Q7M         0.1787
     52 H           2.4595  -11.4311  -18.9739 H         1 Q7M         0.0637
     53 H           2.4979  -13.6163  -20.0804 H         1 Q7M         0.0625
     54 H           2.0629  -15.6723  -18.8396 H         1 Q7M         0.0637
     55 H           1.5270  -15.6159  -16.4392 H         1 Q7M         0.0623
@<TRIPOS>BOND
     1    1    2 1  
     2    2    3 1  
     3    2    4 1  
     4    2    5 1  
     5    5    6 ar 
     6    5    7 ar 
     7    6   10 ar 
     8    7    8 ar 
     9    8    9 ar 
    10    9   10 ar 
    11   10   11 1  
    12   11   12 am 
    13   12   13 2  
    14   12   14 am 
    15   14   15 1  
    16   15   16 ar 
    17   15   18 ar 
    18   16   17 ar 
    19   17   20 ar 
    20   18   19 ar 
    21   19   20 ar 
    22   20   21 1  
    23   21   22 1  
    24   21   24 1  
    25   22   23 1  
    26   22   26 2  
    27   24   25 ar 
    28   24   30 ar 
    29   25   26 1  
    30   25   33 ar 
    31   26   27 1  
    32   27   28 am 
    33   27   29 2  
    34   30   31 ar 
    35   31   32 ar 
    36   31   34 ar 
    37   32   33 ar 
    38   32   37 ar 
    39   34   35 ar 
    40   35   36 ar 
    41   36   37 ar 
    42    6   38 1  
    43    7   39 1  
    44    8   40 1  
    45    9   41 1  
    46   11   42 1  
    47   14   43 1  
    48   16   44 1  
    49   17   45 1  
    50   18   46 1  
    51   19   47 1  
    52   23   48 1  
    53   23   49 1  
    54   28   50 1  
    55   28   51 1  
    56   34   52 1  
    57   35   53 1  
    58   36   54 1  
    59   37   55 1  
@<TRIPOS>SUBSTRUCTURE
     1 Q7M         1

