### 
### Created by X-TOOL on Mon Sep 10 21:13:17 2018
### 

@<TRIPOS>MOLECULE
4p6e_ligand
   58    61     1     0     0
SMALL
GAST_HUCK


@<TRIPOS>ATOM
      1 C4         25.4220   37.3760   13.7720 C.ar      1 2FC        -0.0419
      2 C5         24.9280   35.9080   15.5740 C.ar      1 2FC        -0.0419
      3 C6         20.6190   30.8600   14.1810 C.ar      1 2FC        -0.0797
      4 C7         21.4930   30.0520   14.8700 C.ar      1 2FC        -0.0547
      5 C8         23.2890   31.4450   14.1650 C.ar      1 2FC        -0.0443
      6 C10        21.0640   31.9630   13.4910 C.ar      1 2FC        -0.0535
      7 C13        24.4680   35.1810   13.2720 C.2       1 2FC         0.2069
      8 C15        20.0660   32.7980   12.7800 C.3       1 2FC        -0.0282
      9 C17        21.9480   33.9720   11.7940 C.3       1 2FC        -0.0198
     10 C20        26.4080   26.9270   17.2950 C.3       1 2FC        -0.0114
     11 C21        25.3600   27.2290   19.3350 C.3       1 2FC        -0.0114
     12 C22        22.9650   33.4280   12.7610 C.3       1 2FC         0.0697
     13 C1         25.8720   38.0630   16.0040 C.ar      1 2FC        -0.0575
     14 C2         25.8820   38.3230   14.6540 C.ar      1 2FC        -0.0562
     15 C3         25.3890   36.8570   16.4540 C.ar      1 2FC        -0.0562
     16 C9         24.9480   36.1760   14.2350 C.ar      1 2FC         0.0500
     17 C11        22.4130   32.2560   13.4830 C.ar      1 2FC        -0.0291
     18 C12        22.8330   30.3490   14.8580 C.ar      1 2FC         0.0531
     19 C14        23.4650   29.0490   16.8060 C.2       1 2FC         0.2882
     20 C16        20.6250   34.1580   12.4820 C.3       1 2FC        -0.0425
     21 C18        25.7410   28.1220   16.6540 C.3       1 2FC         0.0749
     22 C19        24.6820   28.4960   18.8560 C.3       1 2FC         0.0749
     23 C23        27.3880   26.0560   19.2710 C.3       1 2FC        -0.0430
     24 N24        24.5740   28.4970   17.4090 N.am      1 2FC        -0.2443
     25 N25        26.6620   27.1850   18.7000 N.4       1 2FC         0.2359
     26 N26        23.7460   29.5440   15.5470 N.am      1 2FC        -0.2248
     27 N27        23.3790   34.4670   13.6660 N.am      1 2FC        -0.2732
     28 O28        25.0400   35.0250   12.1940 O.2       1 2FC        -0.3845
     29 O29        22.3670   29.0620   17.3530 O.2       1 2FC        -0.3910
     30 H          25.4338   37.5780   12.7071 H         1 2FC         0.0669
     31 H          24.5530   34.9583   15.9380 H         1 2FC         0.0669
     32 H          19.5612   30.6233   14.1819 H         1 2FC         0.0502
     33 H          21.1276   29.1901   15.4165 H         1 2FC         0.0429
     34 H          24.3489   31.6720   14.1561 H         1 2FC         0.0422
     35 H          19.1713   32.9061   13.4106 H         1 2FC         0.0384
     36 H          19.7915   32.3060   11.8353 H         1 2FC         0.0384
     37 H          21.8271   33.2665   10.9588 H         1 2FC         0.0309
     38 H          22.2960   34.9414   11.4078 H         1 2FC         0.0309
     39 H          27.3617   26.7268   16.7848 H         1 2FC         0.0834
     40 H          25.7504   26.0503   17.2003 H         1 2FC         0.0834
     41 H          24.7671   26.3492   19.0445 H         1 2FC         0.0834
     42 H          25.4728   27.2502   20.4290 H         1 2FC         0.0834
     43 H          23.8459   33.0958   12.1921 H         1 2FC         0.0702
     44 H          26.2412   38.8014   16.7065 H         1 2FC         0.0653
     45 H          26.2521   39.2733   14.2865 H         1 2FC         0.0629
     46 H          25.3717   36.6520   17.5183 H         1 2FC         0.0629
     47 H          20.7660   34.7177   13.4184 H         1 2FC         0.0285
     48 H          19.9363   34.7096   11.8252 H         1 2FC         0.0285
     49 H          25.4434   27.8657   15.6265 H         1 2FC         0.0573
     50 H          26.4471   28.9651   16.6318 H         1 2FC         0.0573
     51 H          25.2736   29.3665   19.1757 H         1 2FC         0.0573
     52 H          23.6749   28.5560   19.2944 H         1 2FC         0.0573
     53 H          28.3851   25.9909   18.8110 H         1 2FC         0.0778
     54 H          26.8329   25.1266   19.0760 H         1 2FC         0.0778
     55 H          27.4936   26.1992   20.3565 H         1 2FC         0.0778
     56 H          27.1703   28.0457   18.8298 H         1 2FC         0.2032
     57 H          24.6219   29.3217   15.1187 H         1 2FC         0.2231
     58 H          22.9000   34.6514   14.5242 H         1 2FC         0.1873
@<TRIPOS>BOND
     1    1   14 ar 
     2   16    1 ar 
     3    2   15 ar 
     4   16    2 ar 
     5    4    3 ar 
     6    3    6 ar 
     7   18    4 ar 
     8    5   17 ar 
     9   18    5 ar 
    10    6    8 1  
    11   17    6 ar 
    12    7   16 1  
    13   27    7 am 
    14    7   28 2  
    15    8   20 1  
    16   12    9 1  
    17    9   20 1  
    18   21   10 1  
    19   10   25 1  
    20   11   22 1  
    21   25   11 1  
    22   17   12 1  
    23   12   27 1  
    24   14   13 ar 
    25   15   13 ar 
    26   26   18 1  
    27   24   19 am 
    28   19   26 am 
    29   19   29 2  
    30   21   24 1  
    31   22   24 1  
    32   25   23 1  
    33    1   30 1  
    34    2   31 1  
    35    3   32 1  
    36    4   33 1  
    37    5   34 1  
    38    8   35 1  
    39    8   36 1  
    40    9   37 1  
    41    9   38 1  
    42   10   39 1  
    43   10   40 1  
    44   11   41 1  
    45   11   42 1  
    46   12   43 1  
    47   13   44 1  
    48   14   45 1  
    49   15   46 1  
    50   20   47 1  
    51   20   48 1  
    52   21   49 1  
    53   21   50 1  
    54   22   51 1  
    55   22   52 1  
    56   23   53 1  
    57   23   54 1  
    58   23   55 1  
    59   25   56 1  
    60   26   57 1  
    61   27   58 1  
@<TRIPOS>SUBSTRUCTURE
     1 2FC         1

