### 
### Created by X-TOOL on Mon Sep 10 21:13:18 2018
### 

@<TRIPOS>MOLECULE
4p6g_ligand
   65    69     1     0     0
SMALL
GAST_HUCK


@<TRIPOS>ATOM
      1 C7         30.1910  -21.1030   16.7500 C.ar      1 2FZ        -0.0486
      2 C6         27.7010  -15.9610   19.6570 C.ar      1 2FZ        -0.0223
      3 C1         26.5050  -16.1290   17.1230 C.ar      1 2FZ        -0.0437
      4 C5         26.3400  -14.9740   17.9230 C.ar      1 2FZ        -0.0223
      5 C4         30.0150  -23.7790   17.5740 C.ar      1 2FZ        -0.0507
      6 C3         31.2650  -23.2180   17.3410 C.ar      1 2FZ        -0.0596
      7 C2         27.8780  -17.0950   18.8660 C.ar      1 2FZ        -0.0437
      8 C8         27.3000  -17.1700   17.5900 C.ar      1 2FZ         0.0458
      9 C9         28.9150  -21.6610   16.9940 C.ar      1 2FZ         0.0031
     10 C10        31.3480  -21.8750   16.9530 C.ar      1 2FZ         0.0228
     11 C11        28.8430  -23.0150   17.3720 C.ar      1 2FZ         0.0817
     12 C12        26.9510  -14.9000   19.1750 C.ar      1 2FZ         0.1375
     13 C13        27.4410  -18.4130   16.7530 C.2       1 2FZ         0.2038
     14 C14        24.4970  -20.1800   16.9690 C.2       1 2FZ         0.3198
     15 C15        32.7550  -20.1040   15.9580 C.3       1 2FZ         0.0648
     16 C16        33.6130  -21.5290   17.7850 C.3       1 2FZ         0.0648
     17 C17        34.1970  -19.9170   15.4970 C.3       1 2FZ        -0.0117
     18 C18        35.0370  -21.3640   17.2350 C.3       1 2FZ        -0.0117
     19 C19        37.5800  -19.7320   17.1060 C.3       1 2FZ         0.0927
     20 C20        36.8520  -18.4590   15.6210 C.3       1 2FZ         0.0927
     21 C21        26.5350  -23.0690   16.8910 C.3       1 2FZ         0.1002
     22 C22        27.6560  -20.8490   16.7880 C.3       1 2FZ         0.1035
     23 C23        36.5290  -19.9090   15.9990 C.3       1 2FZ         0.0270
     24 C24        26.3720  -21.6030   17.2150 C.3       1 2FZ         0.1454
     25 C25        22.5490  -18.7980   16.4450 C.3       1 2FZ         0.0215
     26 N26        32.6300  -21.3460   16.7050 N.pl3     1 2FZ        -0.3058
     27 N27        35.1780  -20.0420   16.5910 N.4       1 2FZ         0.2434
     28 N28        27.6300  -19.5640   17.4680 N.am      1 2FZ        -0.2713
     29 N29        23.5890  -19.7180   16.0510 N.am      1 2FZ        -0.2656
     30 O30        27.3780  -18.3900   15.5280 O.2       1 2FZ        -0.3864
     31 O31        24.5260  -19.8690   18.1570 O.2       1 2FZ        -0.3775
     32 O32        27.6470  -23.6430   17.6270 O.3       1 2FZ        -0.3270
     33 O33        37.8830  -18.3850   16.6570 O.3       1 2FZ        -0.3685
     34 O34        25.3340  -21.0920   16.3690 O.3       1 2FZ        -0.2537
     35 F35        26.7780  -13.8130   19.9480 F         1 2FZ        -0.1794
     36 H          30.2771  -20.0786   16.4060 H         1 2FZ         0.0427
     37 H          28.1474  -15.9093   20.6435 H         1 2FZ         0.0616
     38 H          26.0176  -16.2017   16.1575 H         1 2FZ         0.0659
     39 H          25.7390  -14.1467   17.5633 H         1 2FZ         0.0616
     40 H          29.9385  -24.8062   17.9119 H         1 2FZ         0.0491
     41 H          32.1640  -23.8123   17.4581 H         1 2FZ         0.0432
     42 H          28.4666  -17.9251   19.2396 H         1 2FZ         0.0659
     43 H          32.0932  -20.1385   15.0801 H         1 2FZ         0.0562
     44 H          32.4659  -19.2605   16.6022 H         1 2FZ         0.0562
     45 H          33.4363  -20.7779   18.5690 H         1 2FZ         0.0562
     46 H          33.5020  -22.5370   18.2112 H         1 2FZ         0.0562
     47 H          34.2948  -18.9155   15.0526 H         1 2FZ         0.0834
     48 H          34.4225  -20.6792   14.7366 H         1 2FZ         0.0834
     49 H          35.2357  -22.1531   16.4949 H         1 2FZ         0.0834
     50 H          35.7587  -21.4459   18.0611 H         1 2FZ         0.0834
     51 H          38.4289  -20.4270   17.0262 H         1 2FZ         0.0617
     52 H          37.1638  -19.7767   18.1232 H         1 2FZ         0.0617
     53 H          36.0151  -17.7624   15.7768 H         1 2FZ         0.0617
     54 H          37.2406  -18.3425   14.5986 H         1 2FZ         0.0617
     55 H          26.7212  -23.1807   15.8127 H         1 2FZ         0.0638
     56 H          25.6114  -23.6021   17.1608 H         1 2FZ         0.0638
     57 H          27.5897  -20.6525   15.7077 H         1 2FZ         0.0724
     58 H          36.7241  -20.6769   15.2359 H         1 2FZ         0.0897
     59 H          26.1471  -21.4520   18.2811 H         1 2FZ         0.0718
     60 H          21.9290  -18.5494   15.5710 H         1 2FZ         0.0483
     61 H          23.0039  -17.8798   16.8450 H         1 2FZ         0.0483
     62 H          21.9214  -19.2637   17.2192 H         1 2FZ         0.0483
     63 H          35.0284  -19.3159   17.2740 H         1 2FZ         0.2039
     64 H          27.7505  -19.5215   18.4598 H         1 2FZ         0.1872
     65 H          23.6480  -20.0213   15.0999 H         1 2FZ         0.1864
@<TRIPOS>BOND
     1    9    1 ar 
     2    1   10 ar 
     3    7    2 ar 
     4    2   12 ar 
     5    3    4 ar 
     6    8    3 ar 
     7    4   12 ar 
     8    5    6 ar 
     9   11    5 ar 
    10   10    6 ar 
    11    8    7 ar 
    12   13    8 1  
    13    9   11 ar 
    14   22    9 1  
    15   10   26 1  
    16   32   11 1  
    17   12   35 1  
    18   28   13 am 
    19   13   30 2  
    20   14   29 am 
    21   14   31 2  
    22   34   14 1  
    23   15   17 1  
    24   26   15 1  
    25   16   18 1  
    26   26   16 1  
    27   17   27 1  
    28   18   27 1  
    29   23   19 1  
    30   19   33 1  
    31   23   20 1  
    32   20   33 1  
    33   24   21 1  
    34   21   32 1  
    35   24   22 1  
    36   22   28 1  
    37   27   23 1  
    38   24   34 1  
    39   29   25 1  
    40    1   36 1  
    41    2   37 1  
    42    3   38 1  
    43    4   39 1  
    44    5   40 1  
    45    6   41 1  
    46    7   42 1  
    47   15   43 1  
    48   15   44 1  
    49   16   45 1  
    50   16   46 1  
    51   17   47 1  
    52   17   48 1  
    53   18   49 1  
    54   18   50 1  
    55   19   51 1  
    56   19   52 1  
    57   20   53 1  
    58   20   54 1  
    59   21   55 1  
    60   21   56 1  
    61   22   57 1  
    62   23   58 1  
    63   24   59 1  
    64   25   60 1  
    65   25   61 1  
    66   25   62 1  
    67   27   63 1  
    68   28   64 1  
    69   29   65 1  
@<TRIPOS>SUBSTRUCTURE
     1 2FZ         1

