### 
### Created by X-TOOL on Mon Sep 10 21:13:19 2018
### 

@<TRIPOS>MOLECULE
4p6w_ligand
   67    71     1     0     0
SMALL
GAST_HUCK


@<TRIPOS>ATOM
      1 O35        27.7810  -56.1620  -42.1150 O.2       1 MOF        -0.2667
      2 C34        27.3110  -55.1350  -41.5820 C.2       1 MOF         0.2468
      3 C33        28.0430  -53.9490  -41.5800 C.2       1 MOF         0.0360
      4 C32        26.1440  -55.2530  -40.8530 C.2       1 MOF         0.0346
      5 C29        25.6110  -54.1600  -40.2020 C.2       1 MOF        -0.0768
      6 C26        24.3320  -54.3510  -39.4150 C.3       1 MOF        -0.0269
      7 C24        26.3030  -52.8240  -40.1800 C.3       1 MOF        -0.0302
      8 C30        27.5680  -52.8300  -40.9100 C.2       1 MOF        -0.0950
      9 C31        25.3550  -51.8680  -40.9250 C.3       1 MOF        -0.1027
     10 C19        26.6120  -52.5510  -38.6890 C.3       1 MOF         0.0368
     11 CL25       27.6440  -53.9090  -38.0680 Cl        1 MOF        -0.1329
     12 C15        27.5150  -51.3330  -38.4140 C.3       1 MOF         0.0618
     13 O21        27.1190  -50.1310  -39.0860 O.3       1 MOF        -0.3915
     14 C14        25.2970  -52.5640  -37.8770 C.3       1 MOF        -0.0276
     15 C20        24.5770  -53.9060  -37.9780 C.3       1 MOF        -0.0396
     16 C6         25.5960  -52.3060  -36.4060 C.3       1 MOF        -0.0289
     17 C9         24.4490  -52.3130  -35.4070 C.3       1 MOF        -0.0437
     18 C3         25.0530  -51.5950  -34.2050 C.3       1 MOF        -0.0072
     19 C10        24.8040  -52.5060  -33.0070 C.3       1 MOF        -0.0594
     20 C2         26.3470  -51.0120  -36.1420 C.3       1 MOF         0.0094
     21 C7         27.6710  -51.0570  -36.9170 C.3       1 MOF        -0.0179
     22 C8         25.5320  -49.7410  -36.4600 C.3       1 MOF        -0.0562
     23 C1         26.4900  -51.1550  -34.6200 C.3       1 MOF         0.1316
     24 C5         26.9710  -49.8350  -34.0450 C.3       1 MOF         0.1024
     25 O13        26.0960  -49.0300  -33.4680 O.3       1 MOF        -0.3874
     26 C12        28.3950  -49.3150  -34.0740 C.3       1 MOF         0.0516
     27 CL18       28.5190  -47.5560  -34.6420 Cl        1 MOF        -0.1227
     28 O4         27.4720  -52.1920  -34.3780 O.3       1 MOF        -0.2680
     29 C11        28.2140  -52.5770  -33.1610 C.2       1 MOF         0.2869
     30 O17        28.2420  -51.9330  -32.1120 O.2       1 MOF        -0.3628
     31 C16        28.9810  -53.8210  -33.1680 C.2       1 MOF         0.1961
     32 C22        29.2080  -54.7700  -34.1220 C.2       1 MOF        -0.0420
     33 C27        30.0290  -55.6740  -33.4900 C.2       1 MOF        -0.0550
     34 C28        30.2510  -55.2580  -32.1950 C.2       1 MOF         0.0871
     35 O23        29.5940  -54.0780  -31.9870 O.3       1 MOF        -0.2491
     36 H          28.9943  -53.8999  -42.1078 H         1 MOF         0.1206
     37 H          25.6406  -56.2167  -40.7916 H         1 MOF         0.1051
     38 H          24.0418  -55.4119  -39.4304 H         1 MOF         0.0435
     39 H          23.5289  -53.7447  -39.8593 H         1 MOF         0.0435
     40 H          28.1635  -51.9184  -40.9295 H         1 MOF         0.0522
     41 H          25.2426  -52.2015  -41.9672 H         1 MOF         0.0056
     42 H          25.7729  -50.8506  -40.9086 H         1 MOF         0.0056
     43 H          24.3717  -51.8685  -40.4319 H         1 MOF         0.0056
     44 H          28.5105  -51.5966  -38.8005 H         1 MOF         0.0596
     45 H          27.7234  -49.4321  -38.8650 H         1 MOF         0.2098
     46 H          24.6374  -51.7724  -38.2620 H         1 MOF         0.0309
     47 H          25.1890  -54.6694  -37.4754 H         1 MOF         0.0292
     48 H          23.6059  -53.8206  -37.4684 H         1 MOF         0.0292
     49 H          26.2611  -53.1316  -36.1126 H         1 MOF         0.0310
     50 H          24.1532  -53.3405  -35.1487 H         1 MOF         0.0272
     51 H          23.5775  -51.7680  -35.7987 H         1 MOF         0.0272
     52 H          24.4923  -50.6686  -34.0117 H         1 MOF         0.0330
     53 H          23.7238  -52.6845  -32.9004 H         1 MOF         0.0233
     54 H          25.1880  -52.0256  -32.0950 H         1 MOF         0.0233
     55 H          25.3205  -53.4648  -33.1618 H         1 MOF         0.0233
     56 H          28.1741  -50.0863  -36.7962 H         1 MOF         0.0296
     57 H          28.2970  -51.8509  -36.4837 H         1 MOF         0.0296
     58 H          25.4277  -49.6355  -37.5499 H         1 MOF         0.0236
     59 H          26.0524  -48.8607  -36.0546 H         1 MOF         0.0236
     60 H          24.5350  -49.8206  -36.0022 H         1 MOF         0.0236
     61 H          27.1757  -50.3428  -33.0910 H         1 MOF         0.0638
     62 H          26.5410  -48.2496  -33.1592 H         1 MOF         0.2100
     63 H          28.9833  -49.9451  -34.7572 H         1 MOF         0.0456
     64 H          28.8133  -49.3848  -33.0590 H         1 MOF         0.0456
     65 H          28.8287  -54.8034  -35.1423 H         1 MOF         0.0439
     66 H          30.4391  -56.5762  -33.9415 H         1 MOF         0.0366
     67 H          30.8532  -55.7849  -31.4563 H         1 MOF         0.1043
@<TRIPOS>BOND
     1    1    2 2  
     2    2    3 1  
     3    2    4 1  
     4    3    8 2  
     5    4    5 2  
     6    5    6 1  
     7    5    7 1  
     8    6   15 1  
     9    7    8 1  
    10    7    9 1  
    11    7   10 1  
    12   10   11 1  
    13   10   12 1  
    14   10   14 1  
    15   12   13 1  
    16   12   21 1  
    17   14   15 1  
    18   14   16 1  
    19   16   17 1  
    20   16   20 1  
    21   17   18 1  
    22   18   19 1  
    23   18   23 1  
    24   20   21 1  
    25   20   22 1  
    26   20   23 1  
    27   23   24 1  
    28   23   28 1  
    29   24   25 1  
    30   24   26 1  
    31   26   27 1  
    32   28   29 1  
    33   29   30 2  
    34   29   31 1  
    35   31   32 2  
    36   31   35 1  
    37   32   33 1  
    38   33   34 2  
    39   34   35 1  
    40    3   36 1  
    41    4   37 1  
    42    6   38 1  
    43    6   39 1  
    44    8   40 1  
    45    9   41 1  
    46    9   42 1  
    47    9   43 1  
    48   12   44 1  
    49   13   45 1  
    50   14   46 1  
    51   15   47 1  
    52   15   48 1  
    53   16   49 1  
    54   17   50 1  
    55   17   51 1  
    56   18   52 1  
    57   19   53 1  
    58   19   54 1  
    59   19   55 1  
    60   21   56 1  
    61   21   57 1  
    62   22   58 1  
    63   22   59 1  
    64   22   60 1  
    65   24   61 1  
    66   25   62 1  
    67   26   63 1  
    68   26   64 1  
    69   32   65 1  
    70   33   66 1  
    71   34   67 1  
@<TRIPOS>SUBSTRUCTURE
     1 MOF         1

