### 
### Created by X-TOOL on Mon Sep 10 21:13:20 2018
### 

@<TRIPOS>MOLECULE
4p6x_ligand
   56    59     1     0     0
SMALL
GAST_HUCK


@<TRIPOS>ATOM
      1 C1          3.7200   32.2140   -3.7650 C.3       1 HCY        -0.0610
      2 C2          3.9320   32.6580   -2.3200 C.3       1 HCY         0.0243
      3 C3          5.0250   33.7010   -2.2190 C.2       1 HCY         0.1764
      4 C4          5.3930   34.5200   -3.3780 C.2       1 HCY         0.0476
      5 C5          4.8210   34.3510   -4.5760 C.2       1 HCY        -0.0412
      6 C6          5.1970   35.3250   -5.6560 C.3       1 HCY        -0.0169
      7 C7          5.5140   34.6160   -6.9530 C.3       1 HCY        -0.0393
      8 C8          4.5070   33.5230   -7.2940 C.3       1 HCY        -0.0395
      9 C9          4.2310   32.5540   -6.1390 C.3       1 HCY        -0.0357
     10 C10         3.7760   33.2740   -4.8480 C.3       1 HCY        -0.0355
     11 C12         3.9040   30.6620   -7.8200 C.3       1 HCY        -0.0203
     12 C11         3.3700   31.3200   -6.5360 C.3       1 HCY         0.0500
     13 C13         4.1930   31.6290   -8.9690 C.3       1 HCY         0.0074
     14 C14         5.0990   32.7340   -8.4430 C.3       1 HCY        -0.0316
     15 C15         5.4640   33.5060   -9.6810 C.3       1 HCY        -0.0480
     16 C16         5.4920   32.4750  -10.8010 C.3       1 HCY        -0.0179
     17 C17         5.0350   31.1780  -10.1900 C.3       1 HCY         0.1362
     18 C18         2.8700   32.1950   -9.4900 C.3       1 HCY        -0.0577
     19 C19         2.4320   33.9920   -5.0180 C.3       1 HCY        -0.0889
     20 C20         4.3440   30.3240  -11.2360 C.2       1 HCY         0.1839
     21 C21         3.9710   28.9290  -10.8580 C.3       1 HCY         0.1213
     22 O1          5.6260   33.8680   -1.1720 O.2       1 HCY        -0.3440
     23 O2          1.9550   31.5780   -6.6700 O.3       1 HCY        -0.3925
     24 O3          6.2270   30.4770   -9.7820 O.3       1 HCY        -0.3852
     25 O4          4.0740   30.7530  -12.3530 O.2       1 HCY        -0.3272
     26 O5          3.2460   28.3180  -11.9170 O.3       1 HCY        -0.3762
     27 H           2.7284   31.7411   -3.8204 H         1 HCY         0.0172
     28 H           4.4952   31.4685   -3.9958 H         1 HCY         0.0172
     29 H           4.2138   31.7841   -1.7144 H         1 HCY         0.0483
     30 H           2.9938   33.0839   -1.9348 H         1 HCY         0.0483
     31 H           6.1549   35.2892   -3.2605 H         1 HCY         0.1318
     32 H           6.0819   35.8931   -5.3333 H         1 HCY         0.0450
     33 H           4.3579   36.0165   -5.8222 H         1 HCY         0.0450
     34 H           6.5115   34.1601   -6.8690 H         1 HCY         0.0293
     35 H           5.5166   35.3567   -7.7662 H         1 HCY         0.0293
     36 H           3.5589   33.9891   -7.6003 H         1 HCY         0.0299
     37 H           5.2147   32.1305   -5.8882 H         1 HCY         0.0212
     38 H           3.1562   29.9337   -8.1668 H         1 HCY         0.0294
     39 H           4.8387   30.1379   -7.5717 H         1 HCY         0.0294
     40 H           3.4808   30.5895   -5.7211 H         1 HCY         0.0586
     41 H           6.0173   32.2735   -8.0496 H         1 HCY         0.0308
     42 H           6.4516   33.9764   -9.5651 H         1 HCY         0.0267
     43 H           4.7110   34.2805   -9.8886 H         1 HCY         0.0267
     44 H           6.5126   32.3707  -11.1977 H         1 HCY         0.0278
     45 H           4.8121   32.7747  -11.6121 H         1 HCY         0.0278
     46 H           2.2521   32.5232   -8.6412 H         1 HCY         0.0234
     47 H           2.3349   31.4167  -10.0538 H         1 HCY         0.0234
     48 H           3.0721   33.0519  -10.1494 H         1 HCY         0.0234
     49 H           2.1576   34.4848   -4.0736 H         1 HCY         0.0112
     50 H           1.6568   33.2599   -5.2882 H         1 HCY         0.0112
     51 H           2.5174   34.7464   -5.8140 H         1 HCY         0.0112
     52 H           3.3457   28.9511   -9.9533 H         1 HCY         0.0785
     53 H           4.8839   28.3486  -10.6587 H         1 HCY         0.0785
     54 H           1.4974   30.7586   -6.8173 H         1 HCY         0.2097
     55 H           5.9857   29.6469   -9.3882 H         1 HCY         0.2077
     56 H           2.4568   28.8182  -12.0889 H         1 HCY         0.2129
@<TRIPOS>BOND
     1    1    2 1  
     2    1   10 1  
     3    2    3 1  
     4    3    4 1  
     5    3   22 2  
     6    4    5 2  
     7    5    6 1  
     8    5   10 1  
     9    6    7 1  
    10    7    8 1  
    11    8    9 1  
    12    8   14 1  
    13    9   10 1  
    14    9   12 1  
    15   10   19 1  
    16   12   11 1  
    17   11   13 1  
    18   12   23 1  
    19   13   14 1  
    20   13   17 1  
    21   13   18 1  
    22   14   15 1  
    23   15   16 1  
    24   16   17 1  
    25   17   20 1  
    26   17   24 1  
    27   20   21 1  
    28   20   25 2  
    29   21   26 1  
    30    1   27 1  
    31    1   28 1  
    32    2   29 1  
    33    2   30 1  
    34    4   31 1  
    35    6   32 1  
    36    6   33 1  
    37    7   34 1  
    38    7   35 1  
    39    8   36 1  
    40    9   37 1  
    41   11   38 1  
    42   11   39 1  
    43   12   40 1  
    44   14   41 1  
    45   15   42 1  
    46   15   43 1  
    47   16   44 1  
    48   16   45 1  
    49   18   46 1  
    50   18   47 1  
    51   18   48 1  
    52   19   49 1  
    53   19   50 1  
    54   19   51 1  
    55   21   52 1  
    56   21   53 1  
    57   23   54 1  
    58   24   55 1  
    59   26   56 1  
@<TRIPOS>SUBSTRUCTURE
     1 HCY         1

