### 
### Created by X-TOOL on Mon Sep 10 21:13:18 2018
### 

@<TRIPOS>MOLECULE
4p72_ligand
   34    35     1     0     0
SMALL
GAST_HUCK


@<TRIPOS>ATOM
      1 C1         46.9850   24.3830   26.3720 C.2       1 2NL         0.2067
      2 C2         46.5100   23.9750   24.9940 C.3       1 2NL         0.1586
      3 C3         44.4650   23.6100   23.7430 C.ar      1 2NL         0.0843
      4 C7         44.1850   22.6980   21.5400 C.ar      1 2NL         0.0521
      5 C8         45.0180   23.1850   22.5450 C.ar      1 2NL        -0.0114
      6 C9         44.1680   22.1760   19.0520 C.ar      1 2NL         0.1315
      7 C10        44.9410   21.7270   17.9810 C.ar      1 2NL         0.0021
      8 C11        44.3200   21.6830   16.7500 C.ar      1 2NL         0.0502
      9 C12        43.0100   22.0600   16.5930 C.ar      1 2NL        -0.0332
     10 C13        42.3280   22.4870   17.7040 C.ar      1 2NL        -0.0027
     11 CL         45.2170   21.1360   15.3690 Cl        1 2NL        -0.0612
     12 N2         42.8780   22.5530   18.9230 N.ar      1 2NL        -0.2817
     13 N1         44.7350   22.2470   20.3160 N.pl3     1 2NL        -0.2628
     14 C6         42.8110   22.6610   21.7380 C.ar      1 2NL        -0.0501
     15 C5         42.2730   23.1080   22.9280 C.ar      1 2NL        -0.0802
     16 C4         43.0920   23.5940   23.9310 C.ar      1 2NL        -0.0448
     17 O1         45.1000   23.9540   24.9110 O.3       1 2NL        -0.3007
     18 O          46.1710   24.6500   27.2640 O.2       1 2NL        -0.3941
     19 N          48.3030   24.4310   26.5470 N.am      1 2NL        -0.2878
     20 C          48.9160   24.8050   27.8100 C.3       1 2NL         0.0196
     21 H          46.8951   22.9698   24.7675 H         1 2NL         0.0859
     22 H          46.8996   24.6918   24.2562 H         1 2NL         0.0859
     23 H          46.0901   23.2312   22.3913 H         1 2NL         0.0451
     24 H          45.9751   21.4284   18.1094 H         1 2NL         0.0628
     25 H          42.5294   22.0216   15.6221 H         1 2NL         0.0609
     26 H          41.2923   22.7858   17.5893 H         1 2NL         0.0783
     27 H          45.7100   21.9200   20.3730 H         1 2NL         0.2121
     28 H          42.1610   22.2811   20.9581 H         1 2NL         0.0442
     29 H          41.1998   23.0779   23.0777 H         1 2NL         0.0560
     30 H          42.6633   23.9596   24.8571 H         1 2NL         0.0445
     31 H          48.8970   24.1998   25.7765 H         1 2NL         0.1848
     32 H          50.0110   24.7719   27.7101 H         1 2NL         0.0484
     33 H          48.5980   24.1023   28.5943 H         1 2NL         0.0484
     34 H          48.6033   25.8240   28.0819 H         1 2NL         0.0484
@<TRIPOS>BOND
     1    2    1 1  
     2    1   18 2  
     3    1   19 am 
     4   17    2 1  
     5    5    3 ar 
     6    3   16 ar 
     7    3   17 1  
     8    4    5 ar 
     9   13    4 1  
    10    4   14 ar 
    11    6    7 ar 
    12    6   12 ar 
    13    6   13 1  
    14    7    8 ar 
    15    8    9 ar 
    16    8   11 1  
    17    9   10 ar 
    18   10   12 ar 
    19   14   15 ar 
    20   15   16 ar 
    21   19   20 1  
    22    2   21 1  
    23    2   22 1  
    24    5   23 1  
    25    7   24 1  
    26    9   25 1  
    27   10   26 1  
    28   13   27 1  
    29   14   28 1  
    30   15   29 1  
    31   16   30 1  
    32   19   31 1  
    33   20   32 1  
    34   20   33 1  
    35   20   34 1  
@<TRIPOS>SUBSTRUCTURE
     1 2NL         1

