### 
### Created by X-TOOL on Mon Sep 10 21:13:17 2018
### 

@<TRIPOS>MOLECULE
4p73_ligand
   50    53     1     0     0
SMALL
GAST_HUCK


@<TRIPOS>ATOM
      1 N6         47.9350   30.0940   22.3880 N.ar      1 GAX        -0.2853
      2 N1         45.6620   22.6290   21.3040 N.am      1 GAX        -0.2123
      3 C2         45.1170   23.0950   22.5270 C.ar      1 GAX         0.0692
      4 N2         45.8490   22.1600   19.0360 N.am      1 GAX        -0.1742
      5 N3         46.2210   21.3450   16.8760 N.2       1 GAX        -0.3238
      6 C4         45.5330   24.0950   24.6690 C.ar      1 GAX         0.0949
      7 N4         46.9000   26.3690   25.3990 N.am      1 GAX        -0.2305
      8 C5         44.1730   24.1130   24.9460 C.ar      1 GAX        -0.0507
      9 C6         43.2860   23.6190   24.0010 C.ar      1 GAX        -0.0738
     10 O1         47.9310   24.1360   25.6540 O.2       1 GAX        -0.1503
     11 O2         46.0440   24.7930   27.1050 O.2       1 GAX        -0.1503
     12 O3         43.8290   22.7380   19.9200 O.2       1 GAX        -0.3761
     13 C7         45.0280   22.5250   20.0910 C.2       1 GAX         0.3292
     14 C8         45.4070   21.8360   17.7700 C.2       1 GAX         0.2063
     15 C10        45.5330   21.1060   15.7050 C.2       1 GAX        -0.0469
     16 C9         44.2210   21.4070   15.7110 C.2       1 GAX        -0.0081
     17 S2         43.7640   22.0350   17.2460 S.3       1 GAX         0.0108
     18 C3         46.0100   23.5810   23.4730 C.ar      1 GAX        -0.0150
     19 C1         43.7490   23.1110   22.7970 C.ar      1 GAX        -0.0414
     20 S1         46.6700   24.7900   25.8200 S.o2      1 GAX         0.0673
     21 C14        47.8540   26.6370   24.3000 C.3       1 GAX         0.0498
     22 C13        48.2670   28.1030   24.3280 C.3       1 GAX         0.0468
     23 N5         47.0860   28.9670   24.2410 N.pl3     1 GAX        -0.2910
     24 C12        46.1630   28.7180   25.3530 C.3       1 GAX         0.0468
     25 C11        45.7160   27.2580   25.3640 C.3       1 GAX         0.0498
     26 C15        46.9450   29.9880   23.2980 C.ar      1 GAX         0.1136
     27 C19        45.8240   30.8400   23.3000 C.ar      1 GAX        -0.0160
     28 C18        45.7470   31.8110   22.3110 C.ar      1 GAX        -0.0542
     29 C17        46.7500   31.9290   21.3770 C.ar      1 GAX        -0.0480
     30 C16        47.8190   31.0570   21.4540 C.ar      1 GAX        -0.0042
     31 H          46.6199   22.3427   21.3278 H         1 GAX         0.2265
     32 H          46.8342   22.1292   19.2048 H         1 GAX         0.2418
     33 H          43.8092   24.5076   25.8878 H         1 GAX         0.0506
     34 H          42.2215   23.6302   24.2056 H         1 GAX         0.0577
     35 H          46.0242   20.6962   14.8237 H         1 GAX         0.0497
     36 H          43.5466   21.2725   14.8666 H         1 GAX         0.0572
     37 H          47.0759   23.5586   23.2771 H         1 GAX         0.0520
     38 H          43.0476   22.7262   22.0655 H         1 GAX         0.0501
     39 H          47.3752   26.4099   23.3361 H         1 GAX         0.0498
     40 H          48.7444   26.0034   24.4255 H         1 GAX         0.0498
     41 H          48.9308   28.3092   23.4754 H         1 GAX         0.0535
     42 H          48.8006   28.3116   25.2670 H         1 GAX         0.0535
     43 H          45.2806   29.3653   25.2422 H         1 GAX         0.0535
     44 H          46.6697   28.9480   26.3018 H         1 GAX         0.0535
     45 H          45.0948   27.0734   26.2528 H         1 GAX         0.0498
     46 H          45.1297   27.0492   24.4570 H         1 GAX         0.0498
     47 H          45.0468   30.7409   24.0491 H         1 GAX         0.0610
     48 H          44.8937   32.4785   22.2746 H         1 GAX         0.0699
     49 H          46.7030   32.6853   20.6019 H         1 GAX         0.0597
     50 H          48.6105   31.1538   20.7197 H         1 GAX         0.0781
@<TRIPOS>BOND
     1   26    1 ar 
     2    1   30 ar 
     3    3    2 1  
     4    2   13 am 
     5   18    3 ar 
     6    3   19 ar 
     7   13    4 am 
     8    4   14 1  
     9   14    5 2  
    10    5   15 1  
    11    6    8 ar 
    12    6   18 ar 
    13   20    6 1  
    14    7   20 am 
    15   21    7 1  
    16    7   25 1  
    17    8    9 ar 
    18    9   19 ar 
    19   20   10 2  
    20   20   11 2  
    21   13   12 2  
    22   14   17 1  
    23   16   15 2  
    24   17   16 1  
    25   22   21 1  
    26   23   22 1  
    27   23   24 1  
    28   23   26 1  
    29   24   25 1  
    30   26   27 ar 
    31   27   28 ar 
    32   28   29 ar 
    33   29   30 ar 
    34    2   31 1  
    35    4   32 1  
    36    8   33 1  
    37    9   34 1  
    38   15   35 1  
    39   16   36 1  
    40   18   37 1  
    41   19   38 1  
    42   21   39 1  
    43   21   40 1  
    44   22   41 1  
    45   22   42 1  
    46   24   43 1  
    47   24   44 1  
    48   25   45 1  
    49   25   46 1  
    50   27   47 1  
    51   28   48 1  
    52   29   49 1  
    53   30   50 1  
@<TRIPOS>SUBSTRUCTURE
     1 GAX         1

