### 
### Created by X-TOOL on Mon Sep 10 21:13:18 2018
### 

@<TRIPOS>MOLECULE
4p74_ligand
   42    44     1     0     0
SMALL
GAST_HUCK


@<TRIPOS>ATOM
      1 C1         44.2050   21.6310   15.9050 C.ar      1 2U9        -0.0568
      2 C2         42.9650   21.9480   16.4550 C.ar      1 2U9        -0.0690
      3 C3         42.8250   22.2690   17.7950 C.ar      1 2U9        -0.0393
      4 C7         44.8920   22.5050   20.8780 C.3       1 2U9         0.1393
      5 C8         44.4380   23.0120   22.2170 C.2       1 2U9         0.1264
      6 C9         44.4840   23.9180   24.2220 C.2       1 2U9         0.0831
      7 C10        43.1580   23.6300   24.1700 C.2       1 2U9         0.0306
      8 C11        45.1390   24.5670   25.3890 C.2       1 2U9         0.1985
      9 C12        47.1660   25.3270   26.1880 C.3       1 2U9         0.0619
     10 C13        47.0070   24.6640   27.5890 C.3       1 2U9        -0.0090
     11 C14        48.1830   24.9190   28.5190 C.3       1 2U9         0.0680
     12 C15        48.6530   25.1250   25.9080 C.3       1 2U9         0.0886
     13 O3         50.6670   24.7330   27.5980 O.2       1 2U9        -0.1743
     14 S1         49.4690   25.5160   27.4490 S.o2      1 2U9        -0.0288
     15 O2         49.5770   26.9430   27.5880 O.2       1 2U9        -0.1743
     16 N1         46.4620   24.7810   25.2780 N.am      1 2U9        -0.2838
     17 O1         44.4840   24.8820   26.3840 O.2       1 2U9        -0.3927
     18 N          45.2150   23.5620   23.1030 N.2       1 2U9        -0.3040
     19 S          42.7740   22.8840   22.6690 S.3       1 2U9         0.0097
     20 O          43.7710   22.5940   19.9560 O.3       1 2U9        -0.3017
     21 C4         43.9400   22.2710   18.6180 C.ar      1 2U9         0.0880
     22 C5         45.1900   21.9540   18.0840 C.ar      1 2U9        -0.0393
     23 C6         45.3070   21.6410   16.7420 C.ar      1 2U9        -0.0690
     24 C          44.3450   21.2860   14.4430 C.3       1 2U9        -0.0363
     25 H          42.0877   21.9433   15.8183 H         1 2U9         0.0530
     26 H          41.8495   22.5171   18.1975 H         1 2U9         0.0525
     27 H          45.2189   21.4585   20.9671 H         1 2U9         0.0873
     28 H          45.7266   23.1199   20.5102 H         1 2U9         0.0873
     29 H          42.4422   23.8407   24.9632 H         1 2U9         0.0807
     30 H          46.9133   26.3964   26.2379 H         1 2U9         0.0571
     31 H          46.9024   23.5778   27.4501 H         1 2U9         0.0303
     32 H          46.0971   25.0626   28.0614 H         1 2U9         0.0303
     33 H          48.4927   23.9895   29.0191 H         1 2U9         0.0500
     34 H          47.9244   25.6741   29.2759 H         1 2U9         0.0500
     35 H          48.9915   25.8007   25.1087 H         1 2U9         0.0523
     36 H          48.8540   24.0833   25.6173 H         1 2U9         0.0523
     37 H          46.9179   24.4958   24.4349 H         1 2U9         0.1843
     38 H          46.0677   21.9531   18.7202 H         1 2U9         0.0525
     39 H          46.2828   21.3983   16.3371 H         1 2U9         0.0530
     40 H          43.3587   21.3355   13.9585 H         1 2U9         0.0370
     41 H          44.7517   20.2688   14.3436 H         1 2U9         0.0370
     42 H          45.0266   22.0022   13.9609 H         1 2U9         0.0370
@<TRIPOS>BOND
     1    2    1 ar 
     2    1   23 ar 
     3    1   24 1  
     4    3    2 ar 
     5   21    3 ar 
     6    4    5 1  
     7   20    4 1  
     8    5   18 2  
     9    5   19 1  
    10    7    6 2  
    11    6    8 1  
    12   18    6 1  
    13   19    7 1  
    14    8   16 am 
    15    8   17 2  
    16    9   10 1  
    17    9   12 1  
    18   16    9 1  
    19   10   11 1  
    20   14   11 1  
    21   12   14 1  
    22   14   13 2  
    23   14   15 2  
    24   20   21 1  
    25   21   22 ar 
    26   22   23 ar 
    27    2   25 1  
    28    3   26 1  
    29    4   27 1  
    30    4   28 1  
    31    7   29 1  
    32    9   30 1  
    33   10   31 1  
    34   10   32 1  
    35   11   33 1  
    36   11   34 1  
    37   12   35 1  
    38   12   36 1  
    39   16   37 1  
    40   22   38 1  
    41   23   39 1  
    42   24   40 1  
    43   24   41 1  
    44   24   42 1  
@<TRIPOS>SUBSTRUCTURE
     1 2U9         1

