### 
### Created by X-TOOL on Mon Sep 10 21:13:18 2018
### 

@<TRIPOS>MOLECULE
4p75_ligand
   26    27     1     0     0
SMALL
GAST_HUCK


@<TRIPOS>ATOM
      1 C1         44.7090   23.5170   23.3690 C.ar      1 2NM         0.0904
      2 C2         43.4040   23.5550   23.8540 C.ar      1 2NM        -0.0336
      3 C3         42.3580   23.2520   22.9960 C.ar      1 2NM        -0.0704
      4 C7         44.1940   22.3610   19.8310 C.2       1 2NM         0.1032
      5 C8         43.3740   22.2230   18.7300 C.2       1 2NM         0.0136
      6 C9         44.2210   21.7910   17.6870 C.2       1 2NM         0.1546
      7 C10        43.8720   21.4910   16.2760 C.3       1 2NM         0.3879
      8 F2         43.4950   20.2480   16.1200 F         1 2NM        -0.2368
      9 F          42.8750   22.2380   15.8500 F         1 2NM        -0.2368
     10 F1         44.9060   21.6540   15.4490 F         1 2NM        -0.2368
     11 N          45.4800   21.6670   18.1070 N.pl3     1 2NM        -0.1833
     12 N1         45.4310   22.0120   19.4210 N.2       1 2NM        -0.1395
     13 C5         43.9140   22.8140   21.2080 C.ar      1 2NM        -0.0073
     14 C4         42.6080   22.8920   21.6810 C.ar      1 2NM        -0.0644
     15 C6         44.9690   23.1410   22.0580 C.ar      1 2NM        -0.0254
     16 O          45.8300   23.9030   24.0580 O.3       1 2NM        -0.3215
     17 C          45.6590   24.4380   25.3710 C.3       1 2NM         0.0593
     18 H          43.2089   23.8177   24.8874 H         1 2NM         0.0539
     19 H          41.3366   23.2970   23.3564 H         1 2NM         0.0588
     20 H          42.3021   22.4079   18.6771 H         1 2NM         0.0846
     21 H          46.3029   21.3759   17.5602 H         1 2NM         0.2700
     22 H          41.7806   22.6698   21.0169 H         1 2NM         0.0526
     23 H          45.9902   23.1019   21.6964 H         1 2NM         0.0537
     24 H          46.6414   24.6994   25.7912 H         1 2NM         0.0577
     25 H          45.1738   23.6876   26.0124 H         1 2NM         0.0577
     26 H          45.0302   25.3392   25.3208 H         1 2NM         0.0577
@<TRIPOS>BOND
     1    2    1 ar 
     2    1   15 ar 
     3    1   16 1  
     4    3    2 ar 
     5   14    3 ar 
     6    4    5 1  
     7    4   12 2  
     8   13    4 1  
     9    5    6 2  
    10    6    7 1  
    11   11    6 1  
    12    7    8 1  
    13    7    9 1  
    14    7   10 1  
    15   12   11 1  
    16   13   14 ar 
    17   13   15 ar 
    18   16   17 1  
    19    2   18 1  
    20    3   19 1  
    21    5   20 1  
    22   11   21 1  
    23   14   22 1  
    24   15   23 1  
    25   17   24 1  
    26   17   25 1  
    27   17   26 1  
@<TRIPOS>SUBSTRUCTURE
     1 2NM         1

