### 
### Created by X-TOOL on Mon Sep 10 21:13:19 2018
### 

@<TRIPOS>MOLECULE
4p7e_ligand
   55    59     1     0     0
SMALL
GAST_HUCK


@<TRIPOS>ATOM
      1 C8          0.4180   47.4290    7.5400 C.ar      1 2HB         0.0251
      2 C5         -0.6420   49.3650    9.9710 C.3       1 2HB        -0.0101
      3 C2         -0.4330   51.7770    8.4600 C.3       1 2HB         0.1058
      4 C4          0.5760   50.1820   10.3120 C.3       1 2HB         0.1058
      5 C1         -0.3480   50.4810    7.6970 C.3       1 2HB        -0.0101
      6 C7         -0.9650   48.0440    7.8140 C.3       1 2HB         0.0131
      7 C9          1.0430   46.6490    8.5190 C.ar      1 2HB        -0.0320
      8 C10         2.3010   46.0850    8.2820 C.ar      1 2HB        -0.0343
      9 C11         2.9550   46.2680    7.0570 C.ar      1 2HB         0.0258
     10 C12         2.3020   47.0040    6.0600 C.ar      1 2HB        -0.0343
     11 C13         1.0700   47.6160    6.3160 C.ar      1 2HB        -0.0320
     12 C14         4.2360   45.7290    6.8630 C.ar      1 2HB         0.0830
     13 C15         5.2050   45.8470    7.8760 C.ar      1 2HB        -0.0148
     14 C16         6.4740   45.2660    7.7450 C.ar      1 2HB        -0.0310
     15 C17         6.7840   44.5560    6.5830 C.ar      1 2HB         0.0112
     16 C18         5.8080   44.5230    5.5870 C.ar      1 2HB         0.1778
     17 C21         4.7070   44.1900    3.7850 C.2       1 2HB         0.3515
     18 C24         3.2090   44.0200    1.8850 C.2       1 2HB         0.2510
     19 C26         2.9480   43.4610    0.5010 C.3       1 2HB         0.0646
     20 C27         1.4660   43.2140    0.1400 C.3       1 2HB        -0.0294
     21 C28         2.2280   44.3870   -0.5030 C.3       1 2HB        -0.0294
     22 O30         1.8690   52.3700    9.6100 O.2       1 2HB        -0.1740
     23 S3          0.5320   51.9200    9.9460 S.o2      1 2HB        -0.0211
     24 O29        -0.2480   52.6140   10.9530 O.2       1 2HB        -0.1740
     25 N6         -0.8770   49.3540    8.5040 N.4       1 2HB         0.2537
     26 N19         4.5930   45.0920    5.7210 N.ar      1 2HB        -0.2157
     27 N20         3.8810   44.8700    4.6100 N.2       1 2HB        -0.1180
     28 N23         4.4030   43.7560    2.4660 N.am      1 2HB        -0.1409
     29 O25         2.3450   44.6840    2.4350 O.2       1 2HB        -0.3593
     30 N22         5.8890   43.9610    4.3760 N.pl3     1 2HB        -0.1792
     31 H          -1.5192   49.7987   10.4733 H         1 2HB         0.0831
     32 H          -0.4928   48.3325   10.3199 H         1 2HB         0.0831
     33 H          -1.4870   51.9283    8.7360 H         1 2HB         0.0553
     34 H          -0.1128   52.5808    7.7807 H         1 2HB         0.0553
     35 H           1.4254   49.7515    9.7613 H         1 2HB         0.0553
     36 H           0.7494   50.0781   11.3932 H         1 2HB         0.0553
     37 H           0.7037   50.2803    7.4446 H         1 2HB         0.0831
     38 H          -0.9368   50.5687    6.7720 H         1 2HB         0.0831
     39 H          -1.5407   47.3509    8.4450 H         1 2HB         0.1043
     40 H          -1.4849   48.1847    6.8549 H         1 2HB         0.1043
     41 H           0.5484   46.4804    9.4688 H         1 2HB         0.0637
     42 H           2.7771   45.4972    9.0585 H         1 2HB         0.0735
     43 H           2.7557   47.1004    5.0802 H         1 2HB         0.0735
     44 H           0.6152   48.2424    5.5572 H         1 2HB         0.0637
     45 H           4.9652   46.3992    8.7775 H         1 2HB         0.0689
     46 H           7.2070   45.3667    8.5373 H         1 2HB         0.0819
     47 H           7.7373   44.0546    6.4610 H         1 2HB         0.0788
     48 H           3.7470   42.7752    0.1829 H         1 2HB         0.0553
     49 H           0.6790   43.4109    0.8828 H         1 2HB         0.0294
     50 H           1.1863   42.3409   -0.4679 H         1 2HB         0.0294
     51 H           2.4921   44.3516   -1.5702 H         1 2HB         0.0294
     52 H           1.9848   45.4216   -0.2195 H         1 2HB         0.0294
     53 H          -1.8542   49.6013    8.5040 H         1 2HB         0.2055
     54 H           5.0901   43.2414    1.9530 H         1 2HB         0.2836
     55 H1          6.6940   43.4559    3.9788 H         1 2HB         0.2427
@<TRIPOS>BOND
     1    1    6 1  
     2    7    1 ar 
     3   11    1 ar 
     4    2    4 1  
     5   25    2 1  
     6    5    3 1  
     7    3   23 1  
     8    4   23 1  
     9   25    5 1  
    10    6   25 1  
    11    8    7 ar 
    12    9    8 ar 
    13    9   10 ar 
    14   12    9 1  
    15   10   11 ar 
    16   12   13 ar 
    17   26   12 ar 
    18   14   13 ar 
    19   15   14 ar 
    20   16   15 ar 
    21   16   26 ar 
    22   30   16 1  
    23   17   27 2  
    24   28   17 1  
    25   17   30 1  
    26   18   19 1  
    27   18   28 am 
    28   18   29 2  
    29   19   20 1  
    30   19   21 1  
    31   20   21 1  
    32   23   22 2  
    33   23   24 2  
    34   26   27 1  
    35    2   31 1  
    36    2   32 1  
    37    3   33 1  
    38    3   34 1  
    39    4   35 1  
    40    4   36 1  
    41    5   37 1  
    42    5   38 1  
    43    6   39 1  
    44    6   40 1  
    45    7   41 1  
    46    8   42 1  
    47   10   43 1  
    48   11   44 1  
    49   13   45 1  
    50   14   46 1  
    51   15   47 1  
    52   19   48 1  
    53   20   49 1  
    54   20   50 1  
    55   21   51 1  
    56   21   52 1  
    57   25   53 1  
    58   28   54 1  
    59   30   55 1  
@<TRIPOS>SUBSTRUCTURE
     1 2HB         1

