### 
### Created by X-TOOL on Mon Sep 10 21:13:20 2018
### 

@<TRIPOS>MOLECULE
4p7m_ligand
   36    38     1     0     0
SMALL
GAST_HUCK


@<TRIPOS>ATOM
      1 CAL        -1.6580  -30.3430  -18.0600 C.ar      1 2OE        -0.0004
      2 CAQ        -2.4360  -30.7140  -19.1360 C.ar      1 2OE         0.0802
      3 OAB        -1.9120  -30.9650  -20.3370 O.3       1 2OE        -0.3357
      4 CAG        -3.7850  -30.8080  -18.9390 C.ar      1 2OE        -0.0436
      5 CAF        -4.3230  -30.5350  -17.6760 C.ar      1 2OE        -0.0778
      6 CAH        -3.5450  -30.1610  -16.5820 C.ar      1 2OE        -0.0389
      7 CAR        -2.1910  -30.0760  -16.8000 C.ar      1 2OE         0.1106
      8 OAO        -1.3840  -29.7100  -15.8110 O.3       1 2OE        -0.2533
      9 CAS        -1.2530  -30.6730  -14.8870 C.ar      1 2OE         0.1289
     10 CAM        -2.1870  -30.7970  -13.8930 C.ar      1 2OE        -0.0018
     11 CAK        -0.1710  -31.5240  -14.8690 C.ar      1 2OE        -0.0015
     12 CAP        -0.0620  -32.4680  -13.8790 C.ar      1 2OE         0.0131
     13 CAA         1.0260  -33.3090  -13.8990 C.3       1 2OE        -0.0187
     14 NAN        -0.9910  -32.5800  -12.9310 N.ar      1 2OE        -0.3091
     15 CAU        -2.0440  -31.7740  -12.9190 C.ar      1 2OE         0.0337
     16 CAT        -3.0120  -31.8320  -11.9390 C.ar      1 2OE        -0.0057
     17 CAI        -4.3350  -31.9510  -12.2880 C.ar      1 2OE        -0.0512
     18 CAD        -5.3170  -31.9800  -11.3310 C.ar      1 2OE        -0.0594
     19 CAC        -4.9450  -31.8620  -10.0140 C.ar      1 2OE        -0.0601
     20 CAE        -3.6230  -31.7210   -9.6510 C.ar      1 2OE        -0.0594
     21 CAJ        -2.6530  -31.6990  -10.6240 C.ar      1 2OE        -0.0512
     22 H          -0.5866  -30.2552  -18.1997 H         1 2OE         0.0474
     23 H          -2.6059  -31.2032  -20.9405 H         1 2OE         0.2478
     24 H          -4.4359  -31.0929  -19.7577 H         1 2OE         0.0458
     25 H          -5.3955  -30.6184  -17.5425 H         1 2OE         0.0564
     26 H          -3.9833  -29.9491  -15.6135 H         1 2OE         0.0464
     27 H          -3.0407  -30.1295  -13.8674 H         1 2OE         0.0592
     28 H           0.5927  -31.4486  -15.6346 H         1 2OE         0.0575
     29 H           0.9691  -34.0025  -13.0470 H         1 2OE         0.0417
     30 H           1.9495  -32.7156  -13.8277 H         1 2OE         0.0417
     31 H           1.0296  -33.8816  -14.8382 H         1 2OE         0.0417
     32 H          -4.6070  -32.0230  -13.3349 H         1 2OE         0.0639
     33 H          -6.3593  -32.0931  -11.6067 H         1 2OE         0.0622
     34 H          -5.7075  -31.8802   -9.2438 H         1 2OE         0.0631
     35 H          -3.3505  -31.6282   -8.6059 H         1 2OE         0.0622
     36 H          -1.6106  -31.5772  -10.3526 H         1 2OE         0.0639
@<TRIPOS>BOND
     1    1    2 ar 
     2    1    7 ar 
     3    2    3 1  
     4    2    4 ar 
     5    4    5 ar 
     6    5    6 ar 
     7    6    7 ar 
     8    7    8 1  
     9    8    9 1  
    10    9   10 ar 
    11    9   11 ar 
    12   10   15 ar 
    13   11   12 ar 
    14   12   13 1  
    15   12   14 ar 
    16   14   15 ar 
    17   15   16 1  
    18   16   17 ar 
    19   16   21 ar 
    20   17   18 ar 
    21   18   19 ar 
    22   19   20 ar 
    23   20   21 ar 
    24    1   22 1  
    25    3   23 1  
    26    4   24 1  
    27    5   25 1  
    28    6   26 1  
    29   10   27 1  
    30   11   28 1  
    31   13   29 1  
    32   13   30 1  
    33   13   31 1  
    34   17   32 1  
    35   18   33 1  
    36   19   34 1  
    37   20   35 1  
    38   21   36 1  
@<TRIPOS>SUBSTRUCTURE
     1 2OE         1

