### 
### Created by X-TOOL on Mon Sep 10 21:13:20 2018
### 

@<TRIPOS>MOLECULE
4p7s_ligand
   46    48     1     0     0
SMALL
GAST_HUCK


@<TRIPOS>ATOM
      1 CAB       -30.3010  -29.8840   -2.8220 C.3       1 2OK         0.0590
      2 OAP       -28.8680  -29.8820   -3.0430 O.3       1 2OK        -0.3255
      3 CAU       -28.4680  -28.7630   -3.6950 C.ar      1 2OK         0.0768
      4 CAL       -28.7310  -27.5620   -3.0740 C.ar      1 2OK        -0.0071
      5 CAI       -27.8250  -28.7810   -4.9450 C.ar      1 2OK        -0.0426
      6 CAR       -27.4460  -27.5780   -5.5670 C.ar      1 2OK        -0.0622
      7 CAC       -26.8170  -27.6700   -6.7940 C.3       1 2OK        -0.0358
      8 CAJ       -27.7340  -26.3440   -4.9300 C.ar      1 2OK        -0.0382
      9 CAV       -28.4060  -26.3450   -3.6720 C.ar      1 2OK         0.1041
     10 OAQ       -28.7040  -25.2140   -2.9300 O.3       1 2OK        -0.2554
     11 CAW       -30.0170  -24.9090   -2.6190 C.ar      1 2OK         0.1269
     12 CAM       -30.4950  -23.7640   -3.1980 C.ar      1 2OK        -0.0048
     13 CAK       -30.9130  -25.6190   -1.7700 C.ar      1 2OK        -0.0031
     14 CAS       -32.2460  -25.1760   -1.5380 C.ar      1 2OK         0.0111
     15 CAD       -33.1640  -25.8460   -0.6980 C.3       1 2OK        -0.0191
     16 NAN       -32.6380  -24.0470   -2.1370 N.ar      1 2OK        -0.3124
     17 CAY       -31.8010  -23.3730   -2.9570 C.ar      1 2OK         0.0265
     18 CAX       -32.2690  -22.2230   -3.5340 C.ar      1 2OK        -0.0158
     19 CAG       -33.4860  -22.2380   -4.2200 C.ar      1 2OK        -0.0588
     20 CAE       -34.0010  -21.0830   -4.7660 C.ar      1 2OK        -0.0293
     21 CAT       -33.2610  -19.9230   -4.6150 C.ar      1 2OK         0.0944
     22 OAO       -33.7500  -18.7680   -5.1520 O.3       1 2OK        -0.3188
     23 CAA       -33.3290  -17.5650   -4.4760 C.3       1 2OK         0.0603
     24 CAF       -32.0310  -19.9200   -3.9270 C.ar      1 2OK        -0.0293
     25 CAH       -31.5340  -21.0720   -3.3760 C.ar      1 2OK        -0.0588
     26 H         -30.5890  -30.8040   -2.2922 H         1 2OK         0.0577
     27 H         -30.8214  -29.8402   -3.7901 H         1 2OK         0.0577
     28 H         -30.5798  -29.0094   -2.2159 H         1 2OK         0.0577
     29 H         -29.2017  -27.5629   -2.0975 H         1 2OK         0.0420
     30 H         -27.6202  -29.7275   -5.4322 H         1 2OK         0.0397
     31 H         -26.5791  -26.6606   -7.1607 H         1 2OK         0.0387
     32 H         -27.4829  -28.1729   -7.5107 H         1 2OK         0.0387
     33 H         -25.8882  -28.2497   -6.6874 H         1 2OK         0.0387
     34 H         -27.4459  -25.4082   -5.3952 H         1 2OK         0.0402
     35 H         -29.8560  -23.1685   -3.8399 H         1 2OK         0.0575
     36 H         -30.5693  -26.5255   -1.2850 H         1 2OK         0.0563
     37 H         -34.1194  -25.3009   -0.6905 H         1 2OK         0.0417
     38 H         -32.7599  -25.8917    0.3241 H         1 2OK         0.0417
     39 H         -33.3273  -26.8668   -1.0738 H         1 2OK         0.0417
     40 H         -34.0312  -23.1692   -4.3238 H         1 2OK         0.0616
     41 H         -34.9483  -21.0825   -5.2930 H         1 2OK         0.0553
     42 H         -33.7697  -16.6900   -4.9762 H         1 2OK         0.0579
     43 H         -32.2319  -17.4914   -4.5076 H         1 2OK         0.0579
     44 H         -33.6644  -17.5963   -3.4289 H         1 2OK         0.0579
     45 H         -31.4719  -18.9961   -3.8327 H         1 2OK         0.0553
     46 H         -30.5948  -21.0756   -2.8348 H         1 2OK         0.0616
@<TRIPOS>BOND
     1    1    2 1  
     2    2    3 1  
     3    3    4 ar 
     4    3    5 ar 
     5    4    9 ar 
     6    5    6 ar 
     7    6    7 1  
     8    6    8 ar 
     9    8    9 ar 
    10    9   10 1  
    11   10   11 1  
    12   11   12 ar 
    13   11   13 ar 
    14   12   17 ar 
    15   13   14 ar 
    16   14   15 1  
    17   14   16 ar 
    18   16   17 ar 
    19   17   18 1  
    20   18   19 ar 
    21   18   25 ar 
    22   19   20 ar 
    23   20   21 ar 
    24   21   22 1  
    25   21   24 ar 
    26   22   23 1  
    27   24   25 ar 
    28    1   26 1  
    29    1   27 1  
    30    1   28 1  
    31    4   29 1  
    32    5   30 1  
    33    7   31 1  
    34    7   32 1  
    35    7   33 1  
    36    8   34 1  
    37   12   35 1  
    38   13   36 1  
    39   15   37 1  
    40   15   38 1  
    41   15   39 1  
    42   19   40 1  
    43   20   41 1  
    44   23   42 1  
    45   23   43 1  
    46   23   44 1  
    47   24   45 1  
    48   25   46 1  
@<TRIPOS>SUBSTRUCTURE
     1 2OK         1

