### 
### Created by X-TOOL on Mon Sep 10 21:13:19 2018
### 

@<TRIPOS>MOLECULE
4p90_ligand
   54    58     1     0     0
SMALL
GAST_HUCK


@<TRIPOS>ATOM
      1 C1          2.0340  -33.3790   21.3360 C.ar      1 2K0        -0.0489
      2 C2          3.1520  -33.4070   20.5160 C.ar      1 2K0         0.0509
      3 C3          3.5710  -32.2640   19.8270 C.ar      1 2K0         0.0344
      4 C7          4.7940  -32.2490   18.9550 C.2       1 2K0         0.1341
      5 C8          4.7080  -32.9820   17.6990 C.2       1 2K0         0.0416
      6 C9          3.6440  -33.7310   17.2460 C.2       1 2K0         0.0533
      7 C10         5.1980  -33.8940   15.6610 C.ar      1 2K0         0.1380
      8 C11         5.7370  -33.1050   16.6910 C.ar      1 2K0         0.0127
      9 C12         7.0030  -32.5650   16.4630 C.ar      1 2K0        -0.0545
     10 C13         7.6780  -32.8650   15.2790 C.ar      1 2K0        -0.0235
     11 C14         7.0420  -33.6830   14.3530 C.ar      1 2K0        -0.0038
     12 C15         9.0400  -32.3160   15.0170 C.2       1 2K0         0.0001
     13 C16         9.9460  -32.4900   13.9200 C.2       1 2K0         0.0052
     14 C19        11.8220  -28.9160   16.0860 C.3       1 2K0         0.0204
     15 C20        12.9400  -28.4280   16.9860 C.3       1 2K0        -0.0306
     16 C21        14.5000  -30.1210   16.0920 C.3       1 2K0        -0.0306
     17 C22        13.4090  -30.6890   15.1980 C.3       1 2K0         0.0204
     18 CL          3.9920  -34.9180   20.3210 Cl        1 2K0        -0.0711
     19 C4          2.8470  -31.0790   20.0200 C.ar      1 2K0        -0.0402
     20 C5          1.7160  -31.0390   20.8340 C.ar      1 2K0        -0.0121
     21 C6          0.9630  -29.7500   21.0240 C.3       1 2K0         0.0792
     22 O           0.8730  -29.3430   22.3850 O.3       1 2K0        -0.3824
     23 C           1.3200  -32.2040   21.4830 C.ar      1 2K0        -0.0532
     24 O1          5.8000  -31.6550   19.3410 O.2       1 2K0        -0.3869
     25 N1          5.8070  -34.1700   14.5040 N.ar      1 2K0        -0.2878
     26 N           3.9450  -34.2910   16.0320 N.pl3     1 2K0        -0.2568
     27 C17         9.7420  -31.4770   15.8420 C.2       1 2K0         0.0630
     28 N3         10.9400  -31.1980   15.3060 N.pl3     1 2K0        -0.2002
     29 N2         11.0800  -31.8400   14.1170 N.2       1 2K0        -0.2137
     30 C18        12.0780  -30.4080   15.8960 C.3       1 2K0         0.0924
     31 N4         14.2600  -28.6740   16.3530 N.4       1 2K0         0.2271
     32 H           1.7210  -34.2749   21.8598 H         1 2K0         0.0618
     33 H           2.7011  -33.8593   17.7756 H         1 2K0         0.1097
     34 H           7.4598  -31.9160   17.2014 H         1 2K0         0.0616
     35 H           7.5826  -33.9427   13.4500 H         1 2K0         0.0720
     36 H           9.7272  -33.0841   13.0340 H         1 2K0         0.0671
     37 H          11.8512  -28.3941   15.1182 H         1 2K0         0.0349
     38 H          10.8444  -28.7508   16.5623 H         1 2K0         0.0349
     39 H          12.8929  -28.9640   17.9454 H         1 2K0         0.0815
     40 H          12.8183  -27.3491   17.1624 H         1 2K0         0.0815
     41 H          15.4743  -30.2426   15.5960 H         1 2K0         0.0815
     42 H          14.5046  -30.6653   17.0479 H         1 2K0         0.0815
     43 H          13.5490  -31.7726   15.0709 H         1 2K0         0.0349
     44 H          13.4318  -30.1984   14.2137 H         1 2K0         0.0349
     45 H           3.1745  -30.1722   19.5244 H         1 2K0         0.0607
     46 H          -0.0561  -29.8803   20.6310 H         1 2K0         0.0722
     47 H           1.4764  -28.9595   20.4570 H         1 2K0         0.0722
     48 H           0.3890  -28.5273   22.4391 H         1 2K0         0.2126
     49 H           0.4383  -32.1905   22.1135 H         1 2K0         0.0594
     50 H           3.3272  -34.9102   15.4882 H         1 2K0         0.2352
     51 H           9.3802  -31.0924   16.7944 H         1 2K0         0.1026
     52 H          12.1941  -30.8039   16.9157 H         1 2K0         0.0683
     53 H          14.9827  -28.3309   16.9662 H         1 2K0         0.2013
     54 H          14.2977  -28.1760   15.4775 H         1 2K0         0.2013
@<TRIPOS>BOND
     1    2    1 ar 
     2    1   23 ar 
     3    3    2 ar 
     4    2   18 1  
     5    4    3 1  
     6    3   19 ar 
     7    5    4 1  
     8    4   24 2  
     9    5    6 2  
    10    8    5 1  
    11   26    6 1  
    12    8    7 ar 
    13   25    7 ar 
    14    7   26 1  
    15    9    8 ar 
    16   10    9 ar 
    17   10   11 ar 
    18   12   10 1  
    19   11   25 ar 
    20   13   12 1  
    21   27   12 2  
    22   29   13 2  
    23   14   15 1  
    24   30   14 1  
    25   15   31 1  
    26   17   16 1  
    27   16   31 1  
    28   30   17 1  
    29   19   20 ar 
    30   20   21 1  
    31   20   23 ar 
    32   21   22 1  
    33   28   27 1  
    34   28   29 1  
    35   28   30 1  
    36    1   32 1  
    37    6   33 1  
    38    9   34 1  
    39   11   35 1  
    40   13   36 1  
    41   14   37 1  
    42   14   38 1  
    43   15   39 1  
    44   15   40 1  
    45   16   41 1  
    46   16   42 1  
    47   17   43 1  
    48   17   44 1  
    49   19   45 1  
    50   21   46 1  
    51   21   47 1  
    52   22   48 1  
    53   23   49 1  
    54   26   50 1  
    55   27   51 1  
    56   30   52 1  
    57   31   53 1  
    58   31   54 1  
@<TRIPOS>SUBSTRUCTURE
     1 2K0         1

