### 
### Created by X-TOOL on Mon Sep 10 21:12:46 2018
### 

@<TRIPOS>MOLECULE
4pax_ligand
   21    22     1     0     0
SMALL
GAST_HUCK


@<TRIPOS>ATOM
      1 C5         39.8440   22.5140   21.9820 C.ar      1 NU1         0.0981
      2 O5         38.4950   22.3890   21.5850 O.3       1 NU1        -0.3352
      3 C4A        40.8640   23.0640   21.1180 C.ar      1 NU1         0.0438
      4 N4         40.5810   23.5140   19.8540 N.2       1 NU1        -0.3112
      5 C3         41.4750   24.0120   19.0810 C.2       1 NU1         0.1361
      6 C9         41.0660   24.4710   17.7210 C.3       1 NU1         0.0253
      7 N2         42.7650   24.1310   19.4150 N.am      1 NU1        -0.1966
      8 C1         43.2080   23.7340   20.6200 C.2       1 NU1         0.2318
      9 O1         44.3880   23.8360   20.9660 O.2       1 NU1        -0.3872
     10 C8A        42.2000   23.1530   21.5860 C.ar      1 NU1         0.0522
     11 C8         42.5440   22.7080   22.8850 C.ar      1 NU1        -0.0617
     12 C7         41.5410   22.1690   23.7240 C.ar      1 NU1        -0.0746
     13 C6         40.2080   22.0680   23.2730 C.ar      1 NU1        -0.0373
     14 H1         37.9915   22.0069   22.2942 H         1 NU1         0.2465
     15 H2         39.9854   24.3124   17.5901 H         1 NU1         0.0522
     16 H3         41.6156   23.8978   16.9598 H         1 NU1         0.0522
     17 H4         41.2955   25.5411   17.6107 H         1 NU1         0.0522
     18 H5         43.4096   24.5215   18.7577 H         1 NU1         0.2521
     19 H6         43.5678   22.7797   23.2339 H         1 NU1         0.0545
     20 H7         41.7985   21.8309   24.7212 H         1 NU1         0.0526
     21 H8         39.4533   21.6430   23.9248 H         1 NU1         0.0541
@<TRIPOS>BOND
     1    1    2 1  
     2    1    3 ar 
     3    1   13 ar 
     4    3    4 1  
     5    3   10 ar 
     6    4    5 2  
     7    5    6 1  
     8    5    7 am 
     9    7    8 am 
    10    8    9 2  
    11    8   10 1  
    12   10   11 ar 
    13   11   12 ar 
    14   12   13 ar 
    15    2   14 1  
    16    6   15 1  
    17    6   16 1  
    18    6   17 1  
    19    7   18 1  
    20   11   19 1  
    21   12   20 1  
    22   13   21 1  
@<TRIPOS>SUBSTRUCTURE
     1 NU1         1

