### 
### Created by X-TOOL on Mon Sep 10 21:13:20 2018
### 

@<TRIPOS>MOLECULE
4pb1_ligand
   29    30     1     0     0
SMALL
GAST_HUCK


@<TRIPOS>ATOM
      1 N1         51.4600  -20.3990   -8.1120 N.pl3     1 RBV        -0.1389
      2 N2         50.7730  -20.7170   -9.2860 N.2       1 RBV        -0.1583
      3 C3         49.8370  -21.6190   -8.9080 C.2       1 RBV         0.1768
      4 N3         48.0420  -23.2100   -9.2640 N.am      1 RBV        -0.2984
      5 O3         48.7610  -21.9650  -10.9710 O.2       1 RBV        -0.3823
      6 N4         49.9550  -21.8310   -7.5740 N.2       1 RBV        -0.2689
      7 C5         50.9600  -21.0720   -7.0780 C.2       1 RBV         0.1355
      8 C6         48.8360  -22.2810   -9.7930 C.2       1 RBV         0.2242
      9 C1'        52.5590  -19.4100   -8.2430 C.3       1 RBV         0.2177
     10 C2'        51.9770  -18.0140   -8.3920 C.3       1 RBV         0.1413
     11 O2'        52.7440  -17.2650   -9.3350 O.3       1 RBV        -0.3834
     12 C3'        52.1310  -17.3850   -7.0260 C.3       1 RBV         0.1148
     13 O3'        52.4130  -15.9870   -7.1320 O.3       1 RBV        -0.3864
     14 C4'        53.2960  -18.1310   -6.4020 C.3       1 RBV         0.1137
     15 O4'        53.3330  -19.4130   -7.0380 O.3       1 RBV        -0.3345
     16 C5'        53.1170  -18.2870   -4.9000 C.3       1 RBV         0.0730
     17 O5'        51.8300  -18.8550   -4.6360 O.3       1 RBV        -0.3924
     18 H          47.3617  -23.6701   -9.8345 H         1 RBV         0.1810
     19 H          48.1261  -23.4475   -8.2963 H         1 RBV         0.1810
     20 H          51.2924  -21.0220   -6.0422 H         1 RBV         0.1376
     21 H          53.1896  -19.6586   -9.1093 H         1 RBV         0.1031
     22 H          50.9218  -18.0530   -8.7003 H         1 RBV         0.0679
     23 H          52.3740  -16.3944   -9.4223 H         1 RBV         0.2101
     24 H          51.2174  -17.5261   -6.4299 H         1 RBV         0.0648
     25 H          52.5049  -15.6168   -6.2619 H         1 RBV         0.2100
     26 H          54.2328  -17.5878   -6.5953 H         1 RBV         0.0647
     27 H          53.1905  -17.3018   -4.4164 H         1 RBV         0.0584
     28 H          53.9000  -18.9497   -4.5030 H         1 RBV         0.0584
     29 H          51.1553  -18.2815   -4.9802 H         1 RBV         0.2095
@<TRIPOS>BOND
     1    1    2 1  
     2    1    7 1  
     3    1    9 1  
     4    2    3 2  
     5    3    6 1  
     6    3    8 1  
     7    8    4 am 
     8    8    5 2  
     9    6    7 2  
    10    9   10 1  
    11    9   15 1  
    12   10   11 1  
    13   10   12 1  
    14   12   13 1  
    15   12   14 1  
    16   14   15 1  
    17   14   16 1  
    18   16   17 1  
    19    4   18 1  
    20    4   19 1  
    21    7   20 1  
    22    9   21 1  
    23   10   22 1  
    24   11   23 1  
    25   12   24 1  
    26   13   25 1  
    27   14   26 1  
    28   16   27 1  
    29   16   28 1  
    30   17   29 1  
@<TRIPOS>SUBSTRUCTURE
     1 RBV         1

