### 
### Created by X-TOOL on Mon Sep 10 21:13:16 2018
### 

@<TRIPOS>MOLECULE
4pce_ligand
   38    40     1     0     0
SMALL
GAST_HUCK


@<TRIPOS>ATOM
      1 O          15.3310    4.3600    0.0240 O.2       1 2N0        -0.4018
      2 C16        14.1950    4.8160   -0.0120 C.2       1 2N0         0.0953
      3 C4         13.7380    5.8370    0.9620 C.2       1 2N0        -0.0012
      4 C3         14.4140    6.5550    1.9340 C.2       1 2N0        -0.0806
      5 C15        13.1680    4.2780   -0.9880 C.3       1 2N0         0.0164
      6 C14        11.9740    5.2170   -1.1680 C.3       1 2N0        -0.0267
      7 C13        11.3140    5.5930    0.1520 C.3       1 2N0         0.0048
      8 C5         12.3980    6.1650    1.0230 C.2       1 2N0         0.0558
      9 N          12.2440    7.0720    1.9860 N.pl3     1 2N0        -0.2543
     10 C2         13.4370    7.3300    2.5580 C.2       1 2N0         0.0333
     11 C1         13.6380    8.3180    3.6910 C.3       1 2N0        -0.0071
     12 C          15.0870    8.4210    4.1120 C.3       1 2N0        -0.0553
     13 C6         10.9540    7.6550    2.3730 C.3       1 2N0         0.0882
     14 C7         10.1930    6.6340    3.2110 C.ar      1 2N0        -0.0130
     15 C12        10.7510    6.1500    4.3930 C.ar      1 2N0        -0.0577
     16 C11        10.0710    5.2140    5.1720 C.ar      1 2N0        -0.0685
     17 C10         8.8250    4.7550    4.7670 C.ar      1 2N0        -0.0687
     18 C9          8.2650    5.2340    3.5880 C.ar      1 2N0        -0.0685
     19 C8          8.9410    6.1710    2.8090 C.ar      1 2N0        -0.0577
     20 H          15.4784    6.5217    2.1619 H         1 2N0         0.0166
     21 H          12.8012    3.3104   -0.6148 H         1 2N0         0.0478
     22 H          13.6527    4.1343   -1.9649 H         1 2N0         0.0478
     23 H          11.2279    4.7187   -1.8044 H         1 2N0         0.0312
     24 H          12.3215    6.1366   -1.6615 H         1 2N0         0.0312
     25 H          10.8765    4.7018    0.6257 H         1 2N0         0.0452
     26 H          10.5267    6.3425   -0.0166 H         1 2N0         0.0452
     27 H          13.0409    7.9916    4.5552 H         1 2N0         0.0419
     28 H          13.2941    9.3094    3.3611 H         1 2N0         0.0419
     29 H          15.1795    9.1472    4.9330 H         1 2N0         0.0250
     30 H          15.6943    8.7543    3.2576 H         1 2N0         0.0250
     31 H          15.4410    7.4365    4.4517 H         1 2N0         0.0250
     32 H          10.3733    7.9021    1.4720 H         1 2N0         0.0780
     33 H          11.1216    8.5681    2.9630 H         1 2N0         0.0780
     34 H          11.7247    6.5051    4.7105 H         1 2N0         0.0558
     35 H          10.5139    4.8462    6.0905 H         1 2N0         0.0599
     36 H           8.2913    4.0268    5.3670 H         1 2N0         0.0559
     37 H           7.2924    4.8748    3.2715 H         1 2N0         0.0599
     38 H           8.4943    6.5391    1.8924 H         1 2N0         0.0558
@<TRIPOS>BOND
     1    1    2 2  
     2    2    3 1  
     3    2    5 1  
     4    3    4 1  
     5    3    8 2  
     6    4   10 2  
     7    5    6 1  
     8    6    7 1  
     9    7    8 1  
    10    8    9 1  
    11    9   10 1  
    12    9   13 1  
    13   10   11 1  
    14   11   12 1  
    15   13   14 1  
    16   14   15 ar 
    17   14   19 ar 
    18   15   16 ar 
    19   16   17 ar 
    20   17   18 ar 
    21   18   19 ar 
    22    4   20 1  
    23    5   21 1  
    24    5   22 1  
    25    6   23 1  
    26    6   24 1  
    27    7   25 1  
    28    7   26 1  
    29   11   27 1  
    30   11   28 1  
    31   12   29 1  
    32   12   30 1  
    33   12   31 1  
    34   13   32 1  
    35   13   33 1  
    36   15   34 1  
    37   16   35 1  
    38   17   36 1  
    39   18   37 1  
    40   19   38 1  
@<TRIPOS>SUBSTRUCTURE
     1 2N0         1

