### 
### Created by X-TOOL on Mon Sep 10 21:13:16 2018
### 

@<TRIPOS>MOLECULE
4pci_ligand
   35    37     1     0     0
SMALL
GAST_HUCK


@<TRIPOS>ATOM
      1 O          14.7690    4.6140    0.0960 O.2       1 2NJ        -0.3860
      2 C9         13.7690    5.3220    0.2010 C.2       1 2NJ         0.2068
      3 N          12.6000    4.9480   -0.3040 N.am      1 2NJ        -0.2272
      4 C          12.4730    3.7170   -1.0850 C.3       1 2NJ         0.0420
      5 C8         13.8060    6.6440    0.9320 C.3       1 2NJ         0.0744
      6 C7         13.2710    6.4620    2.3530 C.3       1 2NJ         0.0837
      7 C10        13.3210    7.7720    3.0740 C.ar      1 2NJ        -0.0169
      8 C15        12.3520    8.7630    2.8910 C.ar      1 2NJ        -0.0581
      9 C14        12.4340    9.9800    3.5740 C.ar      1 2NJ        -0.0685
     10 C13        13.4910   10.2010    4.4470 C.ar      1 2NJ        -0.0687
     11 C12        14.4680    9.2270    4.6250 C.ar      1 2NJ        -0.0685
     12 C11        14.3830    8.0210    3.9360 C.ar      1 2NJ        -0.0581
     13 N1         11.9340    5.8750    2.3090 N.pl3     1 2NJ        -0.3122
     14 C6         11.0830    6.0590    1.2550 C.ar      1 2NJ         0.0633
     15 C1         11.4010    5.6400   -0.0340 C.ar      1 2NJ         0.0882
     16 C5          9.8570    6.6830    1.4740 C.ar      1 2NJ        -0.0571
     17 C4          8.9490    6.8770    0.4350 C.ar      1 2NJ        -0.0893
     18 C3          9.2700    6.4600   -0.8480 C.ar      1 2NJ        -0.0890
     19 C2         10.4940    5.8420   -1.0770 C.ar      1 2NJ        -0.0520
     20 H          13.4678    3.2704   -1.2298 H         1 2NJ         0.0545
     21 H          12.0288    3.9483   -2.0644 H         1 2NJ         0.0545
     22 H          11.8270    3.0069   -0.5479 H         1 2NJ         0.0545
     23 H          13.1820    7.3752    0.3972 H         1 2NJ         0.0552
     24 H          14.8428    7.0089    0.9756 H         1 2NJ         0.0552
     25 H          13.9278    5.7590    2.8863 H         1 2NJ         0.0732
     26 H          11.5267    8.5855    2.2110 H         1 2NJ         0.0557
     27 H          11.6797   10.7438    3.4236 H         1 2NJ         0.0599
     28 H          13.5550   11.1360    4.9918 H         1 2NJ         0.0559
     29 H          15.2961    9.4075    5.3008 H         1 2NJ         0.0599
     30 H          15.1517    7.2690    4.0726 H         1 2NJ         0.0557
     31 H          11.6200    5.2997    3.1036 H         1 2NJ         0.1745
     32 H           9.6046    7.0241    2.4715 H         1 2NJ         0.0466
     33 H           7.9944    7.3525    0.6291 H         1 2NJ         0.0454
     34 H           8.5735    6.6144   -1.6641 H         1 2NJ         0.0466
     35 H          10.7479    5.5126   -2.0780 H         1 2NJ         0.0459
@<TRIPOS>BOND
     1    1    2 2  
     2    2    3 am 
     3    2    5 1  
     4    3    4 1  
     5    3   15 1  
     6    5    6 1  
     7    6    7 1  
     8    6   13 1  
     9    7    8 ar 
    10    7   12 ar 
    11    8    9 ar 
    12    9   10 ar 
    13   10   11 ar 
    14   11   12 ar 
    15   13   14 1  
    16   14   15 ar 
    17   14   16 ar 
    18   15   19 ar 
    19   16   17 ar 
    20   17   18 ar 
    21   18   19 ar 
    22    4   20 1  
    23    4   21 1  
    24    4   22 1  
    25    5   23 1  
    26    5   24 1  
    27    6   25 1  
    28    8   26 1  
    29    9   27 1  
    30   10   28 1  
    31   11   29 1  
    32   12   30 1  
    33   13   31 1  
    34   16   32 1  
    35   17   33 1  
    36   18   34 1  
    37   19   35 1  
@<TRIPOS>SUBSTRUCTURE
     1 2NJ         1

