### 
### Created by X-TOOL on Mon Sep 10 21:13:19 2018
### 

@<TRIPOS>MOLECULE
4pct_ligand
   22    22     1     0     0
SMALL
GAST_HUCK


@<TRIPOS>ATOM
      1 CAG        33.1810    6.9870   57.6240 C.1       1 H76        -0.1136
      2 CAF        32.5850    6.5070   56.9430 C.1       1 H76        -0.0502
      3 CAD        31.7110    5.8440   55.8920 C.3       1 H76         0.0690
      4 NAE        30.2850    6.1160   56.1850 N.4       1 H76         0.2439
      5 CAA        29.6350    4.7890   56.2470 C.3       1 H76         0.0050
      6 CAH        28.1630    4.7670   55.7720 C.3       1 H76        -0.0191
      7 CAB        30.5170    3.9360   55.3640 C.3       1 H76         0.1293
      8 OAI        30.4200    4.3690   53.9940 O.3       1 H76        -0.3834
      9 CAC        31.8400    4.2850   55.9550 C.3       1 H76         0.1401
     10 OAJ        32.9110    3.6980   55.2110 O.3       1 H76        -0.3823
     11 H          33.7954    7.4818   58.3260 H         1 H76         0.1230
     12 H          31.9852    6.2160   54.8938 H         1 H76         0.1023
     13 H          29.8753    6.6752   55.4532 H         1 H76         0.2031
     14 H          30.1916    6.5956   57.0666 H         1 H76         0.2031
     15 H          29.6608    4.4158   57.2814 H         1 H76         0.0875
     16 H          27.7666    3.7442   55.8539 H         1 H76         0.0285
     17 H          28.1108    5.0977   54.7242 H         1 H76         0.0285
     18 H          27.5648    5.4434   56.4002 H         1 H76         0.0285
     19 H          30.2894    2.8627   55.4426 H         1 H76         0.0679
     20 H          30.9784    3.8252   53.4509 H         1 H76         0.2102
     21 H          31.9225    3.9461   56.9982 H         1 H76         0.0689
     22 H          32.8170    2.7526   55.2150 H         1 H76         0.2102
@<TRIPOS>BOND
     1    1    2 3  
     2    2    3 1  
     3    3    4 1  
     4    3    9 1  
     5    4    5 1  
     6    5    6 1  
     7    5    7 1  
     8    7    8 1  
     9    7    9 1  
    10    9   10 1  
    11    1   11 1  
    12    3   12 1  
    13    4   13 1  
    14    4   14 1  
    15    5   15 1  
    16    6   16 1  
    17    6   17 1  
    18    6   18 1  
    19    7   19 1  
    20    8   20 1  
    21    9   21 1  
    22   10   22 1  
@<TRIPOS>SUBSTRUCTURE
     1 H76         1

