### 
### Created by X-TOOL on Mon Sep 10 21:13:19 2018
### 

@<TRIPOS>MOLECULE
4pd6_ligand
   29    30     1     0     0
SMALL
GAST_HUCK


@<TRIPOS>ATOM
      1 N1         51.3240  -20.2550   -8.9720 N.am      1 URI        -0.1592
      2 C2         50.6500  -20.5480  -10.1420 C.2       1 URI         0.3328
      3 N3         49.5860  -21.4020   -9.9980 N.am      1 URI        -0.1865
      4 C4         49.1360  -21.9800   -8.8280 C.2       1 URI         0.1822
      5 C5         49.8840  -21.6290   -7.6610 C.2       1 URI         0.0062
      6 C6         50.9270  -20.7990   -7.7710 C.2       1 URI         0.0591
      7 O2         50.9660  -20.0930  -11.2260 O.2       1 URI        -0.3815
      8 O4         48.1610  -22.7280   -8.8620 O.2       1 URI        -0.4124
      9 C1'        52.4890  -19.3420   -9.0550 C.3       1 URI         0.2058
     10 C2'        52.0690  -17.8900   -9.2610 C.3       1 URI         0.1387
     11 C3'        52.0480  -17.3790   -7.8250 C.3       1 URI         0.1145
     12 C4'        53.2150  -18.1170   -7.1930 C.3       1 URI         0.1135
     13 O2'        53.0810  -17.2340  -10.0080 O.3       1 URI        -0.3836
     14 O3'        52.1570  -15.9710   -7.7290 O.3       1 URI        -0.3864
     15 O4'        53.2100  -19.4170   -7.8410 O.3       1 URI        -0.3367
     16 C5'        53.1510  -18.2980   -5.6940 C.3       1 URI         0.0730
     17 O5'        51.9010  -18.8360   -5.2900 O.3       1 URI        -0.3924
     18 H          49.0818  -21.6305  -10.8308 H         1 URI         0.2259
     19 H          49.6063  -22.0347   -6.6893 H         1 URI         0.0258
     20 H          51.4861  -20.5425   -6.8724 H         1 URI         0.1178
     21 H          53.1310  -19.6548   -9.8916 H         1 URI         0.0997
     22 H          51.0905  -17.7941   -9.7542 H         1 URI         0.0676
     23 H          51.1087  -17.6770   -7.3362 H         1 URI         0.0648
     24 H          54.1452  -17.5791   -7.4282 H         1 URI         0.0647
     25 H          52.9120  -16.2991  -10.0153 H         1 URI         0.2101
     26 H          52.1934  -15.7190   -6.8137 H         1 URI         0.2100
     27 H          53.2935  -17.3210   -5.2091 H         1 URI         0.0584
     28 H          53.9531  -18.9829   -5.3816 H         1 URI         0.0584
     29 H          51.2040  -18.2466   -5.5530 H         1 URI         0.2095
@<TRIPOS>BOND
     1    1    2 am 
     2    1    6 1  
     3    1    9 1  
     4    2    3 am 
     5    2    7 2  
     6    3    4 am 
     7    4    5 1  
     8    4    8 2  
     9    5    6 2  
    10    9   10 1  
    11    9   15 1  
    12   10   11 1  
    13   10   13 1  
    14   11   12 1  
    15   11   14 1  
    16   12   15 1  
    17   12   16 1  
    18   16   17 1  
    19    3   18 1  
    20    5   19 1  
    21    6   20 1  
    22    9   21 1  
    23   10   22 1  
    24   11   23 1  
    25   12   24 1  
    26   13   25 1  
    27   14   26 1  
    28   16   27 1  
    29   16   28 1  
    30   17   29 1  
@<TRIPOS>SUBSTRUCTURE
     1 URI         1

