### 
### Created by X-TOOL on Mon Sep 10 21:13:19 2018
### 

@<TRIPOS>MOLECULE
4pd7_ligand
   28    29     1     0     0
SMALL
GAST_HUCK


@<TRIPOS>ATOM
      1 N1         51.2010  -20.3080   -8.6090 N.am      1 ZE8        -0.1573
      2 C2         50.5480  -20.6020   -9.7900 C.2       1 ZE8         0.2723
      3 O2         50.8870  -20.0590  -10.8270 O.2       1 ZE8        -0.3992
      4 N3         49.5090  -21.5030   -9.8040 N.2       1 ZE8        -0.2676
      5 C4         49.1220  -22.1200   -8.6310 C.2       1 ZE8        -0.0066
      6 C5         49.8150  -21.8030   -7.4100 C.2       1 ZE8        -0.0114
      7 C6         50.8220  -20.9180   -7.4270 C.2       1 ZE8         0.0847
      8 C1'        52.3250  -19.3270   -8.5990 C.3       1 ZE8         0.2146
      9 C2'        51.8630  -17.8760   -8.6040 C.3       1 ZE8         0.1416
     10 O2'        52.7350  -17.1250   -9.4230 O.3       1 ZE8        -0.3833
     11 C3'        51.9000  -17.4870   -7.1380 C.3       1 ZE8         0.1149
     12 O3'        52.2240  -16.1140   -6.9690 O.3       1 ZE8        -0.3864
     13 C4'        52.9880  -18.3750   -6.5550 C.3       1 ZE8         0.1138
     14 O4'        53.1590  -19.4960   -7.4640 O.3       1 ZE8        -0.3343
     15 C5'        52.9060  -18.6560   -5.0680 C.3       1 ZE8         0.0730
     16 O5'        51.6440  -19.0700   -4.5610 O.3       1 ZE8        -0.3924
     17 H          48.3027  -22.8375   -8.6297 H         1 ZE8         0.0995
     18 H          49.5225  -22.2802   -6.4758 H         1 ZE8         0.0402
     19 H          51.3456  -20.6776   -6.5029 H         1 ZE8         0.1367
     20 H          52.9235  -19.5024   -9.5051 H         1 ZE8         0.1035
     21 H          50.8380  -17.7860   -8.9928 H         1 ZE8         0.0679
     22 H          53.6184  -17.1814   -9.0783 H         1 ZE8         0.2101
     23 H          50.9313  -17.6919   -6.6588 H         1 ZE8         0.0648
     24 H          52.2385  -15.9050   -6.0425 H         1 ZE8         0.2100
     25 H          53.9169  -17.7931   -6.6474 H         1 ZE8         0.0647
     26 H          53.1905  -17.7343   -4.5393 H         1 ZE8         0.0584
     27 H          53.6327  -19.4494   -4.8390 H         1 ZE8         0.0584
     28 H          50.9985  -18.3939   -4.7308 H         1 ZE8         0.2095
@<TRIPOS>BOND
     1    1    2 am 
     2    1    7 1  
     3    1    8 1  
     4    2    3 2  
     5    2    4 1  
     6    4    5 2  
     7    5    6 1  
     8    6    7 2  
     9    8    9 1  
    10    8   14 1  
    11    9   10 1  
    12    9   11 1  
    13   11   12 1  
    14   11   13 1  
    15   13   14 1  
    16   13   15 1  
    17   15   16 1  
    18    5   17 1  
    19    6   18 1  
    20    7   19 1  
    21    8   20 1  
    22    9   21 1  
    23   10   22 1  
    24   11   23 1  
    25   12   24 1  
    26   13   25 1  
    27   15   26 1  
    28   15   27 1  
    29   16   28 1  
@<TRIPOS>SUBSTRUCTURE
     1 ZE8         1

