### 
### Created by X-TOOL on Mon Sep 10 21:13:19 2018
### 

@<TRIPOS>MOLECULE
4pd8_ligand
   37    39     1     0     0
SMALL
GAST_HUCK


@<TRIPOS>ATOM
      1 C14       -16.2110  135.9030   -7.0620 C.2       1 P0C        -0.0421
      2 C16       -15.7820  133.7150   -6.6180 C.2       1 P0C         0.0080
      3 C17       -15.4590  132.4200   -5.8870 C.3       1 P0C        -0.0238
      4 O01       -19.8590  140.8620   -6.7320 O.3       1 P0C        -0.3864
      5 C02       -18.7790  139.9440   -6.8420 C.3       1 P0C         0.1138
      6 C03       -17.4760  140.4940   -6.2830 C.3       1 P0C         0.1128
      7 C04       -17.2640  140.2320   -4.8130 C.3       1 P0C         0.0730
      8 O05       -17.6700  138.9450   -4.3130 O.3       1 P0C        -0.3924
      9 O06       -16.4060  139.9230   -7.0930 O.3       1 P0C        -0.3435
     10 C07       -16.9600  139.3120   -8.2500 C.3       1 P0C         0.1755
     11 C08       -18.4370  139.6940   -8.2960 C.3       1 P0C         0.1308
     12 O09       -18.6890  140.8600   -9.0510 O.3       1 P0C        -0.3844
     13 N10       -16.7170  137.8610   -8.2550 N.am      1 P0C        -0.2246
     14 C11       -16.7800  137.1230   -9.4400 C.2       1 P0C         0.2878
     15 N12       -16.5580  135.7880   -9.4190 N.am      1 P0C        -0.2138
     16 C13       -16.2760  135.1630   -8.2730 C.2       1 P0C         0.1395
     17 C15       -15.9010  134.9880   -6.0360 C.2       1 P0C        -0.1042
     18 N18       -16.0100  133.8510   -7.9670 N.pl3     1 P0C        -0.2794
     19 C19       -16.4310  137.2240   -7.0760 C.3       1 P0C         0.0408
     20 O20       -17.0390  137.6750  -10.5190 O.2       1 P0C        -0.3930
     21 H         -15.3292  132.6270   -4.8145 H         1 P0C         0.0364
     22 H         -14.5306  131.9916   -6.2927 H         1 P0C         0.0364
     23 H         -16.2837  131.7053   -6.0253 H         1 P0C         0.0364
     24 H         -20.0021  141.0727   -5.8168 H         1 P0C         0.2100
     25 H         -19.0521  139.0072   -6.3342 H         1 P0C         0.0647
     26 H         -17.4783  141.5854   -6.4201 H         1 P0C         0.0647
     27 H         -17.8250  140.9965   -4.2555 H         1 P0C         0.0584
     28 H         -16.1891  140.3435   -4.6078 H         1 P0C         0.0584
     29 H         -18.6009  138.8279   -4.4620 H         1 P0C         0.2095
     30 H         -16.4689  139.7308   -9.1407 H         1 P0C         0.0896
     31 H         -19.0330  138.8650   -8.7054 H         1 P0C         0.0668
     32 H         -19.6206  141.0461   -9.0428 H         1 P0C         0.2101
     33 H         -16.6056  135.2646  -10.2698 H         1 P0C         0.2202
     34 H         -15.7760  135.2254   -4.9806 H         1 P0C         0.0095
     35 H         -15.9849  133.0801   -8.6496 H         1 P0C         0.2234
     36 H         -15.5265  137.7003   -6.6697 H         1 P0C         0.0556
     37 H         -17.2789  137.4113   -6.4008 H         1 P0C         0.0556
@<TRIPOS>BOND
     1    1   16 2  
     2    1   17 1  
     3   19    1 1  
     4    2    3 1  
     5   17    2 2  
     6    2   18 1  
     7    5    4 1  
     8    5    6 1  
     9   11    5 1  
    10    6    7 1  
    11    9    6 1  
    12    7    8 1  
    13   10    9 1  
    14   10   11 1  
    15   13   10 1  
    16   11   12 1  
    17   13   14 am 
    18   13   19 1  
    19   14   15 am 
    20   14   20 2  
    21   15   16 1  
    22   16   18 1  
    23    3   21 1  
    24    3   22 1  
    25    3   23 1  
    26    4   24 1  
    27    5   25 1  
    28    6   26 1  
    29    7   27 1  
    30    7   28 1  
    31    8   29 1  
    32   10   30 1  
    33   11   31 1  
    34   12   32 1  
    35   15   33 1  
    36   17   34 1  
    37   18   35 1  
    38   19   36 1  
    39   19   37 1  
@<TRIPOS>SUBSTRUCTURE
     1 P0C         1

