### 
### Created by X-TOOL on Mon Sep 10 21:13:20 2018
### 

@<TRIPOS>MOLECULE
4pd9_ligand
   32    34     1     0     0
SMALL
GAST_HUCK


@<TRIPOS>ATOM
      1 O5'        52.1610  -18.7870   -1.9380 O.3       1 ADN        -0.3924
      2 C5'        53.3860  -18.1950   -2.3480 C.3       1 ADN         0.0730
      3 C4'        53.4940  -18.1350   -3.8510 C.3       1 ADN         0.1135
      4 O4'        53.4820  -19.4790   -4.3970 O.3       1 ADN        -0.3368
      5 C3'        52.3550  -17.4330   -4.5730 C.3       1 ADN         0.1146
      6 O3'        52.4910  -16.0220   -4.5770 O.3       1 ADN        -0.3864
      7 C2'        52.4070  -18.0520   -5.9630 C.3       1 ADN         0.1385
      8 O2'        53.4400  -17.4600   -6.7370 O.3       1 ADN        -0.3836
      9 C1'        52.8110  -19.4910   -5.6380 C.3       1 ADN         0.2010
     10 N9         51.6430  -20.3850   -5.5310 N.pl3     1 ADN        -0.1919
     11 C8         51.0860  -20.9110   -4.3910 C.2       1 ADN         0.1123
     12 N7         50.0480  -21.6810   -4.6150 N.2       1 ADN        -0.2958
     13 C5         49.9140  -21.6610   -5.9970 C.ar      1 ADN         0.1045
     14 C6         49.0000  -22.2800   -6.8680 C.ar      1 ADN         0.1298
     15 N6         48.0070  -23.0710   -6.4570 N.pl3     1 ADN        -0.3152
     16 N1         49.1430  -22.0530   -8.1930 N.ar      1 ADN        -0.2698
     17 C2         50.1390  -21.2590   -8.6050 C.ar      1 ADN         0.0533
     18 N3         51.0600  -20.6220   -7.8850 N.ar      1 ADN        -0.2714
     19 C4         50.8900  -20.8680   -6.5740 C.ar      1 ADN         0.1613
     20 H          51.4350  -18.2735   -2.2722 H         1 ADN         0.2095
     21 H          54.2214  -18.7917   -1.9530 H         1 ADN         0.0584
     22 H          53.4422  -17.1733   -1.9444 H         1 ADN         0.0584
     23 H          54.4393  -17.6313   -4.1012 H         1 ADN         0.0647
     24 H          51.3971  -17.6782   -4.0910 H         1 ADN         0.0648
     25 H          52.5067  -15.7040   -3.6820 H         1 ADN         0.2100
     26 H          51.4405  -17.9886   -6.4844 H         1 ADN         0.0676
     27 H          53.2767  -16.5279   -6.8210 H         1 ADN         0.2101
     28 H          53.4815  -19.8667   -6.4249 H         1 ADN         0.0996
     29 H          51.4708  -20.7075   -3.3928 H         1 ADN         0.1349
     30 H          47.3689  -23.4962   -7.1448 H         1 ADN         0.1820
     31 H          47.8786  -23.2564   -5.4520 H         1 ADN         0.1820
     32 H          50.2050  -21.1142   -9.6773 H         1 ADN         0.0996
@<TRIPOS>BOND
     1    1    2 1  
     2    2    3 1  
     3    3    4 1  
     4    3    5 1  
     5    4    9 1  
     6    5    6 1  
     7    5    7 1  
     8    7    8 1  
     9    7    9 1  
    10    9   10 1  
    11   10   11 1  
    12   10   19 1  
    13   11   12 2  
    14   12   13 1  
    15   13   14 ar 
    16   13   19 ar 
    17   14   15 1  
    18   14   16 ar 
    19   16   17 ar 
    20   17   18 ar 
    21   18   19 ar 
    22    1   20 1  
    23    2   21 1  
    24    2   22 1  
    25    3   23 1  
    26    5   24 1  
    27    6   25 1  
    28    7   26 1  
    29    8   27 1  
    30    9   28 1  
    31   11   29 1  
    32   15   30 1  
    33   15   31 1  
    34   17   32 1  
@<TRIPOS>SUBSTRUCTURE
     1 ADN         1

