### 
### Created by X-TOOL on Mon Sep 10 21:13:19 2018
### 

@<TRIPOS>MOLECULE
4pda_ligand
   31    32     1     0     0
SMALL
GAST_HUCK


@<TRIPOS>ATOM
      1 O5'        52.0290  -19.1730   -4.0200 O.3       1 CTN        -0.3924
      2 C5'        53.2460  -18.6110   -4.4880 C.3       1 CTN         0.0730
      3 C4'        53.2110  -18.3750   -5.9770 C.3       1 CTN         0.1134
      4 O4'        53.1310  -19.6440   -6.6750 O.3       1 CTN        -0.3380
      5 C1'        52.3650  -19.4990   -7.8530 C.3       1 CTN         0.1988
      6 N1         51.2060  -20.4190   -7.7850 N.am      1 CTN        -0.1787
      7 C6         50.7990  -20.9530   -6.5930 C.2       1 CTN         0.0347
      8 C5         49.7530  -21.7880   -6.5280 C.2       1 CTN         0.0021
      9 C4         49.0860  -22.0990   -7.7490 C.cat     1 CTN         0.2477
     10 N3         49.4750  -21.5870   -8.9170 N.am      1 CTN        -0.1994
     11 C2         50.5330  -20.7450   -8.9680 C.2       1 CTN         0.3024
     12 O2         50.9200  -20.2520  -10.0390 O.2       1 CTN        -0.3877
     13 N4         48.0370  -22.9250   -7.7490 N.pl3     1 CTN        -0.2260
     14 C2'        51.9400  -18.0320   -7.9550 C.3       1 CTN         0.1370
     15 O2'        52.9010  -17.3400   -8.7390 O.3       1 CTN        -0.3838
     16 C3'        52.0180  -17.5920   -6.5000 C.3       1 CTN         0.1144
     17 O3'        52.1660  -16.1920   -6.3420 O.3       1 CTN        -0.3864
     18 H          51.3125  -18.5800   -4.2137 H         1 CTN         0.2095
     19 H          54.0707  -19.3006   -4.2550 H         1 CTN         0.0584
     20 H          53.4155  -17.6511   -3.9782 H         1 CTN         0.0584
     21 H          54.1344  -17.8460   -6.2554 H         1 CTN         0.0647
     22 H          52.9757  -19.7590   -8.7301 H         1 CTN         0.0976
     23 H          51.3347  -20.6948   -5.6807 H         1 CTN         0.0999
     24 H          49.4254  -22.2122   -5.5800 H         1 CTN         0.0163
     25 H          48.9848  -21.8253   -9.7554 H         1 CTN         0.1927
     26 H          47.7080  -23.3397   -6.8654 H         1 CTN         0.4596
     27 H          47.5567  -23.1476   -8.6326 H         1 CTN         0.4596
     28 H          50.9303  -17.9099   -8.3739 H         1 CTN         0.0674
     29 H          52.6505  -16.4265   -8.8114 H         1 CTN         0.2101
     30 H          51.1052  -17.8975   -5.9676 H         1 CTN         0.0648
     31 H          52.2084  -15.9816   -5.4165 H         1 CTN         0.2100
@<TRIPOS>BOND
     1    1    2 1  
     2    2    3 1  
     3    3    4 1  
     4    3   16 1  
     5    4    5 1  
     6    5    6 1  
     7    5   14 1  
     8    6    7 1  
     9    6   11 am 
    10    7    8 2  
    11    8    9 1  
    12    9   10 ar 
    13    9   13 ar 
    14   10   11 am 
    15   11   12 2  
    16   14   15 1  
    17   14   16 1  
    18   16   17 1  
    19    1   18 1  
    20    2   19 1  
    21    2   20 1  
    22    3   21 1  
    23    5   22 1  
    24    7   23 1  
    25    8   24 1  
    26   10   25 1  
    27   13   26 1  
    28   13   27 1  
    29   14   28 1  
    30   15   29 1  
    31   16   30 1  
    32   17   31 1  
@<TRIPOS>SUBSTRUCTURE
     1 CTN         1

