### 
### Created by X-TOOL on Mon Sep 10 21:13:18 2018
### 

@<TRIPOS>MOLECULE
4pee_ligand
   36    38     1     0     0
SMALL
GAST_HUCK


@<TRIPOS>ATOM
      1 CAO        34.4200    9.4790   58.9590 C.ar      1 2OX        -0.0240
      2 CAP        34.9520   10.5960   59.6060 C.ar      1 2OX        -0.0651
      3 CAQ        34.1010   11.6240   60.0280 C.ar      1 2OX        -0.0681
      4 CAR        32.7230   11.5300   59.8020 C.ar      1 2OX        -0.0651
      5 CAS        32.1930   10.4040   59.1500 C.ar      1 2OX        -0.0240
      6 CAN        33.0290    9.3510   58.7270 C.ar      1 2OX         0.1173
      7 NAK        32.5630    8.2640   58.0480 N.pl3     1 2OX        -0.1373
      8 CAJ        31.4890    8.1310   57.2470 C.2       1 2OX         0.0897
      9 NAL        33.1740    7.1490   58.0000 N.2       1 2OX        -0.0891
     10 NAM        32.6000    6.3060   57.2820 N.2       1 2OX        -0.2188
     11 CAF        31.5130    6.8730   56.7970 C.2       1 2OX         0.0893
     12 CAD        30.5160    6.1500   55.7880 C.3       1 2OX         0.0424
     13 NAE        29.0640    6.3120   56.0150 N.4       1 2OX         0.2441
     14 CAA        28.4920    4.9440   56.0290 C.3       1 2OX         0.0051
     15 CAG        27.0340    4.9470   55.5930 C.3       1 2OX        -0.0191
     16 CAB        29.4180    4.1960   55.0580 C.3       1 2OX         0.1296
     17 OAH        29.1440    4.7360   53.6790 O.3       1 2OX        -0.3833
     18 CAC        30.7180    4.6210   55.7130 C.3       1 2OX         0.1353
     19 OAI        31.9130    4.1510   54.9620 O.3       1 2OX        -0.3818
     20 H          35.0870    8.6918   58.6267 H         1 2OX         0.0593
     21 H          36.0195   10.6668   59.7807 H         1 2OX         0.0602
     22 H          34.5095   12.4935   60.5302 H         1 2OX         0.0563
     23 H          32.0645   12.3261   60.1301 H         1 2OX         0.0602
     24 H          31.1258   10.3442   58.9697 H         1 2OX         0.0593
     25 H          30.7493    8.8952   57.0129 H         1 2OX         0.0910
     26 H          30.7407    6.5744   54.7984 H         1 2OX         0.0997
     27 H          28.6527    6.8550   55.2721 H         1 2OX         0.2031
     28 H          28.8972    6.7694   56.8976 H         1 2OX         0.2031
     29 H          28.5562    4.5040   57.0351 H         1 2OX         0.0874
     30 H          26.6426    3.9192   55.6150 H         1 2OX         0.0285
     31 H          26.9577    5.3466   54.5710 H         1 2OX         0.0285
     32 H          26.4478    5.5773   56.2779 H         1 2OX         0.0285
     33 H          29.2905    3.1035   55.0656 H         1 2OX         0.0680
     34 H          29.7020    4.2936   53.0502 H         1 2OX         0.2102
     35 H          30.7871    4.2082   56.7303 H         1 2OX         0.0696
     36 H          31.9039    3.2021   54.9163 H         1 2OX         0.2103
@<TRIPOS>BOND
     1    1    2 ar 
     2    1    6 ar 
     3    2    3 ar 
     4    3    4 ar 
     5    4    5 ar 
     6    5    6 ar 
     7    6    7 1  
     8    7    8 1  
     9    7    9 1  
    10    8   11 2  
    11    9   10 2  
    12   10   11 1  
    13   11   12 1  
    14   12   13 1  
    15   12   18 1  
    16   13   14 1  
    17   14   15 1  
    18   14   16 1  
    19   16   17 1  
    20   16   18 1  
    21   18   19 1  
    22    1   20 1  
    23    2   21 1  
    24    3   22 1  
    25    4   23 1  
    26    5   24 1  
    27    8   25 1  
    28   12   26 1  
    29   13   27 1  
    30   13   28 1  
    31   14   29 1  
    32   15   30 1  
    33   15   31 1  
    34   15   32 1  
    35   16   33 1  
    36   17   34 1  
    37   18   35 1  
    38   19   36 1  
@<TRIPOS>SUBSTRUCTURE
     1 2OX         1

