### 
### Created by X-TOOL on Mon Sep 10 21:13:16 2018
### 

@<TRIPOS>MOLECULE
4pf3_ligand
   48    51     1     0     0
SMALL
GAST_HUCK


@<TRIPOS>ATOM
      1 N1         -0.4490   30.3940   38.6280 N.pl3     1 HFN        -0.2030
      2 N3         -0.8050   29.1720   45.4360 N.am      1 HFN        -0.2352
      3 C4         -0.3650   29.7270   43.1400 C.ar      1 HFN        -0.0493
      4 C5          0.4920   30.1780   42.1190 C.ar      1 HFN        -0.0584
      5 C6          1.8040   30.5740   42.4110 C.ar      1 HFN        -0.0848
      6 C7          2.2390   30.5170   43.7450 C.ar      1 HFN        -0.0487
      7 C8          0.0480   29.6540   44.4480 C.ar      1 HFN         0.0926
      8 C10         0.7860   29.9450   47.0890 C.3       1 HFN         0.1607
      9 C13         0.1990   33.2820   40.6430 C.ar      1 HFN        -0.0532
     10 C15         1.6380   34.9060   39.6880 C.ar      1 HFN         0.1330
     11 C17         1.6050   32.7320   38.7280 C.ar      1 HFN        -0.0532
     12 C20        -2.2830   31.4280   37.3050 C.3       1 HFN         0.2991
     13 C21        -3.3200   30.3210   37.4620 C.3       1 HFN         0.1102
     14 F3         -2.5130   32.2680   38.3520 F         1 HFN        -0.2000
     15 F2         -2.5300   32.0870   36.1850 F         1 HFN        -0.2000
     16 O3         -3.1830   29.3370   36.4550 O.3       1 HFN        -0.3890
     17 C19        -0.8110   30.9240   37.3080 C.3       1 HFN         0.1323
     18 N2         -0.8770   29.1230   38.9070 N.2       1 HFN        -0.2225
     19 C3         -0.6250   28.9360   40.2070 C.2       1 HFN         0.0182
     20 C18        -0.9420   27.6410   40.8900 C.3       1 HFN        -0.0258
     21 C1         -0.0050   30.0900   40.7410 C.2       1 HFN         0.0021
     22 C2          0.0810   30.9870   39.7130 C.2       1 HFN         0.0939
     23 C12         0.6410   32.3760   39.6890 C.ar      1 HFN         0.0062
     24 C16         2.1190   34.0180   38.7350 C.ar      1 HFN        -0.0273
     25 F1          2.0980   36.1700   39.6770 F         1 HFN        -0.1828
     26 C14         0.7020   34.5650   40.6530 C.ar      1 HFN        -0.0273
     27 C9          1.3600   30.0470   44.7420 C.ar      1 HFN         0.1127
     28 O1          1.7830   29.9150   46.0410 O.3       1 HFN        -0.3050
     29 C11        -0.4930   29.2020   46.7140 C.2       1 HFN         0.2312
     30 O2         -1.1920   28.6890   47.5480 O.2       1 HFN        -0.3833
     31 H          -1.6879   28.7886   45.1648 H         1 HFN         0.2222
     32 H          -1.3765   29.4297   42.8879 H         1 HFN         0.0420
     33 H           2.4678   30.9164   41.6254 H         1 HFN         0.0428
     34 H           3.2428   30.8319   44.0061 H         1 HFN         0.0491
     35 H           0.5327   30.9939   47.3024 H         1 HFN         0.0858
     36 H           1.2106   29.4795   47.9907 H         1 HFN         0.0858
     37 H          -0.5393   32.9815   41.3777 H         1 HFN         0.0614
     38 H           1.9407   32.0099   37.9925 H         1 HFN         0.0614
     39 H          -4.3259   30.7614   37.3971 H         1 HFN         0.0618
     40 H          -3.1903   29.8463   38.4458 H         1 HFN         0.0618
     41 H          -3.2986   29.7398   35.6024 H         1 HFN         0.2096
     42 H          -0.6997   30.1288   36.5562 H         1 HFN         0.0688
     43 H          -0.1420   31.7607   37.0585 H         1 HFN         0.0688
     44 H          -0.6550   27.7057   41.9499 H         1 HFN         0.0381
     45 H          -0.3828   26.8256   40.4078 H         1 HFN         0.0381
     46 H          -2.0209   27.4408   40.8139 H         1 HFN         0.0381
     47 H           2.8736   34.3220   38.0186 H         1 HFN         0.0606
     48 H           0.3757   35.2865   41.3933 H         1 HFN         0.0606
@<TRIPOS>BOND
     1    1   17 1  
     2    1   18 1  
     3   22    1 1  
     4    7    2 1  
     5    2   29 am 
     6    4    3 ar 
     7    3    7 ar 
     8    4    5 ar 
     9   21    4 1  
    10    5    6 ar 
    11    6   27 ar 
    12    7   27 ar 
    13    8   28 1  
    14   29    8 1  
    15   23    9 ar 
    16    9   26 ar 
    17   24   10 ar 
    18   10   25 1  
    19   26   10 ar 
    20   23   11 ar 
    21   11   24 ar 
    22   12   13 1  
    23   12   14 1  
    24   12   15 1  
    25   17   12 1  
    26   13   16 1  
    27   19   18 2  
    28   19   20 1  
    29   21   19 1  
    30   22   21 2  
    31   22   23 1  
    32   27   28 1  
    33   29   30 2  
    34    2   31 1  
    35    3   32 1  
    36    5   33 1  
    37    6   34 1  
    38    8   35 1  
    39    8   36 1  
    40    9   37 1  
    41   11   38 1  
    42   13   39 1  
    43   13   40 1  
    44   16   41 1  
    45   17   42 1  
    46   17   43 1  
    47   20   44 1  
    48   20   45 1  
    49   20   46 1  
    50   24   47 1  
    51   26   48 1  
@<TRIPOS>SUBSTRUCTURE
     1 HFN         1

