### 
### Created by X-TOOL on Mon Sep 10 21:13:17 2018
### 

@<TRIPOS>MOLECULE
4pf5_ligand
   33    34     1     0     0
SMALL
GAST_HUCK


@<TRIPOS>ATOM
      1 C1        -16.3440  -14.6490  -32.0560 C.3       1 M3N         0.2151
      2 C2        -14.8740  -14.8960  -31.7900 C.3       1 M3N         0.1413
      3 O2        -14.6840  -16.2730  -31.5280 O.3       1 M3N        -0.3833
      4 C3        -14.0210  -14.4810  -32.9540 C.3       1 M3N         0.1148
      5 O3        -12.7010  -14.8990  -32.7310 O.3       1 M3N        -0.3864
      6 C4        -14.5390  -15.0280  -34.2690 C.3       1 M3N         0.1119
      7 O4        -13.8100  -14.4330  -35.3330 O.3       1 M3N        -0.3865
      8 C5        -15.9950  -14.6600  -34.4680 C.3       1 M3N         0.1136
      9 O5        -16.7720  -15.0200  -33.3750 O.3       1 M3N        -0.3346
     10 C6        -16.5280  -15.4570  -35.6880 C.3       1 M3N         0.0730
     11 O6        -16.6390  -16.8490  -35.3030 O.3       1 M3N        -0.3924
     12 C01       -18.0120  -11.4500  -31.6300 C.2       1 M3N         0.0623
     13 C02       -17.6070  -12.5140  -32.4270 C.2       1 M3N         0.0744
     14 N03       -16.9000  -13.3800  -31.6620 N.pl3     1 M3N        -0.1506
     15 N04       -16.9110  -12.8810  -30.3970 N.2       1 M3N        -0.0996
     16 N05       -17.5860  -11.6850  -30.3910 N.2       1 M3N        -0.2241
     17 C03       -18.8300  -10.2360  -32.0920 C.3       1 M3N         0.0790
     18 O01       -19.7340  -10.7550  -33.0590 O.3       1 M3N        -0.3862
     19 H         -16.8435  -15.3697  -31.3919 H         1 M3N         0.1031
     20 H         -14.5708  -14.3142  -30.9071 H         1 M3N         0.0679
     21 H         -15.1959  -16.5231  -30.7679 H         1 M3N         0.2101
     22 H         -14.0343  -13.3828  -33.0155 H         1 M3N         0.0648
     23 H         -12.3728  -14.4969  -31.9353 H         1 M3N         0.2100
     24 H         -14.4210  -16.1215  -34.2873 H         1 M3N         0.0647
     25 H         -14.1288  -14.7709  -36.1616 H         1 M3N         0.2100
     26 H         -16.0812  -13.5779  -34.6459 H         1 M3N         0.0647
     27 H         -15.8294  -15.3583  -36.5319 H         1 M3N         0.0584
     28 H         -17.5154  -15.0718  -35.9824 H         1 M3N         0.0584
     29 H         -15.7841  -17.1747  -35.0469 H         1 M3N         0.2095
     30 H         -17.8219  -12.6318  -33.4881 H         1 M3N         0.0900
     31 H         -18.1749   -9.4758  -32.5425 H         1 M3N         0.0674
     32 H         -19.3781   -9.7936  -31.2471 H         1 M3N         0.0674
     33 H         -20.2826  -11.4170  -32.6548 H         1 M3N         0.2118
@<TRIPOS>BOND
     1    1    2 1  
     2    1    9 1  
     3   14    1 1  
     4    2    3 1  
     5    2    4 1  
     6    4    5 1  
     7    4    6 1  
     8    6    7 1  
     9    8    6 1  
    10    9    8 1  
    11    8   10 1  
    12   10   11 1  
    13   13   12 2  
    14   12   16 1  
    15   12   17 1  
    16   13   14 1  
    17   14   15 1  
    18   15   16 2  
    19   17   18 1  
    20    1   19 1  
    21    2   20 1  
    22    3   21 1  
    23    4   22 1  
    24    5   23 1  
    25    6   24 1  
    26    7   25 1  
    27    8   26 1  
    28   10   27 1  
    29   10   28 1  
    30   11   29 1  
    31   13   30 1  
    32   17   31 1  
    33   17   32 1  
    34   18   33 1  
@<TRIPOS>SUBSTRUCTURE
     1 M3N         1

