### 
### Created by X-TOOL on Mon Sep 10 21:13:16 2018
### 

@<TRIPOS>MOLECULE
4pft_ligand
   43    44     1     0     0
SMALL
GAST_HUCK


@<TRIPOS>ATOM
      1 C1A       123.7010  102.7260   11.4060 C.2       1 MAB         0.2660
      2 C2A       125.0530  102.4110   11.9460 C.3       1 MAB         0.1832
      3 C3A       124.6340  101.0740   12.4780 C.3       1 MAB         0.1284
      4 C4A       123.4910  101.2310   13.4760 C.3       1 MAB         0.1249
      5 C5A       122.3170  101.9960   12.8860 C.3       1 MAB         0.1393
      6 C6A       121.1480  102.1940   13.8260 C.3       1 MAB         0.0774
      7 O2A       125.4320  103.2300   13.0600 O.3       1 MAB        -0.3674
      8 O3A       125.7570  100.3940   13.0460 O.3       1 MAB        -0.3840
      9 O4A       123.0260   99.8930   13.8420 O.3       1 MAB        -0.3396
     10 O5A       122.7650  103.3120   12.3800 O.3       1 MAB        -0.2665
     11 O6A       120.0360  102.7660   13.1300 O.3       1 MAB        -0.3920
     12 C1B       123.2900   99.6360   15.2030 C.3       1 MAB         0.1885
     13 C2B       122.4980   98.4410   15.6730 C.3       1 MAB         0.1341
     14 C3B       122.8670   98.0690   17.0860 C.3       1 MAB         0.1141
     15 C4B       124.3550   97.8870   17.2660 C.3       1 MAB         0.1119
     16 C5B       125.0790   99.1400   16.7530 C.3       1 MAB         0.1130
     17 C6B       126.5810   99.1050   16.8720 C.3       1 MAB         0.0730
     18 O2B       122.7880   97.3460   14.7400 O.3       1 MAB        -0.3841
     19 O3B       122.1850   96.8290   17.4490 O.3       1 MAB        -0.3864
     20 O4B       124.6470   97.7060   18.6600 O.3       1 MAB        -0.3865
     21 O5B       124.7430   99.3860   15.3630 O.3       1 MAB        -0.3405
     22 O6B       127.1250   97.9720   16.1940 O.3       1 MAB        -0.3924
     23 O1A       123.5320  103.0340   10.1080 O.2       1 MAB        -0.3674
     24 H         125.8445  102.3857   11.1826 H         1 MAB         0.0881
     25 H         124.2647  100.4699   11.6362 H         1 MAB         0.0673
     26 H         123.8574  101.7606   14.3678 H         1 MAB         0.0656
     27 H         121.9494  101.4093   12.0312 H         1 MAB         0.0700
     28 H         121.4496  102.8675   14.6418 H         1 MAB         0.0587
     29 H         120.8513  101.2210   14.2445 H         1 MAB         0.0587
     30 H         126.1528  102.8193   13.5229 H         1 MAB         0.2136
     31 H         126.4431  100.3180   12.3933 H         1 MAB         0.2102
     32 H         120.2886  103.6079   12.7694 H         1 MAB         0.2095
     33 H         123.0034  100.5132   15.8016 H         1 MAB         0.0938
     34 H         121.4239   98.6758   15.6403 H         1 MAB         0.0671
     35 H         122.5315   98.8739   17.7565 H         1 MAB         0.0648
     36 H         124.6921   97.0060   16.7001 H         1 MAB         0.0647
     37 H         124.7194   99.9887   17.3533 H         1 MAB         0.0647
     38 H         126.8558   99.0529   17.9358 H         1 MAB         0.0584
     39 H         126.9977  100.0221   16.4301 H         1 MAB         0.0584
     40 H         122.5457   97.6089   13.8598 H         1 MAB         0.2101
     41 H         122.3740   96.6188   18.3560 H         1 MAB         0.2100
     42 H         125.5842   97.6014   18.7751 H         1 MAB         0.2100
     43 H         126.7712   97.1767   16.5745 H         1 MAB         0.2095
@<TRIPOS>BOND
     1    1    2 1  
     2    1   10 1  
     3    1   23 2  
     4    2    3 1  
     5    2    7 1  
     6    3    4 1  
     7    3    8 1  
     8    4    5 1  
     9    4    9 1  
    10    5    6 1  
    11    5   10 1  
    12    6   11 1  
    13    9   12 1  
    14   12   13 1  
    15   12   21 1  
    16   13   14 1  
    17   13   18 1  
    18   14   15 1  
    19   14   19 1  
    20   15   16 1  
    21   15   20 1  
    22   16   17 1  
    23   16   21 1  
    24   17   22 1  
    25    2   24 1  
    26    3   25 1  
    27    4   26 1  
    28    5   27 1  
    29    6   28 1  
    30    6   29 1  
    31    7   30 1  
    32    8   31 1  
    33   11   32 1  
    34   12   33 1  
    35   13   34 1  
    36   14   35 1  
    37   15   36 1  
    38   16   37 1  
    39   17   38 1  
    40   17   39 1  
    41   18   40 1  
    42   19   41 1  
    43   20   42 1  
    44   22   43 1  
@<TRIPOS>SUBSTRUCTURE
     1 MAB         1

