### 
### Created by X-TOOL on Mon Sep 10 21:13:17 2018
### 

@<TRIPOS>MOLECULE
4pfu_ligand
   45    46     1     0     0
SMALL
GAST_HUCK


@<TRIPOS>ATOM
      1 C1A       -34.8500  -57.1570   17.6360 C.3       1 MAB         0.1854
      2 C2A       -34.6410  -57.5790   16.2010 C.3       1 MAB         0.1339
      3 C3A       -35.3360  -56.6700   15.2180 C.3       1 MAB         0.1144
      4 C4A       -36.7720  -56.4140   15.6250 C.3       1 MAB         0.1184
      5 C5A       -36.7690  -55.8780   17.0270 C.3       1 MAB         0.1134
      6 C6A       -38.1220  -55.3930   17.4990 C.3       1 MAB         0.0730
      7 O2A       -35.1970  -58.8860   16.0480 O.3       1 MAB        -0.3841
      8 O3A       -35.2400  -57.2700   13.9150 O.3       1 MAB        -0.3864
      9 O4A       -37.4370  -55.4240   14.7840 O.3       1 MAB        -0.3401
     10 O5A       -36.2930  -56.9540   17.9020 O.3       1 MAB        -0.3407
     11 O6A       -39.0370  -56.4730   17.4730 O.3       1 MAB        -0.3924
     12 C1B       -38.3380  -56.0280   13.8930 C.3       1 MAB         0.1884
     13 C2B       -39.2690  -54.9830   13.3180 C.3       1 MAB         0.1341
     14 C3B       -40.0950  -55.5410   12.2100 C.3       1 MAB         0.1141
     15 C4B       -39.2750  -56.2420   11.1670 C.3       1 MAB         0.1119
     16 C5B       -38.3960  -57.2870   11.8390 C.3       1 MAB         0.1130
     17 C6B       -37.5420  -58.0020   10.8310 C.3       1 MAB         0.0730
     18 O2B       -38.4660  -53.8950   12.7680 O.3       1 MAB        -0.3841
     19 O3B       -40.8580  -54.4480   11.5970 O.3       1 MAB        -0.3864
     20 O4B       -40.1510  -56.9180   10.2710 O.3       1 MAB        -0.3865
     21 O5B       -37.5360  -56.6420   12.8200 O.3       1 MAB        -0.3405
     22 O6B       -36.7440  -57.0440   10.1280 O.3       1 MAB        -0.3924
     23 O1A       -34.3970  -58.1030   18.5230 O.3       1 MAB        -0.3649
     24 H         -34.3088  -56.2147   17.8068 H         1 MAB         0.0935
     25 H         -33.5633  -57.5949   15.9811 H         1 MAB         0.0671
     26 H         -34.8119  -55.7031   15.1984 H         1 MAB         0.0648
     27 H         -37.3316  -57.3600   15.5810 H         1 MAB         0.0651
     28 H         -36.0681  -55.0317   17.0761 H         1 MAB         0.0647
     29 H         -38.4786  -54.5923   16.8344 H         1 MAB         0.0584
     30 H         -38.0372  -55.0069   18.5255 H         1 MAB         0.0584
     31 H         -34.7762  -59.4813   16.6572 H         1 MAB         0.2101
     32 H         -35.6311  -56.6910   13.2714 H         1 MAB         0.2100
     33 H         -38.7266  -57.1634   18.0470 H         1 MAB         0.2095
     34 H         -38.9264  -56.7985   14.4127 H         1 MAB         0.0938
     35 H         -39.9273  -54.6032   14.1132 H         1 MAB         0.0671
     36 H         -40.7987  -56.2705   12.6373 H         1 MAB         0.0648
     37 H         -38.6551  -55.5153   10.6215 H         1 MAB         0.0647
     38 H         -39.0396  -58.0203   12.3469 H         1 MAB         0.0647
     39 H         -38.1852  -58.5391   10.1184 H         1 MAB         0.0584
     40 H         -36.8867  -58.7195   11.3465 H         1 MAB         0.0584
     41 H         -39.0406  -53.2262   12.4144 H         1 MAB         0.2101
     42 H         -41.4351  -54.8013   10.9301 H         1 MAB         0.2100
     43 H         -39.6389  -57.3849    9.6212 H         1 MAB         0.2100
     44 H         -36.2022  -57.4925    9.4893 H         1 MAB         0.2095
     45 H         -34.8766  -58.9127   18.3930 H         1 MAB         0.2126
@<TRIPOS>BOND
     1    1    2 1  
     2    1   10 1  
     3    1   23 1  
     4    2    3 1  
     5    2    7 1  
     6    3    4 1  
     7    3    8 1  
     8    4    5 1  
     9    4    9 1  
    10    5    6 1  
    11    5   10 1  
    12    6   11 1  
    13    9   12 1  
    14   12   13 1  
    15   12   21 1  
    16   13   14 1  
    17   13   18 1  
    18   14   15 1  
    19   14   19 1  
    20   15   16 1  
    21   15   20 1  
    22   16   17 1  
    23   16   21 1  
    24   17   22 1  
    25    1   24 1  
    26    2   25 1  
    27    3   26 1  
    28    4   27 1  
    29    5   28 1  
    30    6   29 1  
    31    6   30 1  
    32    7   31 1  
    33    8   32 1  
    34   11   33 1  
    35   12   34 1  
    36   13   35 1  
    37   14   36 1  
    38   15   37 1  
    39   16   38 1  
    40   17   39 1  
    41   17   40 1  
    42   18   41 1  
    43   19   42 1  
    44   20   43 1  
    45   22   44 1  
    46   23   45 1  
@<TRIPOS>SUBSTRUCTURE
     1 MAB         1

