### 
### Created by X-TOOL on Mon Sep 10 21:13:18 2018
### 

@<TRIPOS>MOLECULE
4pg3_ligand
   41    43     1     0     0
SMALL
GAST_HUCK


@<TRIPOS>ATOM
      1 O4        -45.2090   34.3780   -6.8770 O.2       1 KRS        -0.3727
      2 C8        -45.5640   35.3240   -7.5500 C.2       1 KRS         0.2447
      3 C9        -44.7760   36.5160   -7.7110 C.ar      1 KRS         0.0804
      4 C5        -45.2550   37.5700   -8.4710 C.ar      1 KRS        -0.0346
      5 C4        -44.4880   38.6970   -8.6140 C.ar      1 KRS        -0.0364
      6 C3        -43.2500   38.7590   -8.0020 C.ar      1 KRS         0.0783
      7 O2        -42.5200   39.8860   -8.1660 O.3       1 KRS        -0.3340
      8 C2        -42.7680   37.7290   -7.2570 C.ar      1 KRS        -0.0057
      9 C1        -43.5200   36.6180   -7.1120 C.ar      1 KRS         0.0962
     10 O1        -43.0080   35.6070   -6.3610 O.3       1 KRS        -0.3317
     11 O3        -46.7960   35.2850   -8.0450 O.3       1 KRS        -0.2762
     12 C7        -47.1410   36.0640   -9.2330 C.3       1 KRS         0.0982
     13 C6        -46.6070   37.4670   -9.1190 C.3       1 KRS         0.0108
     14 C10       -48.6380   36.0110   -9.3520 C.3       1 KRS         0.0060
     15 C11       -49.1850   34.6570   -9.6890 C.3       1 KRS         0.0619
     16 O5        -48.5590   34.1100  -10.8410 O.3       1 KRS        -0.3735
     17 C12       -48.9050   34.7560  -12.0630 C.3       1 KRS         0.0563
     18 C16       -48.1370   34.0620  -13.1380 C.3       1 KRS        -0.0387
     19 C13       -50.3910   34.7000  -12.2770 C.3       1 KRS        -0.0268
     20 C14       -51.1240   35.3150  -11.1240 C.3       1 KRS        -0.0484
     21 C15       -50.7020   34.6560   -9.8430 C.3       1 KRS        -0.0264
     22 H         -44.8493   39.5328   -9.2022 H         1 KRS         0.0406
     23 H         -43.0042   40.6282   -7.8237 H         1 KRS         0.2497
     24 H         -41.7940   37.7992   -6.7864 H         1 KRS         0.0422
     25 H         -43.6278   34.8875   -6.3358 H         1 KRS         0.2506
     26 H         -46.6934   35.5969  -10.1226 H         1 KRS         0.0672
     27 H         -46.5355   37.8904  -10.1317 H         1 KRS         0.0466
     28 H         -47.3188   38.0579   -8.5239 H         1 KRS         0.0466
     29 H         -48.9454   36.7124  -10.1417 H         1 KRS         0.0320
     30 H         -49.0709   36.3275   -8.3916 H         1 KRS         0.0320
     31 H         -48.9462   33.9960   -8.8428 H         1 KRS         0.0597
     32 H         -48.5989   35.8118  -12.0244 H         1 KRS         0.0593
     33 H         -48.3677   34.5233  -14.1096 H         1 KRS         0.0254
     34 H         -48.4177   32.9987  -13.1612 H         1 KRS         0.0254
     35 H         -47.0596   34.1525  -12.9357 H         1 KRS         0.0254
     36 H         -50.7001   33.6494  -12.3803 H         1 KRS         0.0290
     37 H         -50.6427   35.2484  -13.1967 H         1 KRS         0.0290
     38 H         -52.2064   35.1791  -11.2651 H         1 KRS         0.0267
     39 H         -50.8926   36.3893  -11.0754 H         1 KRS         0.0267
     40 H         -51.1478   35.2000   -8.9972 H         1 KRS         0.0290
     41 H         -51.0611   33.6163   -9.8405 H         1 KRS         0.0290
@<TRIPOS>BOND
     1    1    2 2  
     2    2    3 1  
     3    2   11 1  
     4    3    4 ar 
     5    3    9 ar 
     6    4    5 ar 
     7    4   13 1  
     8    5    6 ar 
     9    6    7 1  
    10    6    8 ar 
    11    8    9 ar 
    12    9   10 1  
    13   11   12 1  
    14   12   13 1  
    15   12   14 1  
    16   14   15 1  
    17   15   16 1  
    18   15   21 1  
    19   16   17 1  
    20   17   18 1  
    21   17   19 1  
    22   19   20 1  
    23   20   21 1  
    24    5   22 1  
    25    7   23 1  
    26    8   24 1  
    27   10   25 1  
    28   12   26 1  
    29   13   27 1  
    30   13   28 1  
    31   14   29 1  
    32   14   30 1  
    33   15   31 1  
    34   17   32 1  
    35   18   33 1  
    36   18   34 1  
    37   18   35 1  
    38   19   36 1  
    39   19   37 1  
    40   20   38 1  
    41   20   39 1  
    42   21   40 1  
    43   21   41 1  
@<TRIPOS>SUBSTRUCTURE
     1 KRS         1

