### 
### Created by X-TOOL on Mon Sep 10 21:13:25 2018
### 

@<TRIPOS>MOLECULE
4pg9_ligand
  132   135     1     0     0
SMALL
GAST_HUCK


@<TRIPOS>ATOM
      1 N          56.7660   18.5390    5.0820 N.4       1 PHE         0.2394
      2 CA         57.9610   19.3120    4.6290 C.3       1 PHE         0.0744
      3 C          57.6920   19.8370    3.2220 C.2       1 PHE         0.2288
      4 O          57.7350   19.0880    2.2420 O.2       1 PHE        -0.3905
      5 CB         59.2020   18.4220    4.6760 C.3       1 PHE         0.0416
      6 CG         60.5130   19.1580    4.5580 C.ar      1 PHE        -0.0353
      7 CD1        61.1670   19.6330    5.6910 C.ar      1 PHE        -0.0600
      8 CD2        61.1300   19.3210    3.3210 C.ar      1 PHE        -0.0600
      9 CE1        62.3940   20.2800    5.5920 C.ar      1 PHE        -0.0686
     10 CE2        62.3590   19.9680    3.2160 C.ar      1 PHE        -0.0686
     11 CZ         62.9880   20.4490    4.3540 C.ar      1 PHE        -0.0687
     12 N          57.4000   21.1300    3.1420 N.am      1 ALA        -0.2611
     13 CA         56.9120   21.7420    1.9150 C.3       1 ALA         0.1285
     14 C          57.9900   21.8210    0.8430 C.2       1 ALA         0.2061
     15 O          59.1790   21.7920    1.1520 O.2       1 ALA        -0.3942
     16 CB         56.3780   23.1360    2.2110 C.3       1 ALA        -0.0244
     17 N          57.5750   21.9110   -0.4310 N.am      1 PRO        -0.2498
     18 CA         58.5310   22.2370   -1.4880 C.3       1 PRO         0.1338
     19 C          59.1870   23.5870   -1.2090 C.2       1 PRO         0.2039
     20 O          58.4890   24.5440   -0.8590 O.2       1 PRO        -0.3944
     21 CB         57.6630   22.3270   -2.7450 C.3       1 PRO        -0.0104
     22 CG         56.4280   21.5580   -2.4280 C.3       1 PRO        -0.0281
     23 CD         56.2150   21.6980   -0.9550 C.3       1 PRO         0.0369
     24 N          60.5090   23.6460   -1.3450 N.am      1 GLY        -0.2664
     25 CA         61.2720   24.8730   -1.1030 C.3       1 GLY         0.1201
     26 C          61.5620   25.6950   -2.3380 C.2       1 GLY         0.2009
     27 O          62.1430   26.7740   -2.2360 O.2       1 GLY        -0.3947
     28 N          61.1620   25.1970   -3.5020 N.am      1 ASN        -0.2618
     29 CA         61.3600   25.9220   -4.7480 C.3       1 ASN         0.1476
     30 C          60.2280   25.6420   -5.7300 C.2       1 ASN         0.2064
     31 O          59.9770   24.4910   -6.0900 O.2       1 ASN        -0.3942
     32 CB         62.7040   25.5460   -5.3840 C.3       1 ASN         0.0773
     33 CG         62.9330   26.2300   -6.7260 C.2       1 ASN         0.1780
     34 OD1        62.3540   27.2770   -7.0130 O.2       1 ASN        -0.3970
     35 ND2        63.7810   25.6360   -7.5570 N.am      1 ASN        -0.3007
     36 N          59.5320   26.7030   -6.1270 N.am      1 TYR        -0.2620
     37 CA         58.6460   26.6630   -7.2750 C.3       1 TYR         0.1392
     38 C          59.3060   27.5160   -8.3480 C.2       1 TYR         0.2082
     39 O          59.2810   28.7420   -8.2580 O.2       1 TYR        -0.3940
     40 CB         57.2730   27.2350   -6.9420 C.3       1 TYR         0.0164
     41 CG         56.5030   26.4520   -5.9100 C.ar      1 TYR        -0.0493
     42 CD1        56.5410   26.8160   -4.5720 C.ar      1 TYR        -0.0685
     43 CD2        55.7230   25.3570   -6.2690 C.ar      1 TYR        -0.0685
     44 CE1        55.8330   26.1090   -3.6160 C.ar      1 TYR        -0.0398
     45 CE2        55.0090   24.6440   -5.3190 C.ar      1 TYR        -0.0398
     46 CZ         55.0720   25.0270   -3.9950 C.ar      1 TYR         0.0805
     47 OH         54.3690   24.3360   -3.0410 O.3       1 TYR        -0.3376
     48 N          59.9240   26.8750   -9.3580 N.am      1 PRO        -0.2497
     49 CA         60.5850   27.6690  -10.3990 C.3       1 PRO         0.1338
     50 C          59.6250   28.6410  -11.0740 C.2       1 PRO         0.2041
     51 O          58.4210   28.4020  -11.0990 O.2       1 PRO        -0.3944
     52 CB         61.0860   26.6140  -11.3970 C.3       1 PRO        -0.0104
     53 CG         60.3540   25.3560  -11.0630 C.3       1 PRO        -0.0281
     54 CD         60.0510   25.4260   -9.6020 C.3       1 PRO         0.0369
     55 N          60.1650   29.7260  -11.6140 N.am      1 ALA        -0.2640
     56 CA         59.3530   30.7790  -12.2070 C.3       1 ALA         0.1282
     57 C          58.6770   30.3030  -13.4850 C.2       1 ALA         0.2031
     58 O          59.2490   29.5240  -14.2450 O.2       1 ALA        -0.3944
     59 CB         60.2090   32.0040  -12.4920 C.3       1 ALA        -0.0244
     60 N          57.4590   30.7860  -13.7160 N.am      1 LEU        -0.2695
     61 CA         56.7130   30.4470  -14.9260 C.3       1 LEU         0.0946
     62 C          57.3070   31.1390  -16.1480 C.2       1 LEU         0.0601
     63 O          58.0170   32.1460  -16.0360 O.co2     1 LEU        -0.5666
     64 CB         55.2360   30.8340  -14.7870 C.3       1 LEU        -0.0156
     65 CG         54.4640   30.2340  -13.6050 C.3       1 LEU        -0.0431
     66 CD1        53.0270   30.7300  -13.5910 C.3       1 LEU        -0.0625
     67 CD2        54.5000   28.7180  -13.6220 C.3       1 LEU        -0.0625
     68 OXT        57.0780   30.6940  -17.2750 O.co2     1 LEU        -0.5666
     69 H1         56.9278   18.1846    6.0117 H         1 PHE         0.2017
     70 H2         56.6055   17.7687    4.4520 H         1 PHE         0.2017
     71 H3         55.9583   19.1420    5.0882 H         1 PHE         0.2017
     72 H4         58.1171   20.1668    5.3034 H         1 PHE         0.1122
     73 H5         59.1382   17.7018    3.8471 H         1 PHE         0.0507
     74 H6         59.1987   17.8804    5.6334 H         1 PHE         0.0507
     75 H7         60.7129   19.4965    6.6658 H         1 PHE         0.0557
     76 H8         60.6480   18.9396    2.4281 H         1 PHE         0.0557
     77 H9         62.8847   20.6517    6.4843 H         1 PHE         0.0599
     78 H10        62.8235   20.0954    2.2449 H         1 PHE         0.0599
     79 H11        63.9427   20.9562    4.2740 H         1 PHE         0.0559
     80 H12        57.5195   21.7030    3.9528 H         1 ALA         0.1884
     81 H13        56.0880   21.1245    1.5280 H         1 ALA         0.0797
     82 H14        56.0108   23.5932    1.2803 H         1 ALA         0.0277
     83 H15        57.1839   23.7559    2.6309 H         1 ALA         0.0277
     84 H16        55.5533   23.0666    2.9356 H         1 ALA         0.0277
     85 H17        59.3000   21.4567   -1.5867 H         1 PRO         0.0802
     86 H18        58.1838   21.8812   -3.6052 H         1 PRO         0.0313
     87 H19        57.4168   23.3755   -2.9685 H         1 PRO         0.0313
     88 H20        56.5592   20.4990   -2.6951 H         1 PRO         0.0287
     89 H21        55.5698   21.9714   -2.9782 H         1 PRO         0.0287
     90 H22        55.5678   22.5589   -0.7312 H         1 PRO         0.0524
     91 H23        55.7695   20.7849   -0.5334 H         1 PRO         0.0524
     92 H24        61.0009   22.8210   -1.6232 H         1 GLY         0.1881
     93 H25        62.2323   24.5937   -0.6450 H         1 GLY         0.0763
     94 H26        60.6998   25.4989   -0.4024 H         1 GLY         0.0763
     95 H27        60.7143   24.3030   -3.5229 H         1 ASN         0.1885
     96 H28        61.3682   26.9988   -4.5236 H         1 ASN         0.0826
     97 H29        62.7287   24.4568   -5.5358 H         1 ASN         0.0551
     98 H30        63.5121   25.8390   -4.6976 H         1 ASN         0.0551
     99 H31        63.9698   26.0401   -8.4520 H         1 ASN         0.1814
    100 H32        64.2309   24.7844   -7.2880 H         1 ASN         0.1814
    101 H33        59.6224   27.5582   -5.6166 H         1 TYR         0.1885
    102 H34        58.5325   25.6267   -7.6258 H         1 TYR         0.0821
    103 H35        56.6784   27.2616   -7.8670 H         1 TYR         0.0453
    104 H36        57.4098   28.2591   -6.5645 H         1 TYR         0.0453
    105 H37        57.1363   27.6700   -4.2697 H         1 TYR         0.0530
    106 H38        55.6730   25.0566   -7.3093 H         1 TYR         0.0530
    107 H39        55.8777   26.4059   -2.5744 H         1 TYR         0.0525
    108 H40        54.4062   23.7926   -5.6137 H         1 TYR         0.0525
    109 H41        54.5227   24.7285   -2.1897 H         1 TYR         0.2458
    110 H42        61.4280   28.2338   -9.9744 H         1 PRO         0.0802
    111 H43        62.1704   26.4667  -11.2862 H         1 PRO         0.0313
    112 H44        60.8616   26.9252  -12.4279 H         1 PRO         0.0313
    113 H45        60.9824   24.4798  -11.2806 H         1 PRO         0.0287
    114 H46        59.4217   25.2917  -11.6432 H         1 PRO         0.0287
    115 H47        59.1128   24.9019   -9.3674 H         1 PRO         0.0524
    116 H48        60.8701   24.9953   -9.0074 H         1 PRO         0.0524
    117 H49        61.1602   29.8235  -11.6137 H         1 ALA         0.1883
    118 H50        58.5708   31.0592  -11.4862 H         1 ALA         0.0797
    119 H51        59.5847   32.7915  -12.9393 H         1 ALA         0.0277
    120 H52        61.0147   31.7339  -13.1904 H         1 ALA         0.0277
    121 H53        60.6464   32.3724  -11.5523 H         1 ALA         0.0277
    122 H54        57.0427   31.3977  -13.0433 H         1 LEU         0.1875
    123 H55        56.7765   29.3591  -15.0755 H         1 LEU         0.0726
    124 H56        54.7238   30.5227  -15.7093 H         1 LEU         0.0308
    125 H57        55.1879   31.9289  -14.6924 H         1 LEU         0.0308
    126 H58        54.9508   30.5729  -12.6786 H         1 LEU         0.0297
    127 H59        52.4946   30.2871  -12.7364 H         1 LEU         0.0232
    128 H60        52.5283   30.4355  -14.5262 H         1 LEU         0.0232
    129 H61        53.0183   31.8262  -13.5002 H         1 LEU         0.0232
    130 H62        55.5455   28.3762  -13.6320 H         1 LEU         0.0232
    131 H63        53.9851   28.3490  -14.5213 H         1 LEU         0.0232
    132 H64        53.9957   28.3291  -12.7251 H         1 LEU         0.0232
@<TRIPOS>BOND
     1    1    2 1  
     2    2    3 1  
     3    2    5 1  
     4    3    4 2  
     5    3   12 am 
     6    5    6 1  
     7    6    7 ar 
     8    6    8 ar 
     9    7    9 ar 
    10    8   10 ar 
    11    9   11 ar 
    12   10   11 ar 
    13   12   13 1  
    14   13   14 1  
    15   13   16 1  
    16   14   15 2  
    17   14   17 am 
    18   17   18 1  
    19   17   23 1  
    20   18   19 1  
    21   18   21 1  
    22   19   20 2  
    23   19   24 am 
    24   21   22 1  
    25   22   23 1  
    26   24   25 1  
    27   25   26 1  
    28   26   27 2  
    29   26   28 am 
    30   28   29 1  
    31   29   30 1  
    32   29   32 1  
    33   30   31 2  
    34   30   36 am 
    35   32   33 1  
    36   33   34 2  
    37   33   35 am 
    38   36   37 1  
    39   37   38 1  
    40   37   40 1  
    41   38   39 2  
    42   38   48 am 
    43   40   41 1  
    44   41   42 ar 
    45   41   43 ar 
    46   42   44 ar 
    47   43   45 ar 
    48   44   46 ar 
    49   45   46 ar 
    50   46   47 1  
    51   48   49 1  
    52   48   54 1  
    53   49   50 1  
    54   49   52 1  
    55   50   51 2  
    56   50   55 am 
    57   52   53 1  
    58   53   54 1  
    59   55   56 1  
    60   56   57 1  
    61   56   59 1  
    62   57   58 2  
    63   57   60 am 
    64   60   61 1  
    65   61   62 1  
    66   61   64 1  
    67   62   63 ar 
    68   62   68 ar 
    69   64   65 1  
    70   65   66 1  
    71   65   67 1  
    72    1   69 1  
    73    1   70 1  
    74    1   71 1  
    75    2   72 1  
    76    5   73 1  
    77    5   74 1  
    78    7   75 1  
    79    8   76 1  
    80    9   77 1  
    81   10   78 1  
    82   11   79 1  
    83   12   80 1  
    84   13   81 1  
    85   16   82 1  
    86   16   83 1  
    87   16   84 1  
    88   18   85 1  
    89   21   86 1  
    90   21   87 1  
    91   22   88 1  
    92   22   89 1  
    93   23   90 1  
    94   23   91 1  
    95   24   92 1  
    96   25   93 1  
    97   25   94 1  
    98   28   95 1  
    99   29   96 1  
   100   32   97 1  
   101   32   98 1  
   102   35   99 1  
   103   35  100 1  
   104   36  101 1  
   105   37  102 1  
   106   40  103 1  
   107   40  104 1  
   108   42  105 1  
   109   43  106 1  
   110   44  107 1  
   111   45  108 1  
   112   47  109 1  
   113   49  110 1  
   114   52  111 1  
   115   52  112 1  
   116   53  113 1  
   117   53  114 1  
   118   54  115 1  
   119   54  116 1  
   120   55  117 1  
   121   56  118 1  
   122   59  119 1  
   123   59  120 1  
   124   59  121 1  
   125   60  122 1  
   126   61  123 1  
   127   64  124 1  
   128   64  125 1  
   129   65  126 1  
   130   66  127 1  
   131   66  128 1  
   132   66  129 1  
   133   67  130 1  
   134   67  131 1  
   135   67  132 1  
@<TRIPOS>SUBSTRUCTURE
     1 PHE         1

