### 
### Created by X-TOOL on Sun Nov 13 14:27:45 2016
### 

@<TRIPOS>MOLECULE
4pge_ligand
  137   142     1     0     0
SMALL
GAST_HUCK


@<TRIPOS>ATOM
      1 N          56.7180   18.6190    5.0080 N.4       1 PHE         0.2394
      2 CA         57.9220   19.3810    4.5810 C.3       1 PHE         0.0744
      3 C          57.6140   19.9370    3.2010 C.2       1 PHE         0.2288
      4 O          57.5740   19.1940    2.2170 O.2       1 PHE        -0.3905
      5 CB         59.1340   18.4470    4.5750 C.3       1 PHE         0.0416
      6 CG         60.4670   19.1440    4.5210 C.ar      1 PHE        -0.0353
      7 CD1        61.0680   19.6160    5.6800 C.ar      1 PHE        -0.0600
      8 CD2        61.1520   19.2730    3.3200 C.ar      1 PHE        -0.0600
      9 CE1        62.3130   20.2300    5.6380 C.ar      1 PHE        -0.0686
     10 CE2        62.4000   19.8830    3.2700 C.ar      1 PHE        -0.0686
     11 CZ         62.9790   20.3620    4.4320 C.ar      1 PHE        -0.0687
     12 N          57.3580   21.2430    3.1460 N.am      1 PHE        -0.2611
     13 CA         56.8100   21.8730    1.9500 C.3       1 PHE         0.1285
     14 C          57.8410   21.9720    0.8410 C.2       1 PHE         0.2061
     15 O          59.0400   22.0190    1.1130 O.2       1 PHE        -0.3942
     16 CB         56.2640   23.2590    2.2780 C.3       1 PHE        -0.0244
     17 N          57.3740   22.0030   -0.4220 N.am      1 PHE        -0.2498
     18 CA         58.2720   22.3570   -1.5160 C.3       1 PHE         0.1338
     19 C          58.9190   23.7190   -1.2520 C.2       1 PHE         0.2039
     20 O          58.2200   24.6740   -0.8780 O.2       1 PHE        -0.3944
     21 CB         57.3430   22.4340   -2.7290 C.3       1 PHE        -0.0104
     22 CG         56.1860   21.5660   -2.3880 C.3       1 PHE        -0.0281
     23 CD         56.0180   21.6660   -0.8970 C.3       1 PHE         0.0369
     24 N          60.2380   23.7850   -1.4210 N.am      1 PHE        -0.2664
     25 CA         61.0190   24.9870   -1.1310 C.3       1 PHE         0.1201
     26 C          61.4570   25.7530   -2.3600 C.2       1 PHE         0.2009
     27 O          62.1160   26.7840   -2.2480 O.2       1 PHE        -0.3947
     28 N          61.1000   25.2530   -3.5360 N.am      1 PHE        -0.2618
     29 CA         61.3670   25.9640   -4.7750 C.3       1 PHE         0.1476
     30 C          60.2580   25.6890   -5.7710 C.2       1 PHE         0.2064
     31 O          60.0230   24.5390   -6.1350 O.2       1 PHE        -0.3942
     32 CB         62.7070   25.5380   -5.3780 C.3       1 PHE         0.0773
     33 CG         62.8990   26.0590   -6.7930 C.2       1 PHE         0.1780
     34 OD1        62.7320   27.2500   -7.0570 O.2       1 PHE        -0.3970
     35 ND2        63.2400   25.1650   -7.7140 N.am      1 PHE        -0.3007
     36 N          59.5690   26.7490   -6.1840 N.am      1 PHE        -0.2620
     37 CA         58.6470   26.6960   -7.3020 C.3       1 PHE         0.1392
     38 C          59.2980   27.5200   -8.4240 C.2       1 PHE         0.2082
     39 O          59.4300   28.7390   -8.2950 O.2       1 PHE        -0.3940
     40 CB         57.3010   27.2980   -6.9050 C.3       1 PHE         0.0164
     41 CG         56.5310   26.5160   -5.8660 C.ar      1 PHE        -0.0493
     42 CD1        55.7220   25.4460   -6.2310 C.ar      1 PHE        -0.0685
     43 CD2        56.5950   26.8540   -4.5180 C.ar      1 PHE        -0.0685
     44 CE1        55.0030   24.7330   -5.2880 C.ar      1 PHE        -0.0398
     45 CE2        55.8840   26.1430   -3.5630 C.ar      1 PHE        -0.0398
     46 CZ         55.0890   25.0790   -3.9550 C.ar      1 PHE         0.0805
     47 OH         54.3750   24.3590   -3.0220 O.3       1 PHE        -0.3376
     48 N          59.7390   26.8620   -9.5130 N.am      1 PHE        -0.2497
     49 CA         60.4580   27.6210  -10.5480 C.3       1 PHE         0.1338
     50 C          59.5950   28.7060  -11.1920 C.2       1 PHE         0.2041
     51 O          58.3890   28.5260  -11.3380 O.2       1 PHE        -0.3944
     52 CB         60.8520   26.5500  -11.5700 C.3       1 PHE        -0.0104
     53 CG         59.9080   25.4180  -11.3360 C.3       1 PHE        -0.0281
     54 CD         59.5940   25.4370   -9.8730 C.3       1 PHE         0.0369
     55 N          60.2150   29.8320  -11.5400 N.am      1 PHE        -0.2640
     56 CA         59.5010   30.9410  -12.1550 C.3       1 PHE         0.1282
     57 C          58.9000   30.5090  -13.4850 C.2       1 PHE         0.2031
     58 O          59.5150   29.7450  -14.2390 O.2       1 PHE        -0.3944
     59 CB         60.4340   32.1310  -12.3660 C.3       1 PHE        -0.0244
     60 N          57.7000   31.0120  -13.7700 N.am      1 PHE        -0.2684
     61 CA         56.9790   30.6590  -14.9840 C.3       1 PHE         0.0986
     62 C          57.5460   31.4260  -16.1640 C.2       1 PHE         0.0613
     63 O          58.3450   32.3540  -15.9790 O.co2     1 PHE        -0.5665
     64 CB         55.4950   30.9950  -14.8430 C.3       1 PHE        -0.0013
     65 CG         54.7610   30.2130  -13.7770 C.2       1 PHE        -0.0424
     66 CD1        55.2960   29.5540  -12.6990 C.2       1 PHE         0.0166
     67 CD2        53.3460   30.0500  -13.6790 C.ar      1 PHE        -0.0214
     68 NE1        54.2940   28.9820  -11.9490 N.pl3     1 PHE        -0.2891
     69 CE2        53.0880   29.2720  -12.5300 C.ar      1 PHE         0.0603
     70 CE3        52.2690   30.4820  -14.4560 C.ar      1 PHE        -0.0747
     71 CZ2        51.7960   28.9140  -12.1500 C.ar      1 PHE        -0.0443
     72 CZ3        50.9870   30.1240  -14.0750 C.ar      1 PHE        -0.0792
     73 CH2        50.7620   29.3500  -12.9310 C.ar      1 PHE        -0.0768
     74 OXT        57.2010   31.1420  -17.3200 O.co2     1 PHE        -0.5665
     75 H1         56.8749   18.2284    5.9239 H         1 PHE         0.2017
     76 H2         56.5408   17.8750    4.3514 H         1 PHE         0.2017
     77 H3         55.9224   19.2371    5.0382 H         1 PHE         0.2017
     78 H4         58.1127   20.2106    5.2777 H         1 PHE         0.1122
     79 H5         59.0555   17.7899    3.6963 H         1 PHE         0.0507
     80 H6         59.1024   17.8393    5.4913 H         1 PHE         0.0507
     81 H7         60.5588   19.5038    6.6304 H         1 PHE         0.0557
     82 H8         60.7068   18.8923    2.4079 H         1 PHE         0.0557
     83 H9         62.7631   20.6058    6.5497 H         1 PHE         0.0599
     84 H10        62.9183   19.9832    2.3232 H         1 PHE         0.0599
     85 H11        63.9516   20.8394    4.3977 H         1 PHE         0.0559
     86 H12        57.5472   21.8085    3.9487 H         1 PHE         0.1884
     87 H13        55.9786   21.2499    1.5887 H         1 PHE         0.0797
     88 H14        55.8557   23.7176    1.3653 H         1 PHE         0.0277
     89 H15        57.0748   23.8884    2.6734 H         1 PHE         0.0277
     90 H16        55.4677   23.1705    3.0317 H         1 PHE         0.0277
     91 H17        59.0506   21.5930   -1.6573 H         1 PHE         0.0802
     92 H18        57.8527   22.0614   -3.6298 H         1 PHE         0.0313
     93 H19        57.0123   23.4696   -2.8967 H         1 PHE         0.0313
     94 H20        56.3895   20.5254   -2.6807 H         1 PHE         0.0287
     95 H21        55.2787   21.9200   -2.8994 H         1 PHE         0.0287
     96 H22        55.3007   22.4574   -0.6339 H         1 PHE         0.0524
     97 H23        55.6793   20.7087   -0.4740 H         1 PHE         0.0524
     98 H24        60.7165   22.9757   -1.7618 H         1 PHE         0.1881
     99 H25        61.9181   24.6879   -0.5723 H         1 PHE         0.0763
    100 H26        60.4058   25.6551   -0.5084 H         1 PHE         0.0763
    101 H27        60.6370   24.3673   -3.5705 H         1 PHE         0.1885
    102 H28        61.4007   27.0428   -4.5630 H         1 PHE         0.0826
    103 H29        62.7520   24.4391   -5.3974 H         1 PHE         0.0551
    104 H30        63.5184   25.9272   -4.7455 H         1 PHE         0.0551
    105 H31        63.3795   25.4518   -8.6618 H         1 PHE         0.1814
    106 H32        63.3573   24.2050   -7.4597 H         1 PHE         0.1814
    107 H33        59.6917   27.6177   -5.7041 H         1 PHE         0.1885
    108 H34        58.5006   25.6558   -7.6285 H         1 PHE         0.0821
    109 H35        56.6787   27.3678   -7.8094 H         1 PHE         0.0453
    110 H36        57.4831   28.3069   -6.5064 H         1 PHE         0.0453
    111 H37        55.6531   25.1645   -7.2756 H         1 PHE         0.0530
    112 H38        57.2126   27.6893   -4.2082 H         1 PHE         0.0530
    113 H39        54.3742   23.9053   -5.5954 H         1 PHE         0.0525
    114 H40        55.9501   26.4182   -2.5166 H         1 PHE         0.0525
    115 H41        53.8879   23.6708   -3.4598 H         1 PHE         0.2458
    116 H42        61.3545   28.0922  -10.1187 H         1 PHE         0.0802
    117 H43        61.8905   26.2257  -11.4077 H         1 PHE         0.0313
    118 H44        60.7443   26.9363  -12.5943 H         1 PHE         0.0313
    119 H45        60.3797   24.4637  -11.6130 H         1 PHE         0.0287
    120 H46        58.9900   25.5580  -11.9255 H         1 PHE         0.0287
    121 H47        58.5687   25.0855   -9.6855 H         1 PHE         0.0524
    122 H48        60.3041   24.8139   -9.3095 H         1 PHE         0.0524
    123 H49        61.1974   29.9178  -11.3743 H         1 PHE         0.1883
    124 H50        58.6861   31.2485  -11.4832 H         1 PHE         0.0797
    125 H51        59.8756   32.9568  -12.8310 H         1 PHE         0.0277
    126 H52        61.2643   31.8339  -13.0235 H         1 PHE         0.0277
    127 H53        60.8342   32.4598  -11.3956 H         1 PHE         0.0277
    128 H54        57.2803   31.6538  -13.1282 H         1 PHE         0.1876
    129 H55        57.0896   29.5796  -15.1647 H         1 PHE         0.0741
    130 H56        55.0070   30.7965  -15.8086 H         1 PHE         0.0390
    131 H57        55.4088   32.0647  -14.6016 H         1 PHE         0.0390
    132 H58        56.3589   29.4926  -12.4702 H         1 PHE         0.0795
    133 H59        54.4287   28.4271  -11.0918 H         1 PHE         0.2216
    134 H60        52.4337   31.0863  -15.3408 H         1 PHE         0.0540
    135 H61        51.6172   28.3114  -11.2668 H         1 PHE         0.0541
    136 H62        50.1432   30.4488  -14.6730 H         1 PHE         0.0510
    137 H63        49.7455   29.0904  -12.6581 H         1 PHE         0.0530
@<TRIPOS>BOND
     1    1    2 1  
     2    2    3 1  
     3    2    5 1  
     4    3    4 2  
     5    3   12 am 
     6    5    6 1  
     7    6    7 ar 
     8    6    8 ar 
     9    7    9 ar 
    10    8   10 ar 
    11    9   11 ar 
    12   10   11 ar 
    13   12   13 1  
    14   13   14 1  
    15   13   16 1  
    16   14   15 2  
    17   14   17 am 
    18   17   18 1  
    19   17   23 1  
    20   18   19 1  
    21   18   21 1  
    22   19   20 2  
    23   19   24 am 
    24   21   22 1  
    25   22   23 1  
    26   24   25 1  
    27   25   26 1  
    28   26   27 2  
    29   26   28 am 
    30   28   29 1  
    31   29   30 1  
    32   29   32 1  
    33   30   31 2  
    34   30   36 am 
    35   32   33 1  
    36   33   34 2  
    37   33   35 am 
    38   36   37 1  
    39   37   38 1  
    40   37   40 1  
    41   38   39 2  
    42   38   48 am 
    43   40   41 1  
    44   41   42 ar 
    45   41   43 ar 
    46   42   44 ar 
    47   43   45 ar 
    48   44   46 ar 
    49   45   46 ar 
    50   46   47 1  
    51   48   49 1  
    52   48   54 1  
    53   49   50 1  
    54   49   52 1  
    55   50   51 2  
    56   50   55 am 
    57   52   53 1  
    58   53   54 1  
    59   55   56 1  
    60   56   57 1  
    61   56   59 1  
    62   57   58 2  
    63   57   60 am 
    64   60   61 1  
    65   61   62 1  
    66   61   64 1  
    67   62   63 ar 
    68   62   74 ar 
    69   64   65 1  
    70   65   66 2  
    71   65   67 1  
    72   66   68 1  
    73   67   69 ar 
    74   67   70 ar 
    75   68   69 1  
    76   69   71 ar 
    77   70   72 ar 
    78   71   73 ar 
    79   72   73 ar 
    80    1   75 1  
    81    1   76 1  
    82    1   77 1  
    83    2   78 1  
    84    5   79 1  
    85    5   80 1  
    86    7   81 1  
    87    8   82 1  
    88    9   83 1  
    89   10   84 1  
    90   11   85 1  
    91   12   86 1  
    92   13   87 1  
    93   16   88 1  
    94   16   89 1  
    95   16   90 1  
    96   18   91 1  
    97   21   92 1  
    98   21   93 1  
    99   22   94 1  
   100   22   95 1  
   101   23   96 1  
   102   23   97 1  
   103   24   98 1  
   104   25   99 1  
   105   25  100 1  
   106   28  101 1  
   107   29  102 1  
   108   32  103 1  
   109   32  104 1  
   110   35  105 1  
   111   35  106 1  
   112   36  107 1  
   113   37  108 1  
   114   40  109 1  
   115   40  110 1  
   116   42  111 1  
   117   43  112 1  
   118   44  113 1  
   119   45  114 1  
   120   47  115 1  
   121   49  116 1  
   122   52  117 1  
   123   52  118 1  
   124   53  119 1  
   125   53  120 1  
   126   54  121 1  
   127   54  122 1  
   128   55  123 1  
   129   56  124 1  
   130   59  125 1  
   131   59  126 1  
   132   59  127 1  
   133   60  128 1  
   134   61  129 1  
   135   64  130 1  
   136   64  131 1  
   137   66  132 1  
   138   68  133 1  
   139   70  134 1  
   140   71  135 1  
   141   72  136 1  
   142   73  137 1  
@<TRIPOS>SUBSTRUCTURE
     1 PHE         1

