### 
### Created by X-TOOL on Mon Sep 10 21:13:18 2018
### 

@<TRIPOS>MOLECULE
4ph4_ligand
   41    44     1     0     0
SMALL
GAST_HUCK


@<TRIPOS>ATOM
      1 C1          2.2840    6.5480  -13.6430 C.ar      1 2UG         0.0212
      2 C2          1.2660    5.6310  -13.3650 C.ar      1 2UG         0.0446
      3 C3          0.8130    4.7170  -14.4500 C.ar      1 2UG         0.0555
      4 C11        -1.1500   -0.5540  -13.5680 C.ar      1 2UG        -0.0107
      5 C12         0.6990    5.7340  -12.0710 C.ar      1 2UG         0.0467
      6 C13        -0.2390    4.7190  -11.4580 C.3       1 2UG         0.0055
      7 C14        -1.6710    5.1860  -11.1720 C.3       1 2UG        -0.0268
      8 C15        -2.1770    4.9440   -9.7920 C.3       1 2UG        -0.0474
      9 C16        -1.9040    6.3390  -10.2440 C.3       1 2UG        -0.0474
     10 N           2.3340    8.5840  -10.8150 N.pl3     1 2UG        -0.3022
     11 C           2.0370    7.5710  -11.6340 C.ar      1 2UG         0.1846
     12 N6          1.0760    6.7120  -11.2270 N.ar      1 2UG        -0.2492
     13 N1          2.6850    7.5190  -12.8180 N.ar      1 2UG        -0.2573
     14 N5          0.3640    3.5030  -14.0780 N.ar      1 2UG        -0.2497
     15 C6          0.0640    2.6450  -15.0710 C.ar      1 2UG         0.2103
     16 N2          0.1580    2.8890  -16.3880 N.ar      1 2UG        -0.2539
     17 C5          0.5970    4.1110  -16.7150 C.ar      1 2UG         0.0119
     18 C4          0.9350    5.0680  -15.7880 C.ar      1 2UG        -0.0192
     19 N3         -0.3610    1.3920  -14.7520 N.pl3     1 2UG        -0.2336
     20 C7         -0.5820    0.7160  -13.5360 C.ar      1 2UG         0.0855
     21 C10        -1.3680   -1.2040  -12.3630 C.ar      1 2UG        -0.0014
     22 N4         -1.0530   -0.6880  -11.1710 N.ar      1 2UG        -0.3140
     23 C9         -0.4950    0.5280  -11.1620 C.ar      1 2UG        -0.0014
     24 C8         -0.2480    1.2720  -12.3040 C.ar      1 2UG        -0.0107
     25 H           2.7858    6.4648  -14.6003 H         1 2UG         0.0915
     26 H          -1.4147   -1.0222  -14.5092 H         1 2UG         0.0630
     27 H           0.2012    4.3923  -10.5044 H         1 2UG         0.0495
     28 H          -0.2993    3.8631  -12.1464 H         1 2UG         0.0495
     29 H          -2.3114    5.0419  -12.0547 H         1 2UG         0.0330
     30 H          -1.5244    4.4720   -9.0428 H         1 2UG         0.0270
     31 H          -3.2136    4.6097   -9.6380 H         1 2UG         0.0270
     32 H          -2.7385    7.0322  -10.4257 H         1 2UG         0.0270
     33 H          -1.0493    6.8945   -9.8305 H         1 2UG         0.0270
     34 H           1.8639    8.6629   -9.9019 H         1 2UG         0.1843
     35 H           3.0331    9.2860  -11.0967 H         1 2UG         0.1843
     36 H           0.6908    4.3586  -17.7662 H         1 2UG         0.0885
     37 H           1.2806    6.0508  -16.0874 H         1 2UG         0.0657
     38 H          -0.5653    0.8125  -15.5787 H         1 2UG         0.2216
     39 H          -1.8206   -2.1887  -12.3891 H         1 2UG         0.0785
     40 H          -0.2201    0.9561  -10.2048 H         1 2UG         0.0785
     41 H           0.1933    2.2601  -12.2403 H         1 2UG         0.0630
@<TRIPOS>BOND
     1    2    1 ar 
     2    1   13 ar 
     3    3    2 1  
     4    2    5 ar 
     5   14    3 ar 
     6    3   18 ar 
     7   20    4 ar 
     8    4   21 ar 
     9    5    6 1  
    10    5   12 ar 
    11    6    7 1  
    12    7    8 1  
    13    7    9 1  
    14    9    8 1  
    15   11   10 1  
    16   12   11 ar 
    17   13   11 ar 
    18   15   14 ar 
    19   15   16 ar 
    20   19   15 1  
    21   16   17 ar 
    22   17   18 ar 
    23   19   20 1  
    24   20   24 ar 
    25   21   22 ar 
    26   22   23 ar 
    27   23   24 ar 
    28    1   25 1  
    29    4   26 1  
    30    6   27 1  
    31    6   28 1  
    32    7   29 1  
    33    8   30 1  
    34    8   31 1  
    35    9   32 1  
    36    9   33 1  
    37   10   34 1  
    38   10   35 1  
    39   17   36 1  
    40   18   37 1  
    41   19   38 1  
    42   21   39 1  
    43   23   40 1  
    44   24   41 1  
@<TRIPOS>SUBSTRUCTURE
     1 2UG         1

