### 
### Created by X-TOOL on Mon Sep 10 21:13:18 2018
### 

@<TRIPOS>MOLECULE
4phu_ligand
   68    71     1     0     0
SMALL
GAST_HUCK


@<TRIPOS>ATOM
      1 C4        -54.9970   -0.8710   59.6860 C.ar      1 2YB         0.0802
      2 C6        -56.3440    0.8570   60.7020 C.3       1 2YB         0.0722
      3 C7        -57.7790    1.0020   61.2050 C.3       1 2YB        -0.0056
      4 C8        -57.7360    1.0580   62.7320 C.3       1 2YB         0.0679
      5 C10       -60.5810    1.2750   62.7050 C.3       1 2YB         0.0544
      6 C13       -54.6330   -2.2070   59.5990 C.ar      1 2YB        -0.0364
      7 C15       -53.1780   -4.0550   58.8160 C.3       1 2YB        -0.0333
      8 C17       -51.5760   -2.0010   57.3990 C.ar      1 2YB        -0.0385
      9 C20       -49.2720   -2.7140   56.0140 C.ar      1 2YB        -0.0612
     10 C21       -49.1550   -2.0820   57.2450 C.ar      1 2YB        -0.0167
     11 C22       -47.7840   -1.7910   57.8180 C.3       1 2YB         0.1018
     12 C24       -46.1080   -2.9890   59.1470 C.ar      1 2YB         0.0782
     13 C26       -44.0330   -1.9850   59.8090 C.ar      1 2YB        -0.0766
     14 C28       -42.2460   -3.6120   60.8170 C.3       1 2YB         0.0249
     15 C1        -52.3910    0.8440   57.5560 C.3       1 2YB        -0.0333
     16 C2        -53.1530   -0.2560   58.2620 C.ar      1 2YB        -0.0503
     17 C3        -54.2530    0.0970   59.0140 C.ar      1 2YB        -0.0364
     18 O5        -56.0900   -0.5310   60.4250 O.3       1 2YB        -0.3200
     19 S9        -59.2290    0.3370   63.4850 S.o2      1 2YB        -0.0337
     20 O11       -59.3430   -1.0340   63.1080 O.2       1 2YB        -0.1746
     21 O12       -59.1770    0.6650   64.8730 O.2       1 2YB        -0.1746
     22 C14       -53.5300   -2.5820   58.8620 C.ar      1 2YB        -0.0503
     23 C16       -52.7790   -1.6080   58.1840 C.ar      1 2YB        -0.0248
     24 C18       -51.6860   -2.6290   56.1520 C.ar      1 2YB        -0.0670
     25 C19       -50.5300   -2.9790   55.4760 C.ar      1 2YB        -0.0717
     26 O23       -47.3600   -2.9080   58.6180 O.3       1 2YB        -0.3127
     27 C25       -45.3080   -1.8550   59.2730 C.ar      1 2YB        -0.0506
     28 C27       -43.5690   -3.2140   60.2190 C.ar      1 2YB        -0.0172
     29 C30       -41.2210   -3.3910   59.7090 C.3       1 2YB         0.0122
     30 C31       -39.8020   -3.3040   60.1950 C.2       1 2YB         0.0367
     31 O32       -39.4350   -3.0020   61.4670 O.co2     1 2YB        -0.5689
     32 O33       -38.9740   -3.5320   59.3430 O.co2     1 2YB        -0.5689
     33 C34       -42.4310   -5.1170   61.1530 C.3       1 2YB         0.0794
     34 O35       -43.6980   -5.4660   60.5480 O.3       1 2YB        -0.3223
     35 C36       -44.3480   -4.3550   60.0980 C.ar      1 2YB         0.0853
     36 C37       -45.6330   -4.2310   59.5640 C.ar      1 2YB        -0.0111
     37 C38       -50.3040   -1.7330   57.9500 C.ar      1 2YB        -0.0566
     38 H         -55.6442    1.2148   61.4715 H         1 2YB         0.0615
     39 H         -56.2124    1.4477   59.7835 H         1 2YB         0.0615
     40 H         -58.3787    0.1394   60.8791 H         1 2YB         0.0307
     41 H         -58.2225    1.9275   60.8091 H         1 2YB         0.0307
     42 H         -57.6521    2.1088   63.0464 H         1 2YB         0.0500
     43 H         -56.8562    0.4988   63.0830 H         1 2YB         0.0500
     44 H         -61.5464    0.9173   63.0922 H         1 2YB         0.0464
     45 H         -60.5467    1.1301   61.6151 H         1 2YB         0.0464
     46 H         -60.4666    2.3443   62.9365 H         1 2YB         0.0464
     47 H         -55.2191   -2.9600   60.1133 H         1 2YB         0.0431
     48 H         -53.9021   -4.6240   59.4176 H         1 2YB         0.0395
     49 H         -52.1668   -4.2032   59.2227 H         1 2YB         0.0395
     50 H         -53.2097   -4.4072   57.7744 H         1 2YB         0.0395
     51 H         -48.3805   -3.0026   55.4689 H         1 2YB         0.0530
     52 H         -47.8306   -0.8872   58.4432 H         1 2YB         0.0775
     53 H         -47.0682   -1.6330   56.9978 H         1 2YB         0.0775
     54 H         -43.3985   -1.1114   59.9051 H         1 2YB         0.0501
     55 H         -41.9906   -3.0292   61.7143 H         1 2YB         0.0462
     56 H         -52.8691    1.8127   57.7635 H         1 2YB         0.0395
     57 H         -52.3971    0.6569   56.4721 H         1 2YB         0.0395
     58 H         -51.3528    0.8623   57.9191 H         1 2YB         0.0395
     59 H         -54.5426    1.1393   59.0834 H         1 2YB         0.0431
     60 H         -52.6597   -2.8374   55.7236 H         1 2YB         0.0532
     61 H         -50.6045   -3.4677   54.5113 H         1 2YB         0.0591
     62 H         -45.6753   -0.8852   58.9573 H         1 2YB         0.0433
     63 H         -41.4675   -2.4516   59.1926 H         1 2YB         0.0451
     64 H         -41.2926   -4.2289   58.9999 H         1 2YB         0.0451
     65 H         -42.4633   -5.2720   62.2415 H         1 2YB         0.0633
     66 H         -41.6153   -5.7156   60.7214 H         1 2YB         0.0633
     67 H         -46.2650   -5.1070   59.4734 H         1 2YB         0.0446
     68 H         -50.2220   -1.2564   58.9201 H         1 2YB         0.0525
@<TRIPOS>BOND
     1    1    6 ar 
     2   17    1 ar 
     3    1   18 1  
     4    2    3 1  
     5   18    2 1  
     6    3    4 1  
     7    4   19 1  
     8   19    5 1  
     9    6   22 ar 
    10   22    7 1  
    11   23    8 1  
    12    8   24 ar 
    13    8   37 ar 
    14   10    9 ar 
    15    9   25 ar 
    16   10   11 1  
    17   37   10 ar 
    18   11   26 1  
    19   26   12 1  
    20   12   27 ar 
    21   12   36 ar 
    22   27   13 ar 
    23   13   28 ar 
    24   28   14 1  
    25   14   29 1  
    26   14   33 1  
    27   16   15 1  
    28   16   17 ar 
    29   16   23 ar 
    30   19   20 2  
    31   19   21 2  
    32   22   23 ar 
    33   24   25 ar 
    34   28   35 ar 
    35   29   30 1  
    36   30   31 ar 
    37   30   32 ar 
    38   33   34 1  
    39   34   35 1  
    40   35   36 ar 
    41    2   38 1  
    42    2   39 1  
    43    3   40 1  
    44    3   41 1  
    45    4   42 1  
    46    4   43 1  
    47    5   44 1  
    48    5   45 1  
    49    5   46 1  
    50    6   47 1  
    51    7   48 1  
    52    7   49 1  
    53    7   50 1  
    54    9   51 1  
    55   11   52 1  
    56   11   53 1  
    57   13   54 1  
    58   14   55 1  
    59   15   56 1  
    60   15   57 1  
    61   15   58 1  
    62   17   59 1  
    63   24   60 1  
    64   25   61 1  
    65   27   62 1  
    66   29   63 1  
    67   29   64 1  
    68   33   65 1  
    69   33   66 1  
    70   36   67 1  
    71   37   68 1  
@<TRIPOS>SUBSTRUCTURE
     1 2YB         1

