### 
### Created by X-TOOL on Mon Sep 10 21:12:45 2018
### 

@<TRIPOS>MOLECULE
4phv_ligand
   88    93     1     0     0
SMALL
GAST_HUCK


@<TRIPOS>ATOM
      1 C1         14.2740   23.8800    4.7040 C.3       1 VAC         0.0602
      2 C3         13.0630   23.3670    3.9880 C.3       1 VAC        -0.0051
      3 C4         14.0950   23.7330    6.2420 C.3       1 VAC        -0.0051
      4 C6         15.2770   22.9090    6.7150 C.3       1 VAC         0.0606
      5 C9         11.9110   24.2230    3.6800 C.3       1 VAC         0.0606
      6 C12        15.2590   22.8430    8.2380 C.3       1 VAC         0.0007
      7 C13        15.2450   21.4600    6.2260 C.2       1 VAC         0.1831
      8 C16        16.3550   21.9480    8.7590 C.ar      1 VAC        -0.0405
      9 C20        16.6070   19.6130    5.3960 C.3       1 VAC         0.1006
     10 C21        18.0260   19.1690    5.7690 C.3       1 VAC         0.0951
     11 C23        16.4960   19.1910    3.9790 C.ar      1 VAC        -0.0133
     12 C25        17.3700   18.1740    3.7190 C.ar      1 VAC        -0.0361
     13 C26        18.1920   17.8580    4.9290 C.3       1 VAC         0.0085
     14 C30        10.9560   24.3500    4.8800 C.2       1 VAC         0.1831
     15 C31        11.0920   23.5370    2.5550 C.3       1 VAC         0.0007
     16 C33         9.7220   24.1410    2.3520 C.ar      1 VAC        -0.0405
     17 C37        17.5020   17.5510    2.4610 C.ar      1 VAC        -0.0667
     18 C38        16.6360   18.0180    1.4850 C.ar      1 VAC        -0.0755
     19 C39        15.7560   19.0840    1.7360 C.ar      1 VAC        -0.0754
     20 C40        15.6460   19.6780    2.9860 C.ar      1 VAC        -0.0646
     21 C45         8.5790   23.5260    2.8330 C.ar      1 VAC        -0.0602
     22 C46         7.3220   24.1070    2.6460 C.ar      1 VAC        -0.0686
     23 C47         7.1770   25.3410    1.9760 C.ar      1 VAC        -0.0687
     24 C48         8.3370   25.9830    1.5050 C.ar      1 VAC        -0.0686
     25 C49         9.5510   25.3390    1.6850 C.ar      1 VAC        -0.0602
     26 C55        17.6910   22.2530    8.5280 C.ar      1 VAC        -0.0602
     27 C56        18.6940   21.3890    9.0150 C.ar      1 VAC        -0.0686
     28 C57        18.3210   20.2390    9.7120 C.ar      1 VAC        -0.0687
     29 C58        16.9610   19.8950    9.9220 C.ar      1 VAC        -0.0686
     30 C59        15.9950   20.7730    9.4240 C.ar      1 VAC        -0.0602
     31 C68         7.4160   27.0590    6.7900 C.3       1 VAC         0.0085
     32 C69         8.1740   26.6170    5.5020 C.3       1 VAC         0.0951
     33 C71         9.3080   25.7010    6.0440 C.3       1 VAC         0.1006
     34 C73         9.6460   26.4250    7.3170 C.ar      1 VAC        -0.0133
     35 C76         8.5840   27.1890    7.7290 C.ar      1 VAC        -0.0361
     36 C77        10.8630   26.3550    7.9970 C.ar      1 VAC        -0.0646
     37 C78        10.9630   27.1200    9.1510 C.ar      1 VAC        -0.0754
     38 C79         9.8670   27.8630    9.5950 C.ar      1 VAC        -0.0755
     39 C80         8.6560   27.9530    8.9010 C.ar      1 VAC        -0.0667
     40 O2         14.6740   25.1820    4.4070 O.3       1 VAC        -0.3915
     41 O15        14.1690   20.8740    6.2710 O.2       1 VAC        -0.3964
     42 O22        19.0830   20.0530    5.4600 O.3       1 VAC        -0.3857
     43 O36        10.7720   23.3470    5.6250 O.2       1 VAC        -0.3964
     44 O70         8.7470   27.7300    4.7940 O.3       1 VAC        -0.3857
     45 N19        16.3800   20.9810    5.7720 N.am      1 VAC        -0.2707
     46 N86        10.3560   25.4970    5.0420 N.am      1 VAC        -0.2707
     47 H1         15.1057   23.2260    4.4030 H         1 VAC         0.0596
     48 H2         12.6743   22.5387    4.5985 H         1 VAC         0.0319
     49 H3         13.4201   22.9758    3.0239 H         1 VAC         0.0319
     50 H4         13.1512   23.2165    6.4708 H         1 VAC         0.0319
     51 H5         14.0986   24.7213    6.7249 H         1 VAC         0.0319
     52 H6         16.2035   23.3890    6.3670 H         1 VAC         0.0561
     53 H7         12.2591   25.2175    3.3642 H         1 VAC         0.0561
     54 H8         14.2867   22.4488    8.5684 H         1 VAC         0.0453
     55 H9         15.4006   23.8560    8.6426 H         1 VAC         0.0453
     56 H10        15.8790   19.0214    5.9705 H         1 VAC         0.0732
     57 H11        18.0677   18.9542    6.8470 H         1 VAC         0.0659
     58 H12        17.7965   16.9835    5.4664 H         1 VAC         0.0439
     59 H13        19.2449   17.6806    4.6645 H         1 VAC         0.0439
     60 H14        10.9693   22.4746    2.8122 H         1 VAC         0.0453
     61 H15        11.6536   23.6238    1.6132 H         1 VAC         0.0453
     62 H16        18.2257   16.7665    2.2717 H         1 VAC         0.0537
     63 H17        16.6377   17.5507    0.5069 H         1 VAC         0.0541
     64 H18        15.1409   19.4560    0.9246 H         1 VAC         0.0541
     65 H19        14.9386   20.4762    3.1796 H         1 VAC         0.0538
     66 H20         8.6600   22.5827    3.3609 H         1 VAC         0.0557
     67 H21         6.4410   23.6002    3.0228 H         1 VAC         0.0599
     68 H22         6.1979   25.7823    1.8283 H         1 VAC         0.0559
     69 H23         8.2830   26.9496    1.0173 H         1 VAC         0.0599
     70 H24        10.4343   25.8115    1.2707 H         1 VAC         0.0557
     71 H25        17.9601   23.1476    7.9781 H         1 VAC         0.0557
     72 H26        19.7412   21.6154    8.8499 H         1 VAC         0.0599
     73 H27        19.0942   19.5887   10.1049 H         1 VAC         0.0559
     74 H28        16.6827   18.9884   10.4471 H         1 VAC         0.0599
     75 H29        14.9451   20.5379    9.5562 H         1 VAC         0.0557
     76 H30         6.7001   26.2953    7.1280 H         1 VAC         0.0439
     77 H31         6.8924   28.0163    6.6506 H         1 VAC         0.0439
     78 H32         7.5031   26.0627    4.8293 H         1 VAC         0.0659
     79 H33         8.9119   24.7061    6.2954 H         1 VAC         0.0732
     80 H34        11.6824   25.7391    7.6444 H         1 VAC         0.0538
     81 H35        11.8927   27.1407    9.7081 H         1 VAC         0.0541
     82 H36         9.9602   28.4010   10.5315 H         1 VAC         0.0541
     83 H37         7.8331   28.5691    9.2450 H         1 VAC         0.0537
     84 H38        14.7834   25.2720    3.4676 H         1 VAC         0.2098
     85 H39        19.9066   19.6693    5.7374 H         1 VAC         0.2103
     86 H40         8.0511   28.2866    4.4648 H         1 VAC         0.2103
     87 H41        17.1458   21.6176    5.6808 H         1 VAC         0.1880
     88 H42        10.6217   26.2656    4.4601 H         1 VAC         0.1880
@<TRIPOS>BOND
     1    1   40 1  
     2    1    3 1  
     3    1    2 1  
     4    2    5 1  
     5    5   15 1  
     6    5   14 1  
     7   14   46 am 
     8   14   43 2  
     9   46   33 1  
    10   33   34 1  
    11   33   32 1  
    12   32   44 1  
    13   32   31 1  
    14   31   35 1  
    15   35   39 ar 
    16   35   34 ar 
    17   34   36 ar 
    18   36   37 ar 
    19   37   38 ar 
    20   38   39 ar 
    21   15   16 1  
    22   16   25 ar 
    23   16   21 ar 
    24   21   22 ar 
    25   22   23 ar 
    26   23   24 ar 
    27   24   25 ar 
    28    3    4 1  
    29    4    7 1  
    30    4    6 1  
    31    6    8 1  
    32    8   30 ar 
    33    8   26 ar 
    34   26   27 ar 
    35   27   28 ar 
    36   28   29 ar 
    37   29   30 ar 
    38    7   45 am 
    39    7   41 2  
    40   45    9 1  
    41    9   11 1  
    42    9   10 1  
    43   10   42 1  
    44   10   13 1  
    45   13   12 1  
    46   12   17 ar 
    47   12   11 ar 
    48   11   20 ar 
    49   20   19 ar 
    50   19   18 ar 
    51   18   17 ar 
    52    1   47 1  
    53    2   48 1  
    54    2   49 1  
    55    3   50 1  
    56    3   51 1  
    57    4   52 1  
    58    5   53 1  
    59    6   54 1  
    60    6   55 1  
    61    9   56 1  
    62   10   57 1  
    63   13   58 1  
    64   13   59 1  
    65   15   60 1  
    66   15   61 1  
    67   17   62 1  
    68   18   63 1  
    69   19   64 1  
    70   20   65 1  
    71   21   66 1  
    72   22   67 1  
    73   23   68 1  
    74   24   69 1  
    75   25   70 1  
    76   26   71 1  
    77   27   72 1  
    78   28   73 1  
    79   29   74 1  
    80   30   75 1  
    81   31   76 1  
    82   31   77 1  
    83   32   78 1  
    84   33   79 1  
    85   36   80 1  
    86   37   81 1  
    87   38   82 1  
    88   39   83 1  
    89   40   84 1  
    90   42   85 1  
    91   44   86 1  
    92   45   87 1  
    93   46   88 1  
@<TRIPOS>SUBSTRUCTURE
     1 VAC         1

