### 
### Created by X-TOOL on Mon Sep 10 21:13:16 2018
### 

@<TRIPOS>MOLECULE
4phw_ligand
   51    55     1     0     0
SMALL
GAST_HUCK


@<TRIPOS>ATOM
      1 O01        23.9520   77.7000   18.5680 O.2       1 2W1        -0.3558
      2 C02        24.5100   78.5000   19.2990 C.2       1 2W1         0.2092
      3 C03        24.7610   79.8850   18.7890 C.2       1 2W1         0.1995
      4 N04        24.9200   80.9890   19.5170 N.pl3     1 2W1        -0.2400
      5 C05        25.1410   82.0540   18.6420 C.ar      1 2W1         0.0869
      6 C06        25.3900   83.4570   18.8430 C.ar      1 2W1        -0.0370
      7 C07        25.5770   84.3120   17.7180 C.ar      1 2W1        -0.0725
      8 C08        25.5330   83.7960   16.4340 C.ar      1 2W1        -0.0740
      9 C09        25.2960   82.4100   16.2400 C.ar      1 2W1        -0.0578
     10 C10        25.0990   81.5500   17.3710 C.ar      1 2W1         0.0424
     11 N11        24.8610   80.1960   17.4760 N.2       1 2W1        -0.2853
     12 C12        24.9740   78.0240   20.7080 C.ar      1 2W1         0.0321
     13 C13        25.8330   78.7960   21.5310 C.ar      1 2W1        -0.0501
     14 C14        26.2070   78.3140   22.7830 C.ar      1 2W1        -0.0216
     15 C15        25.7440   77.0730   23.2210 C.ar      1 2W1         0.1242
     16 O16        26.1680   76.5830   24.4910 O.3       1 2W1        -0.2384
     17 C17        25.1340   76.1280   25.3770 C.ar      1 2W1         0.1939
     18 N18        24.0270   76.8730   25.5130 N.ar      1 2W1        -0.2777
     19 C19        23.0250   76.5100   26.3530 C.ar      1 2W1        -0.0069
     20 C20        23.1390   75.3150   27.1190 C.ar      1 2W1        -0.0521
     21 C21        24.2800   74.5380   26.9920 C.ar      1 2W1        -0.0480
     22 C22        25.3180   74.9170   26.1280 C.ar      1 2W1         0.0232
     23 C23        26.5710   74.0020   26.0190 C.3       1 2W1         0.0021
     24 C24        27.7530   74.7680   26.4390 C.3       1 2W1        -0.0170
     25 C25        28.9960   73.8930   26.4800 C.3       1 2W1         0.0496
     26 O26        29.2390   73.1450   25.2490 O.3       1 2W1        -0.3794
     27 C27        28.0200   72.5080   24.7130 C.3       1 2W1         0.0496
     28 C28        26.8070   73.4300   24.7020 C.3       1 2W1        -0.0170
     29 C29        24.8880   76.2830   22.3810 C.ar      1 2W1        -0.0216
     30 C30        24.5150   76.7660   21.1530 C.ar      1 2W1        -0.0501
     31 H          24.8859   81.0468   20.5448 H         1 2W1         0.2339
     32 H          25.4352   83.8625   19.8473 H         1 2W1         0.0555
     33 H          25.7544   85.3708   17.8684 H         1 2W1         0.0559
     34 H          25.6790   84.4478   15.5803 H         1 2W1         0.0530
     35 H          25.2639   82.0012   15.2365 H         1 2W1         0.0569
     36 H          26.1970   79.7574   21.1870 H         1 2W1         0.0645
     37 H          26.8585   78.9037   23.4178 H         1 2W1         0.0569
     38 H          22.1392   77.1287   26.4408 H         1 2W1         0.0728
     39 H          22.3439   75.0168   27.7927 H         1 2W1         0.0602
     40 H          24.3713   73.6246   27.5686 H         1 2W1         0.0642
     41 H          26.4294   73.1648   26.7183 H         1 2W1         0.0458
     42 H          27.5734   75.1816   27.4423 H         1 2W1         0.0311
     43 H          27.9178   75.5905   25.7274 H         1 2W1         0.0311
     44 H          28.8854   73.1740   27.3051 H         1 2W1         0.0561
     45 H          29.8666   74.5380   26.6699 H         1 2W1         0.0561
     46 H          27.7845   71.6303   25.3328 H         1 2W1         0.0561
     47 H          28.2210   72.1849   23.6809 H         1 2W1         0.0561
     48 H          26.9812   74.2439   23.9829 H         1 2W1         0.0311
     49 H          25.9210   72.8541   24.3965 H         1 2W1         0.0311
     50 H          24.5395   75.3125   22.7151 H         1 2W1         0.0569
     51 H          23.8623   76.1767   20.5191 H         1 2W1         0.0645
@<TRIPOS>BOND
     1    1    2 2  
     2    2    3 1  
     3    2   12 1  
     4    3    4 1  
     5    3   11 2  
     6    4    5 1  
     7    5    6 ar 
     8    5   10 ar 
     9    6    7 ar 
    10    7    8 ar 
    11    8    9 ar 
    12    9   10 ar 
    13   10   11 1  
    14   12   13 ar 
    15   12   30 ar 
    16   13   14 ar 
    17   14   15 ar 
    18   15   16 1  
    19   15   29 ar 
    20   16   17 1  
    21   17   18 ar 
    22   17   22 ar 
    23   18   19 ar 
    24   19   20 ar 
    25   20   21 ar 
    26   21   22 ar 
    27   22   23 1  
    28   23   24 1  
    29   23   28 1  
    30   24   25 1  
    31   25   26 1  
    32   26   27 1  
    33   27   28 1  
    34   29   30 ar 
    35    4   31 1  
    36    6   32 1  
    37    7   33 1  
    38    8   34 1  
    39    9   35 1  
    40   13   36 1  
    41   14   37 1  
    42   19   38 1  
    43   20   39 1  
    44   21   40 1  
    45   23   41 1  
    46   24   42 1  
    47   24   43 1  
    48   25   44 1  
    49   25   45 1  
    50   27   46 1  
    51   27   47 1  
    52   28   48 1  
    53   28   49 1  
    54   29   50 1  
    55   30   51 1  
@<TRIPOS>SUBSTRUCTURE
     1 2W1         1

