### 
### Created by X-TOOL on Mon Sep 10 21:13:19 2018
### 

@<TRIPOS>MOLECULE
4pin_ligand
   26    26     1     0     0
SMALL
GAST_HUCK


@<TRIPOS>ATOM
      1 CAL        10.0050   15.9850   16.6630 C.3       1 AVI        -0.0417
      2 N           9.0150   15.9010   15.5910 N.4       1 AVI         0.2458
      3 CAM         9.4050   16.9010   14.5930 C.3       1 AVI        -0.0417
      4 CA          9.0970   14.5950   14.9350 C.3       1 AVI         0.0372
      5 C           8.0840   14.5050   13.7930 C.2       1 AVI         0.0861
      6 OXT         6.9070   14.6720   14.1200 O.co2     1 AVI        -0.5642
      7 O           8.4640   14.2560   12.6500 O.co2     1 AVI        -0.5642
      8 CB          8.8390   13.4460   15.9150 C.3       1 AVI         0.0294
      9 CG          8.9040   12.0910   15.2830 C.2       1 AVI        -0.0001
     10 ND1         8.0920   11.1030   15.6230 N.2       1 AVI        -0.3251
     11 CE1         8.3580   10.0210   14.9170 C.2       1 AVI         0.0907
     12 NE2         9.3540   10.2990   14.1020 N.pl3     1 AVI        -0.2752
     13 CD2         9.7210   11.6050   14.3120 C.2       1 AVI         0.0292
     14 H           9.9358   16.9691   17.1497 H         1 AVI         0.0778
     15 H          11.0129   15.8540   16.2424 H         1 AVI         0.0778
     16 H           9.8113   15.1952   17.4038 H         1 AVI         0.0778
     17 H           8.0856   16.0691   15.9431 H         1 AVI         0.2046
     18 H           8.6904   16.8827   13.7570 H         1 AVI         0.0778
     19 H          10.4134   16.6713   14.2184 H         1 AVI         0.0778
     20 H           9.4038   17.8995   15.0545 H         1 AVI         0.0778
     21 H          10.1098   14.4811   14.5211 H         1 AVI         0.1043
     22 H           7.8374   13.5787   16.3500 H         1 AVI         0.0446
     23 H           9.5946   13.4937   16.7130 H         1 AVI         0.0446
     24 H           7.8434    9.0644   14.9947 H         1 AVI         0.1199
     25 H           9.7824    9.6507   13.4259 H         1 AVI         0.2361
     26 H          10.5141   12.1471   13.7992 H         1 AVI         0.0729
@<TRIPOS>BOND
     1    1    2 1  
     2    2    3 1  
     3    2    4 1  
     4    4    5 1  
     5    4    8 1  
     6    5    6 ar 
     7    5    7 ar 
     8    8    9 1  
     9    9   10 1  
    10    9   13 2  
    11   10   11 2  
    12   11   12 1  
    13   12   13 1  
    14    1   14 1  
    15    1   15 1  
    16    1   16 1  
    17    2   17 1  
    18    3   18 1  
    19    3   19 1  
    20    3   20 1  
    21    4   21 1  
    22    8   22 1  
    23    8   23 1  
    24   11   24 1  
    25   12   25 1  
    26   13   26 1  
@<TRIPOS>SUBSTRUCTURE
     1 AVI         1

