### 
### Created by X-TOOL on Mon Sep 10 21:13:16 2018
### 

@<TRIPOS>MOLECULE
4pio_ligand
   26    26     1     0     0
SMALL
GAST_HUCK


@<TRIPOS>ATOM
      1 CAL        18.4500    1.4120   15.6410 C.3       1 AVI        -0.0417
      2 N          18.6790    2.7290   16.1890 N.4       1 AVI         0.2458
      3 CAM        19.3210    3.4400   15.0970 C.3       1 AVI        -0.0417
      4 CA         17.3890    3.3510   16.4410 C.3       1 AVI         0.0372
      5 C          17.5470    4.8030   16.8590 C.2       1 AVI         0.0861
      6 OXT        18.2300    4.9750   17.8020 O.co2     1 AVI        -0.5642
      7 O          16.9860    5.6300   16.1510 O.co2     1 AVI        -0.5642
      8 CB         16.5780    2.5890   17.4810 C.3       1 AVI         0.0294
      9 CG         15.2580    3.2250   17.8430 C.2       1 AVI        -0.0001
     10 ND1        14.8280    3.3400   19.0930 N.2       1 AVI        -0.3251
     11 CE1        13.6490    3.9410   19.0960 C.2       1 AVI         0.0907
     12 NE2        13.3100    4.2090   17.8580 N.pl3     1 AVI        -0.2752
     13 CD2        14.3000    3.7500   17.0480 C.2       1 AVI         0.0292
     14 H          19.4159    0.9242   15.4431 H         1 AVI         0.0778
     15 H          17.8840    1.4989   14.7018 H         1 AVI         0.0778
     16 H          17.8759    0.8101   16.3608 H         1 AVI         0.0778
     17 H          19.2470    2.7066   17.0214 H         1 AVI         0.2046
     18 H          19.5431    4.4706   15.4109 H         1 AVI         0.0778
     19 H          18.6490    3.4587   14.2263 H         1 AVI         0.0778
     20 H          20.2570    2.9292   14.8269 H         1 AVI         0.0778
     21 H          16.8238    3.3319   15.4975 H         1 AVI         0.1043
     22 H          17.1827    2.5105   18.3965 H         1 AVI         0.0446
     23 H          16.3762    1.5819   17.0873 H         1 AVI         0.0446
     24 H          13.0580    4.1744   19.9804 H         1 AVI         0.1199
     25 H          12.4475    4.6828   17.5538 H         1 AVI         0.2361
     26 H          14.3178    3.7967   15.9601 H         1 AVI         0.0729
@<TRIPOS>BOND
     1    1    2 1  
     2    2    3 1  
     3    2    4 1  
     4    4    5 1  
     5    4    8 1  
     6    5    6 ar 
     7    5    7 ar 
     8    8    9 1  
     9    9   10 1  
    10    9   13 2  
    11   10   11 2  
    12   11   12 1  
    13   12   13 1  
    14    1   14 1  
    15    1   15 1  
    16    1   16 1  
    17    2   17 1  
    18    3   18 1  
    19    3   19 1  
    20    3   20 1  
    21    4   21 1  
    22    8   22 1  
    23    8   23 1  
    24   11   24 1  
    25   12   25 1  
    26   13   26 1  
@<TRIPOS>SUBSTRUCTURE
     1 AVI         1

