### 
### Created by X-TOOL on Mon Sep 10 21:13:18 2018
### 

@<TRIPOS>MOLECULE
4pji_ligand
   26    27     1     0     0
SMALL
GAST_HUCK


@<TRIPOS>ATOM
      1 C4        217.0140   67.0110  165.4770 C.2       1 30W         0.2811
      2 C6        215.9170   70.1610  164.0780 C.ar      1 30W         0.1438
      3 C11       222.2890   65.3190  167.2850 C.3       1 30W         0.0257
      4 C7        217.0700   70.9200  164.2110 C.ar      1 30W         0.1255
      5 C9        214.6750   70.7050  163.4470 C.3       1 30W         0.0317
      6 C10       220.8900   65.5520  166.8030 C.2       1 30W         0.1755
      7 N1        219.3640   68.6090  165.6430 N.pl3     1 30W        -0.1840
      8 N2        220.5760   66.8740  166.5530 N.am      1 30W        -0.2362
      9 N3        218.2070   66.5770  166.0090 N.am      1 30W        -0.2251
     10 O10       220.1220   64.6210  166.6000 O.2       1 30W        -0.3974
     11 C2        219.3730   67.2790  166.1240 C.cat     1 30W         0.2465
     12 C8A       218.2230   69.1440  165.0930 C.ar      1 30W         0.2931
     13 N8        218.2190   70.4300  164.6970 N.ar      1 30W        -0.1528
     14 N5        215.8910   68.8750  164.4660 N.ar      1 30W        -0.1664
     15 C4A       217.0200   68.3600  164.9810 C.ar      1 30W         0.2676
     16 O4        216.0280   66.2800  165.4780 O.2       1 30W        -0.3471
     17 H1        222.4437   64.2434  167.4555 H         1 30W         0.0467
     18 H2        222.4486   65.8661  168.2259 H         1 30W         0.0467
     19 H3        223.0021   65.6764  166.5275 H         1 30W         0.0467
     20 H4        217.0406   71.9601  163.9071 H         1 30W         0.1344
     21 H5        213.8932   69.9312  163.4497 H         1 30W         0.0673
     22 H6        214.8910   71.0044  162.4108 H         1 30W         0.0673
     23 H7        214.3272   71.5795  164.0164 H         1 30W         0.0673
     24 H8        220.2183   69.1810  165.7052 H         1 30W         0.2649
     25 H9        221.2838   67.5650  166.7000 H         1 30W         0.1884
     26 H10       218.2218   65.6376  166.3515 H         1 30W         0.1890
@<TRIPOS>BOND
     1    9    1 am 
     2    1   15 1  
     3    1   16 2  
     4    4    2 ar 
     5    2    5 1  
     6    2   14 ar 
     7    6    3 1  
     8   13    4 ar 
     9    8    6 am 
    10    6   10 2  
    11    7   11 ar 
    12   12    7 1  
    13   11    8 ar 
    14   11    9 ar 
    15   12   13 ar 
    16   12   15 ar 
    17   14   15 ar 
    18    3   17 1  
    19    3   18 1  
    20    3   19 1  
    21    4   20 1  
    22    5   21 1  
    23    5   22 1  
    24    5   23 1  
    25    7   24 1  
    26    8   25 1  
    27    9   26 1  
@<TRIPOS>SUBSTRUCTURE
     1 30W         1

