### 
### Created by X-TOOL on Mon Sep 10 21:13:18 2018
### 

@<TRIPOS>MOLECULE
4pjt_ligand
   42    46     1     0     0
SMALL
GAST_HUCK


@<TRIPOS>ATOM
      1 N1        -40.4220    6.0250  -10.0010 N.2       1 2YQ        -0.1937
      2 N3        -37.9180    8.7860   -8.2690 N.pl3     1 2YQ        -0.3026
      3 C4        -41.6760    7.7080  -11.0760 C.2       1 2YQ         0.2296
      4 C5        -38.4930    6.4420   -8.5600 C.3       1 2YQ         0.1172
      5 C6        -38.0060    7.5030   -7.5590 C.3       1 2YQ         0.0976
      6 C7        -38.9230    9.1610   -9.0810 C.ar      1 2YQ         0.0552
      7 C8        -39.1290   10.5150   -9.3240 C.ar      1 2YQ        -0.0069
      8 C10       -41.0290   10.0250  -10.7270 C.ar      1 2YQ        -0.0233
      9 C13       -34.2870    6.6360   -7.4600 C.ar      1 2YQ        -0.0348
     10 C15       -35.3780    5.7760   -5.5060 C.ar      1 2YQ        -0.0348
     11 C17       -38.7690    5.1990   -7.8650 C.2       1 2YQ         0.1614
     12 F2        -33.0980    5.3820   -5.8270 F         1 2YQ        -0.1893
     13 C14       -34.2290    5.9450   -6.2620 C.ar      1 2YQ         0.1248
     14 C12       -35.5190    7.1610   -7.8660 C.ar      1 2YQ        -0.0595
     15 C16       -36.5920    6.3140   -5.9120 C.ar      1 2YQ        -0.0595
     16 C11       -36.6760    6.9950   -7.1030 C.ar      1 2YQ        -0.0174
     17 N6        -39.6950    4.9420   -6.9230 N.2       1 2YQ        -0.2949
     18 C18       -39.5230    3.6600   -6.5080 C.2       1 2YQ         0.0485
     19 N5        -38.4950    3.0980   -7.1600 N.2       1 2YQ        -0.2016
     20 N4        -38.0210    4.0920   -7.9840 N.pl3     1 2YQ        -0.1785
     21 C19       -36.8600    3.7330   -8.8370 C.3       1 2YQ         0.0633
     22 C3        -39.6140    6.9070   -9.4140 C.2       1 2YQ         0.0725
     23 C2        -39.7910    8.2500   -9.6550 C.ar      1 2YQ         0.0323
     24 C9        -40.1570   10.9310  -10.1200 C.ar      1 2YQ         0.1243
     25 F1        -40.3190   12.2290  -10.2750 F         1 2YQ        -0.1867
     26 C1        -40.8500    8.6650  -10.4760 C.ar      1 2YQ         0.0499
     27 O         -42.6010    8.0090  -11.8350 O.2       1 2YQ        -0.3956
     28 N2        -41.4670    6.4270  -10.8460 N.am      1 2YQ        -0.1782
     29 H         -37.0947    9.3927   -8.1463 H         1 2YQ         0.1807
     30 H         -37.6542    6.2425   -9.2431 H         1 2YQ         0.0759
     31 H         -38.6937    7.5976   -6.7057 H         1 2YQ         0.0763
     32 H         -38.4665   11.2472   -8.8768 H         1 2YQ         0.0520
     33 H         -41.8250   10.3701  -11.3769 H         1 2YQ         0.0532
     34 H         -33.3998    6.7672   -8.0688 H         1 2YQ         0.0587
     35 H         -35.3282    5.2135   -4.5807 H         1 2YQ         0.0587
     36 H         -35.5764    7.7114   -8.7981 H         1 2YQ         0.0548
     37 H         -37.4724    6.1971   -5.2905 H         1 2YQ         0.0548
     38 H         -40.1316    3.1612   -5.7552 H         1 2YQ         0.0832
     39 H         -36.5437    2.7039   -8.6115 H         1 2YQ         0.0598
     40 H         -36.0288    4.4246   -8.6350 H         1 2YQ         0.0598
     41 H         -37.1473    3.8044   -9.8964 H         1 2YQ         0.0598
     42 H         -42.0544    5.7406  -11.2747 H         1 2YQ         0.2533
@<TRIPOS>BOND
     1   22    1 2  
     2    1   28 1  
     3    5    2 1  
     4    2    6 1  
     5    3   26 1  
     6    3   27 2  
     7   28    3 am 
     8    5    4 1  
     9    4   11 1  
    10    4   22 1  
    11   16    5 1  
    12    6    7 ar 
    13    6   23 ar 
    14    7   24 ar 
    15   24    8 ar 
    16    8   26 ar 
    17    9   13 ar 
    18   14    9 ar 
    19   13   10 ar 
    20   10   15 ar 
    21   11   17 2  
    22   11   20 1  
    23   13   12 1  
    24   14   16 ar 
    25   15   16 ar 
    26   17   18 1  
    27   18   19 2  
    28   19   20 1  
    29   20   21 1  
    30   22   23 1  
    31   23   26 ar 
    32   24   25 1  
    33    2   29 1  
    34    4   30 1  
    35    5   31 1  
    36    7   32 1  
    37    8   33 1  
    38    9   34 1  
    39   10   35 1  
    40   14   36 1  
    41   15   37 1  
    42   18   38 1  
    43   21   39 1  
    44   21   40 1  
    45   21   41 1  
    46   28   42 1  
@<TRIPOS>SUBSTRUCTURE
     1 2YQ         1

