### 
### Created by X-TOOL on Mon Sep 10 21:13:17 2018
### 

@<TRIPOS>MOLECULE
4pkb_ligand
   15    14     1     0     0
SMALL
GAST_HUCK


@<TRIPOS>ATOM
      1 C1         13.9670  -31.3260  -10.3090 C.3       1 MAY         0.0456
      2 O1         14.0580  -29.0620  -11.5870 O.2       1 MAY        -0.5191
      3 P1         14.0740  -30.5420  -11.7610 P.3       1 MAY         0.1336
      4 C2         15.0510  -30.9110   -9.4320 C.3       1 MAY        -0.0439
      5 O2         12.8300  -31.2940  -12.7560 O.3       1 MAY        -0.2629
      6 CM         12.4200  -32.6980  -12.5630 C.3       1 MAY         0.0805
      7 H1         14.0307  -32.4113  -10.4766 H         1 MAY         0.0525
      8 H2         13.0040  -31.0840   -9.8356 H         1 MAY         0.0525
      9 H3         14.9639  -30.7601  -12.1812 H         1 MAY         0.2045
     10 H4         14.9678  -31.4395   -8.4709 H         1 MAY         0.0249
     11 H5         14.9890  -29.8262   -9.2605 H         1 MAY         0.0249
     12 H6         16.0158  -31.1535   -9.9014 H         1 MAY         0.0249
     13 H7         11.6348  -32.9538  -13.2896 H         1 MAY         0.0607
     14 H8         12.0319  -32.8297  -11.5422 H         1 MAY         0.0607
     15 H9         13.2876  -33.3573  -12.7133 H         1 MAY         0.0607
@<TRIPOS>BOND
     1    1    3 1  
     2    1    4 1  
     3    3    2 2  
     4    3    5 1  
     5    5    6 1  
     6    1    7 1  
     7    1    8 1  
     8    3    9 1  
     9    4   10 1  
    10    4   11 1  
    11    4   12 1  
    12    6   13 1  
    13    6   14 1  
    14    6   15 1  
@<TRIPOS>SUBSTRUCTURE
     1 MAY         1

