### 
### Created by X-TOOL on Mon Sep 10 21:13:19 2018
### 

@<TRIPOS>MOLECULE
4pkr_ligand
   44    45     1     0     0
SMALL
GAST_HUCK


@<TRIPOS>ATOM
      1 C1         11.5500   20.0220   27.9210 C.2       1 2ZL         0.2207
      2 C6         11.2180   18.4570   26.0420 C.3       1 2ZL        -0.0275
      3 C13         6.5780   17.5400   26.7030 C.ar      1 2ZL        -0.0588
      4 C14         5.6930   16.9170   25.8330 C.ar      1 2ZL        -0.0685
      5 C2         10.8330   19.8190   26.6130 C.3       1 2ZL         0.1303
      6 N3         12.2870   21.1230   28.0480 N.am      1 2ZL        -0.1627
      7 O4         11.4430   19.2020   28.8180 O.2       1 2ZL        -0.3949
      8 O5         13.3980   21.1210   28.8890 O.3       1 2ZL        -0.2717
      9 N7          9.3860   19.9670   26.7760 N.am      1 2ZL        -0.2019
     10 S8          8.6910   21.3130   26.5930 S.o2      1 2ZL         0.0711
     11 O9          9.5300   22.1910   25.8230 O.2       1 2ZL        -0.1504
     12 O10         7.4300   21.1430   25.9280 O.2       1 2ZL        -0.1504
     13 C11         8.6790   18.7700   27.2240 C.3       1 2ZL         0.0661
     14 C12         7.7570   18.1050   26.2250 C.ar      1 2ZL        -0.0242
     15 C15         5.9900   16.8620   24.4760 C.ar      1 2ZL        -0.0687
     16 C16         7.1670   17.4280   23.9950 C.ar      1 2ZL        -0.0685
     17 C17         8.0510   18.0530   24.8670 C.ar      1 2ZL        -0.0588
     18 C18         8.4660   21.9510   28.0430 C.ar      1 2ZL         0.0980
     19 C19         7.4010   21.5370   28.8360 C.ar      1 2ZL        -0.0357
     20 C20         7.2050   22.0940   30.0950 C.ar      1 2ZL        -0.0105
     21 C21         8.0700   23.0650   30.5660 C.ar      1 2ZL         0.1329
     22 C22         9.1330   23.4850   29.7770 C.ar      1 2ZL        -0.0331
     23 C23         9.3280   22.9320   28.5170 C.ar      1 2ZL        -0.0440
     24 F24         7.8810   23.6010   31.7850 F         1 2ZL        -0.1891
     25 C25         6.0530   21.6380   30.9510 C.3       1 2ZL        -0.0303
     26 H          12.3117   18.3981   25.9399 H         1 2ZL         0.0273
     27 H          10.7502   18.3277   25.0549 H         1 2ZL         0.0273
     28 H          10.8698   17.6636   26.7196 H         1 2ZL         0.0273
     29 H           6.3492   17.5867   27.7616 H         1 2ZL         0.0557
     30 H           4.7768   16.4766   26.2094 H         1 2ZL         0.0599
     31 H          11.1710   20.5932   25.9085 H         1 2ZL         0.0754
     32 H          12.0439   21.9499   27.5409 H         1 2ZL         0.2217
     33 H          13.8115   21.9760   28.8675 H         1 2ZL         0.2490
     34 H           8.0743   19.0493   28.0994 H         1 2ZL         0.0643
     35 H           9.4356   18.0292   27.5221 H         1 2ZL         0.0643
     36 H           5.3035   16.3773   23.7912 H         1 2ZL         0.0559
     37 H           7.3953   17.3813   22.9363 H         1 2ZL         0.0599
     38 H           8.9650   18.4976   24.4901 H         1 2ZL         0.0557
     39 H           6.7204   20.7764   28.4708 H         1 2ZL         0.0565
     40 H           9.8120   24.2458   30.1448 H         1 2ZL         0.0586
     41 H          10.1554   23.2672   27.9021 H         1 2ZL         0.0568
     42 H           5.4798   20.8677   30.4142 H         1 2ZL         0.0383
     43 H           5.3989   22.4943   31.1720 H         1 2ZL         0.0383
     44 H           6.4388   21.2188   31.8920 H         1 2ZL         0.0383
@<TRIPOS>BOND
     1    5    1 1  
     2    1    6 am 
     3    1    7 2  
     4    5    2 1  
     5    3    4 ar 
     6   14    3 ar 
     7    4   15 ar 
     8    9    5 1  
     9    6    8 1  
    10    9   10 am 
    11   13    9 1  
    12   10   11 2  
    13   10   12 2  
    14   10   18 1  
    15   13   14 1  
    16   14   17 ar 
    17   15   16 ar 
    18   16   17 ar 
    19   18   19 ar 
    20   18   23 ar 
    21   19   20 ar 
    22   20   21 ar 
    23   20   25 1  
    24   21   22 ar 
    25   21   24 1  
    26   22   23 ar 
    27    2   26 1  
    28    2   27 1  
    29    2   28 1  
    30    3   29 1  
    31    4   30 1  
    32    5   31 1  
    33    6   32 1  
    34    8   33 1  
    35   13   34 1  
    36   13   35 1  
    37   15   36 1  
    38   16   37 1  
    39   17   38 1  
    40   19   39 1  
    41   22   40 1  
    42   23   41 1  
    43   25   42 1  
    44   25   43 1  
    45   25   44 1  
@<TRIPOS>SUBSTRUCTURE
     1 2ZL         1

