### 
### Created by X-TOOL on Mon Sep 10 21:13:19 2018
### 

@<TRIPOS>MOLECULE
4pks_ligand
   43    44     1     0     0
SMALL
GAST_HUCK


@<TRIPOS>ATOM
      1 O4         11.5560   18.9890   28.5850 O.2       1 30H        -0.3949
      2 C6         11.0780   18.4050   25.7920 C.3       1 30H        -0.0275
      3 C11         8.6940   18.7410   27.2980 C.3       1 30H         0.0722
      4 C12         7.6010   18.1020   26.4700 C.ar      1 30H         0.0038
      5 C13         7.6850   17.9970   25.0880 C.ar      1 30H        -0.0389
      6 C14         6.6360   17.3910   24.4060 C.ar      1 30H        -0.0404
      7 C15         5.5420   16.9030   25.1130 C.ar      1 30H         0.0042
      8 C17         6.4860   17.5920   27.1270 C.ar      1 30H         0.0141
      9 C18         8.3930   21.9020   27.9020 C.ar      1 30H         0.0980
     10 C19         7.2910   21.5290   28.6630 C.ar      1 30H        -0.0357
     11 C20         7.0850   22.0920   29.9160 C.ar      1 30H        -0.0105
     12 C1         11.6020   19.8500   27.7210 C.2       1 30H         0.2208
     13 C2         10.7800   19.7410   26.4610 C.3       1 30H         0.1305
     14 N3         12.3790   20.9220   27.8430 N.am      1 30H        -0.1627
     15 O5         13.4380   20.8950   28.7460 O.3       1 30H        -0.2717
     16 N7          9.3450   19.9110   26.7110 N.am      1 30H        -0.2007
     17 S8          8.6200   21.2390   26.4660 S.o2      1 30H         0.0712
     18 O9          7.3530   21.0400   25.8160 O.2       1 30H        -0.1504
     19 O10         9.4340   22.1010   25.6520 O.2       1 30H        -0.1504
     20 N16         5.4900   17.0130   26.4460 N.ar      1 30H        -0.3044
     21 C21         7.9760   23.0290   30.4060 C.ar      1 30H         0.1329
     22 C22         9.0800   23.4080   29.6490 C.ar      1 30H        -0.0331
     23 C23         9.2870   22.8470   28.3930 C.ar      1 30H        -0.0440
     24 F24         7.7670   23.5720   31.6180 F         1 30H        -0.1891
     25 C25         5.8920   21.6860   30.7410 C.3       1 30H        -0.0303
     26 H          12.1608   18.3140   25.6211 H         1 30H         0.0273
     27 H          10.5490   18.3510   24.8291 H         1 30H         0.0273
     28 H          10.7394   17.5854   26.4428 H         1 30H         0.0273
     29 H           9.4681   17.9803   27.4772 H         1 30H         0.0659
     30 H           8.2526   19.0482   28.2576 H         1 30H         0.0659
     31 H           8.5477   18.3783   24.5538 H         1 30H         0.0678
     32 H           6.6705   17.2991   23.3265 H         1 30H         0.0693
     33 H           4.7251   16.4299   24.5802 H         1 30H         0.0767
     34 H           6.4229   17.6646   28.2067 H         1 30H         0.0766
     35 H           6.5907   20.7969   28.2775 H         1 30H         0.0565
     36 H          11.0943   20.5447   25.7789 H         1 30H         0.0755
     37 H          12.2046   21.7383   27.2923 H         1 30H         0.2217
     38 H          13.8966   21.7266   28.7195 H         1 30H         0.2490
     39 H           9.7786   24.1401   30.0377 H         1 30H         0.0586
     40 H          10.1429   23.1457   27.7987 H         1 30H         0.0568
     41 H           5.3034   20.9372   30.1907 H         1 30H         0.0383
     42 H           5.2670   22.5688   30.9411 H         1 30H         0.0383
     43 H           6.2343   21.2555   31.6936 H         1 30H         0.0383
@<TRIPOS>BOND
     1   12    1 2  
     2   13    2 1  
     3    3    4 1  
     4   16    3 1  
     5    4    5 ar 
     6    4    8 ar 
     7    5    6 ar 
     8    6    7 ar 
     9   20    7 ar 
    10    8   20 ar 
    11    9   10 ar 
    12   17    9 1  
    13    9   23 ar 
    14   10   11 ar 
    15   11   21 ar 
    16   11   25 1  
    17   13   12 1  
    18   12   14 am 
    19   16   13 1  
    20   14   15 1  
    21   16   17 am 
    22   17   18 2  
    23   17   19 2  
    24   21   22 ar 
    25   21   24 1  
    26   22   23 ar 
    27    2   26 1  
    28    2   27 1  
    29    2   28 1  
    30    3   29 1  
    31    3   30 1  
    32    5   31 1  
    33    6   32 1  
    34    7   33 1  
    35    8   34 1  
    36   10   35 1  
    37   13   36 1  
    38   14   37 1  
    39   15   38 1  
    40   22   39 1  
    41   23   40 1  
    42   25   41 1  
    43   25   42 1  
    44   25   43 1  
@<TRIPOS>SUBSTRUCTURE
     1 30H         1

