### 
### Created by X-TOOL on Mon Sep 10 21:13:18 2018
### 

@<TRIPOS>MOLECULE
4pkt_ligand
   46    47     1     0     0
SMALL
GAST_HUCK


@<TRIPOS>ATOM
      1 C21         5.9630   15.7190   27.4400 C.ar      1 30O        -0.0252
      2 C20         7.0310   16.4490   27.9430 C.ar      1 30O        -0.0502
      3 C22         5.8890   15.4330   26.0770 C.ar      1 30O         0.1925
      4 C23         6.9040   15.8930   25.2260 C.ar      1 30O        -0.0252
      5 C24         7.9890   16.6230   25.7220 C.ar      1 30O        -0.0502
      6 C19         8.0380   16.9010   27.0890 C.ar      1 30O        -0.0183
      7 C18         9.1740   17.6750   27.7200 C.3       1 30O         0.0687
      8 N6          9.6840   18.8580   27.0340 N.am      1 30O        -0.2010
      9 C1         11.1490   18.7400   26.8280 C.3       1 30O         0.1305
     10 C28        11.5010   17.3840   26.2260 C.3       1 30O        -0.0275
     11 C2         12.0270   18.9190   28.0730 C.2       1 30O         0.2208
     12 N4         13.1040   19.6920   27.9430 N.am      1 30O        -0.1627
     13 O5         13.8550   20.0050   29.0710 O.3       1 30O        -0.2717
     14 O3         11.8130   18.3710   29.1550 O.2       1 30O        -0.3949
     15 S7          8.7900   20.1060   26.7320 S.o2      1 30O         0.0712
     16 O8          7.5030   19.8240   26.1270 O.2       1 30O        -0.1504
     17 O9          9.5170   21.0460   25.9230 O.2       1 30O        -0.1504
     18 C10         8.5960   20.6980   28.2020 C.ar      1 30O         0.0980
     19 C15         9.5890   21.5410   28.7130 C.ar      1 30O        -0.0440
     20 C14         9.4510   22.0330   29.9980 C.ar      1 30O        -0.0331
     21 C13         8.3480   21.6730   30.7720 C.ar      1 30O         0.1329
     22 F16         8.2430   22.1780   32.0100 F         1 30O        -0.1891
     23 C12         7.3650   20.8200   30.2750 C.ar      1 30O        -0.0105
     24 C11         7.4920   20.3220   28.9810 C.ar      1 30O        -0.0357
     25 C17         6.1760   20.4320   31.1240 C.3       1 30O        -0.0303
     26 N1          4.7880   14.6920   25.5950 N.2       1 30O         0.3095
     27 O1          4.6690   14.3790   24.2400 O.2       1 30O         0.1751
     28 O4          3.8040   14.2620   26.4940 O.2       1 30O         0.1751
     29 H           5.1842   15.3702   28.1085 H         1 30O         0.0676
     30 H           7.0831   16.6689   29.0032 H         1 30O         0.0574
     31 H           6.8468   15.6790   24.1649 H         1 30O         0.0676
     32 H           8.7751   16.9656   25.0589 H         1 30O         0.0574
     33 H          10.0173   16.9777   27.8326 H         1 30O         0.0656
     34 H           8.8315   17.9998   28.7136 H         1 30O         0.0656
     35 H          11.4314   19.5249   26.1109 H         1 30O         0.0755
     36 H          12.5896   17.3182   26.0820 H         1 30O         0.0273
     37 H          10.9954   17.2712   25.2556 H         1 30O         0.0273
     38 H          11.1721   16.5844   26.9060 H         1 30O         0.0273
     39 H          13.3694   20.0431   27.0451 H         1 30O         0.2217
     40 H          14.5850   20.5591   28.8204 H         1 30O         0.2490
     41 H          10.4518   21.8040   28.1118 H         1 30O         0.0568
     42 H          10.2022   22.7003   30.4048 H         1 30O         0.0586
     43 H           6.7435   19.6490   28.5788 H         1 30O         0.0565
     44 H           6.2516   20.9213   32.1063 H         1 30O         0.0383
     45 H           6.1619   19.3403   31.2583 H         1 30O         0.0383
     46 H           5.2493   20.7521   30.6253 H         1 30O         0.0383
@<TRIPOS>BOND
     1    1    2 ar 
     2    1    3 ar 
     3    2    6 ar 
     4    3    4 ar 
     5    3   26 1  
     6    4    5 ar 
     7    5    6 ar 
     8    6    7 1  
     9    7    8 1  
    10    8    9 1  
    11    8   15 am 
    12    9   10 1  
    13    9   11 1  
    14   11   12 am 
    15   11   14 2  
    16   12   13 1  
    17   15   16 2  
    18   15   17 2  
    19   15   18 1  
    20   18   19 ar 
    21   18   24 ar 
    22   19   20 ar 
    23   20   21 ar 
    24   21   22 1  
    25   21   23 ar 
    26   23   24 ar 
    27   23   25 1  
    28   26   27 2  
    29   26   28 2  
    30    1   29 1  
    31    2   30 1  
    32    4   31 1  
    33    5   32 1  
    34    7   33 1  
    35    7   34 1  
    36    9   35 1  
    37   10   36 1  
    38   10   37 1  
    39   10   38 1  
    40   12   39 1  
    41   13   40 1  
    42   19   41 1  
    43   20   42 1  
    44   24   43 1  
    45   25   44 1  
    46   25   45 1  
    47   25   46 1  
@<TRIPOS>SUBSTRUCTURE
     1 30O         1

