### 
### Created by X-TOOL on Mon Sep 10 21:13:18 2018
### 

@<TRIPOS>MOLECULE
4pku_ligand
   46    47     1     0     0
SMALL
GAST_HUCK


@<TRIPOS>ATOM
      1 C21         7.8790   15.3600   23.7160 C.ar      1 30P         0.0281
      2 C20         8.5540   16.1190   24.6670 C.ar      1 30P        -0.0424
      3 C22         7.0110   14.3520   24.1190 C.ar      1 30P        -0.0516
      4 C23         6.8200   14.1030   25.4720 C.ar      1 30P        -0.0801
      5 C24         7.4980   14.8600   26.4210 C.ar      1 30P        -0.0721
      6 C19         8.3630   15.8750   26.0260 C.ar      1 30P        -0.0362
      7 C18         9.0880   16.6640   27.1040 C.3       1 30P         0.0631
      8 N6          9.6320   17.9530   26.6850 N.am      1 30P        -0.2022
      9 C1         11.0800   18.0170   26.4680 C.3       1 30P         0.1303
     10 C28        11.6330   16.7410   25.8390 C.3       1 30P        -0.0275
     11 C2         11.8620   18.2820   27.7240 C.2       1 30P         0.2207
     12 N4         12.7340   19.2920   27.7560 N.am      1 30P        -0.1627
     13 O5         13.6340   19.2970   28.7510 O.3       1 30P        -0.2717
     14 O3         11.7550   17.4750   28.9290 O.2       1 30P        -0.3949
     15 S7          8.7490   19.1810   26.5210 S.o2      1 30P         0.0711
     16 O8          7.4860   18.7790   25.9690 O.2       1 30P        -0.1504
     17 O9          9.3930   20.1220   25.6510 O.2       1 30P        -0.1504
     18 C10         8.5230   19.8740   27.9430 C.ar      1 30P         0.0980
     19 C15         9.2340   21.0240   28.2680 C.ar      1 30P        -0.0440
     20 C14         9.0470   21.6340   29.5020 C.ar      1 30P        -0.0331
     21 C13         8.1490   21.0920   30.4150 C.ar      1 30P         0.1329
     22 F16         7.9630   21.6810   31.6090 F         1 30P        -0.1891
     23 C12         7.4400   19.9470   30.0940 C.ar      1 30P        -0.0105
     24 C11         7.6270   19.3350   28.8590 C.ar      1 30P        -0.0357
     25 C17         6.4680   19.3640   31.0850 C.3       1 30P        -0.0303
     26 N1          8.0780   15.6210   22.2640 N.pl3     1 30P        -0.3383
     27 H           9.2314   16.9035   24.3496 H         1 30P         0.0451
     28 H           6.4840   13.7612   23.3786 H         1 30P         0.0459
     29 H           6.1422   13.3183   25.7882 H         1 30P         0.0566
     30 H           7.3514   14.6577   27.4758 H         1 30P         0.0447
     31 H           9.9221   16.0480   27.4710 H         1 30P         0.0641
     32 H           8.3785   16.8468   27.9245 H         1 30P         0.0641
     33 H          11.2643   18.8490   25.7725 H         1 30P         0.0754
     34 H          12.7193   16.8424   25.6986 H         1 30P         0.0273
     35 H          11.1514   16.5741   24.8642 H         1 30P         0.0273
     36 H          11.4270   15.8869   26.5008 H         1 30P         0.0273
     37 H          12.7172   20.0158   27.0662 H         1 30P         0.2217
     38 H          14.1941   20.0596   28.6660 H         1 30P         0.2490
     39 H           9.9355   21.4453   27.5571 H         1 30P         0.0568
     40 H           9.6005   22.5316   29.7530 H         1 30P         0.0586
     41 H           7.0734   18.4367   28.6105 H         1 30P         0.0565
     42 H           6.4576   19.9816   31.9952 H         1 30P         0.0383
     43 H           6.7754   18.3393   31.3408 H         1 30P         0.0383
     44 H           5.4608   19.3452   30.6432 H         1 30P         0.0383
     45 H           8.7196   16.3663   21.9579 H         1 30P         0.1718
     46 H           7.5740   15.0563   21.5654 H         1 30P         0.1718
@<TRIPOS>BOND
     1    1    2 ar 
     2    1    3 ar 
     3    1   26 1  
     4    2    6 ar 
     5    3    4 ar 
     6    4    5 ar 
     7    5    6 ar 
     8    6    7 1  
     9    7    8 1  
    10    8    9 1  
    11    8   15 am 
    12    9   10 1  
    13    9   11 1  
    14   11   12 am 
    15   11   14 2  
    16   12   13 1  
    17   15   16 2  
    18   15   17 2  
    19   15   18 1  
    20   18   19 ar 
    21   18   24 ar 
    22   19   20 ar 
    23   20   21 ar 
    24   21   22 1  
    25   21   23 ar 
    26   23   24 ar 
    27   23   25 1  
    28    2   27 1  
    29    3   28 1  
    30    4   29 1  
    31    5   30 1  
    32    7   31 1  
    33    7   32 1  
    34    9   33 1  
    35   10   34 1  
    36   10   35 1  
    37   10   36 1  
    38   12   37 1  
    39   13   38 1  
    40   19   39 1  
    41   20   40 1  
    42   24   41 1  
    43   25   42 1  
    44   25   43 1  
    45   25   44 1  
    46   26   45 1  
    47   26   46 1  
@<TRIPOS>SUBSTRUCTURE
     1 30P         1

