### 
### Created by X-TOOL on Mon Sep 10 21:13:18 2018
### 

@<TRIPOS>MOLECULE
4pkv_ligand
   50    51     1     0     0
SMALL
GAST_HUCK


@<TRIPOS>ATOM
      1 C1         11.5840   19.1180   26.6790 C.3       1 30R         0.1302
      2 C2         12.3510   19.2000   28.0010 C.2       1 30R         0.2207
      3 C3          4.5450   15.4200   25.5120 C.3       1 30R        -0.0046
      4 O3         12.3190   18.2100   29.0790 O.2       1 30R        -0.3949
      5 N4         13.1660   20.2450   28.2310 N.am      1 30R        -0.1627
      6 N5          3.8120   15.0860   26.7680 N.4       1 30R         0.2299
      7 C10         8.6140   20.8100   27.9240 C.ar      1 30R         0.0980
      8 C11         7.5180   20.1310   28.4660 C.ar      1 30R        -0.0357
      9 C12         7.0620   20.4400   29.7390 C.ar      1 30R        -0.0105
     10 C13         7.7070   21.4230   30.4730 C.ar      1 30R         0.1329
     11 C14         8.8090   22.1040   29.9480 C.ar      1 30R        -0.0331
     12 C15         9.2670   21.7980   28.6680 C.ar      1 30R        -0.0440
     13 C17         5.8790   19.7090   30.3290 C.3       1 30R        -0.0303
     14 C18         9.6310   17.7960   27.0810 C.3       1 30R         0.0630
     15 C19         8.3170   17.2060   26.5920 C.ar      1 30R        -0.0309
     16 C20         8.0480   16.9450   25.2450 C.ar      1 30R        -0.0651
     17 C21         6.8200   16.3700   24.8880 C.ar      1 30R        -0.0617
     18 C22         5.8750   16.0450   25.8730 C.ar      1 30R        -0.0054
     19 C23         6.1550   16.2950   27.2150 C.ar      1 30R        -0.0617
     20 C24         7.3730   16.8650   27.5690 C.ar      1 30R        -0.0651
     21 C28        12.1040   17.8550   25.9790 C.3       1 30R        -0.0275
     22 N6         10.0830   19.1440   26.7000 N.am      1 30R        -0.2029
     23 O5         13.9370   20.2750   29.3380 O.3       1 30R        -0.2717
     24 S7          9.1360   20.4000   26.4570 S.o2      1 30R         0.0710
     25 O8          7.9670   20.1980   25.6030 O.2       1 30R        -0.1504
     26 O9          9.8680   21.4950   25.8600 O.2       1 30R        -0.1504
     27 F16         7.2520   21.7210   31.7050 F         1 30R        -0.1891
     28 H          11.8869   19.9924   26.0843 H         1 30R         0.0754
     29 H           3.9527   16.1302   24.9164 H         1 30R         0.0965
     30 H           4.7141   14.5033   24.9280 H         1 30R         0.0965
     31 H          13.2007   21.0026   27.5791 H         1 30R         0.2217
     32 H           2.9238   14.6687   26.5378 H         1 30R         0.2007
     33 H           3.6596   15.9272   27.3020 H         1 30R         0.2007
     34 H           4.3573   14.4364   27.3127 H         1 30R         0.2007
     35 H           7.0223   19.3593   27.8883 H         1 30R         0.0565
     36 H           9.3059   22.8680   30.5349 H         1 30R         0.0586
     37 H          10.1212   22.3207   28.2529 H         1 30R         0.0568
     38 H           5.5042   18.9722   29.6033 H         1 30R         0.0383
     39 H           5.0823   20.4302   30.5640 H         1 30R         0.0383
     40 H           6.1890   19.1923   31.2493 H         1 30R         0.0383
     41 H          10.4190   17.1043   26.7485 H         1 30R         0.0630
     42 H           9.5781   17.7908   28.1797 H         1 30R         0.0630
     43 H           8.7817   17.1849   24.4840 H         1 30R         0.0540
     44 H           6.5993   16.1754   23.8447 H         1 30R         0.0542
     45 H           5.4272   16.0465   27.9789 H         1 30R         0.0542
     46 H           7.5947   17.0477   28.6142 H         1 30R         0.0540
     47 H          13.2040   17.8627   25.9784 H         1 30R         0.0273
     48 H          11.7369   17.8328   24.9423 H         1 30R         0.0273
     49 H          11.7439   16.9643   26.5146 H         1 30R         0.0273
     50 H          14.4472   21.0763   29.3456 H         1 30R         0.2490
@<TRIPOS>BOND
     1    1    2 1  
     2    1   21 1  
     3   22    1 1  
     4    2    4 2  
     5    2    5 am 
     6    3    6 1  
     7   18    3 1  
     8    5   23 1  
     9    7    8 ar 
    10    7   12 ar 
    11   24    7 1  
    12    8    9 ar 
    13    9   10 ar 
    14    9   13 1  
    15   11   10 ar 
    16   10   27 1  
    17   12   11 ar 
    18   14   15 1  
    19   22   14 1  
    20   15   16 ar 
    21   15   20 ar 
    22   16   17 ar 
    23   17   18 ar 
    24   19   18 ar 
    25   20   19 ar 
    26   22   24 am 
    27   24   25 2  
    28   24   26 2  
    29    1   28 1  
    30    3   29 1  
    31    3   30 1  
    32    5   31 1  
    33    6   32 1  
    34    6   33 1  
    35    6   34 1  
    36    8   35 1  
    37   11   36 1  
    38   12   37 1  
    39   13   38 1  
    40   13   39 1  
    41   13   40 1  
    42   14   41 1  
    43   14   42 1  
    44   16   43 1  
    45   17   44 1  
    46   19   45 1  
    47   20   46 1  
    48   21   47 1  
    49   21   48 1  
    50   21   49 1  
    51   23   50 1  
@<TRIPOS>SUBSTRUCTURE
     1 30R         1

