### 
### Created by X-TOOL on Mon Sep 10 21:13:17 2018
### 

@<TRIPOS>MOLECULE
4pkw_ligand
   56    57     1     0     0
SMALL
GAST_HUCK


@<TRIPOS>ATOM
      1 OAG        14.8940   19.1830   29.0150 O.3       1 GM6        -0.2717
      2 NAF        14.0660   19.1910   27.9010 N.am      1 GM6        -0.1641
      3 CAD        13.0360   18.3490   27.8540 C.2       1 GM6         0.2013
      4 OAE        12.8130   17.5380   28.7370 O.2       1 GM6        -0.3968
      5 CAC        12.1370   18.4070   26.6410 C.3       1 GM6         0.0585
      6 CAB        10.7530   18.9180   27.0360 C.3       1 GM6         0.0657
      7 CAK         9.9600   19.1100   25.7720 C.2       1 GM6         0.1836
      8 OAL        10.1470   20.0940   25.0790 O.2       1 GM6        -0.3965
      9 NAM         9.0810   18.1660   25.4300 N.am      1 GM6        -0.2642
     10 CAN         8.3330   18.2500   24.1820 C.3       1 GM6         0.1350
     11 CAY         7.2310   19.2740   24.2570 C.2       1 GM6         0.2027
     12 OAZ         6.8340   19.6740   25.3440 O.2       1 GM6        -0.3944
     13 NBB         6.7020   19.6820   23.1050 N.am      1 GM6        -0.2880
     14 CBA         7.3980   20.5550   22.1770 C.3       1 GM6         0.0196
     15 CAO         7.6830   16.9170   23.8290 C.3       1 GM6         0.0042
     16 CAP         8.6200   15.7540   24.0590 C.2       1 GM6        -0.0418
     17 CAT         8.4540   14.7380   24.9870 C.2       1 GM6         0.0167
     18 NAU         9.4730   13.8370   24.9280 N.pl3     1 GM6        -0.2890
     19 CAR        10.3680   14.1820   23.9890 C.ar      1 GM6         0.0603
     20 CAV        11.5570   13.6330   23.5320 C.ar      1 GM6        -0.0443
     21 CAX        12.2380   14.2780   22.5030 C.ar      1 GM6        -0.0768
     22 CAW        11.7610   15.4530   21.9180 C.ar      1 GM6        -0.0792
     23 CAS        10.5790   16.0490   22.3420 C.ar      1 GM6        -0.0747
     24 CAQ         9.8810   15.4260   23.3640 C.ar      1 GM6        -0.0214
     25 CAA        10.9660   20.2370   27.7790 C.3       1 GM6        -0.0288
     26 CAH         9.7140   20.8770   28.3660 C.3       1 GM6        -0.0443
     27 CAJ         9.2520   20.1460   29.6200 C.3       1 GM6        -0.0625
     28 CAI         9.9940   22.3380   28.7040 C.3       1 GM6        -0.0625
     29 H          15.5783   19.8327   28.9043 H         1 GM6         0.2490
     30 H          14.2408   19.8207   27.1441 H         1 GM6         0.2216
     31 H          12.0431   17.3996   26.2095 H         1 GM6         0.0529
     32 H          12.5760   19.0859   25.8951 H         1 GM6         0.0529
     33 H          10.2419   18.1966   27.6904 H         1 GM6         0.0563
     34 H           8.9330   17.3878   26.0403 H         1 GM6         0.1884
     35 H           9.0321   18.5330   23.3813 H         1 GM6         0.0815
     36 H           5.7813   19.3722   22.8678 H         1 GM6         0.1848
     37 H           6.7571   20.7477   21.3040 H         1 GM6         0.0484
     38 H           8.3300   20.0721   21.8481 H         1 GM6         0.0484
     39 H           7.6342   21.5066   22.6757 H         1 GM6         0.0484
     40 H           7.3908   16.9337   22.7687 H         1 GM6         0.0397
     41 H           6.7880   16.7813   24.4539 H         1 GM6         0.0397
     42 H           7.6140   14.6691   25.6767 H         1 GM6         0.0795
     43 H           9.5473   13.0010   25.5251 H         1 GM6         0.2216
     44 H          11.9480   12.7204   23.9671 H         1 GM6         0.0541
     45 H          13.1690   13.8542   22.1442 H         1 GM6         0.0530
     46 H          12.3259   15.9111   21.1142 H         1 GM6         0.0510
     47 H          10.2173   16.9657   21.8906 H         1 GM6         0.0540
     48 H          11.4122   20.9535   27.0737 H         1 GM6         0.0296
     49 H          11.6681   20.0497   28.6048 H         1 GM6         0.0296
     50 H           8.9111   20.8306   27.6156 H         1 GM6         0.0297
     51 H           8.3488   20.6329   30.0164 H         1 GM6         0.0232
     52 H          10.0486   20.1784   30.3778 H         1 GM6         0.0232
     53 H           9.0249   19.0988   29.3713 H         1 GM6         0.0232
     54 H          10.3277   22.8663   27.7987 H         1 GM6         0.0232
     55 H          10.7804   22.3927   29.4712 H         1 GM6         0.0232
     56 H           9.0759   22.8085   29.0857 H         1 GM6         0.0232
@<TRIPOS>BOND
     1    1    2 1  
     2    2    3 am 
     3    3    4 2  
     4    3    5 1  
     5    5    6 1  
     6    6    7 1  
     7    6   25 1  
     8    7    8 2  
     9    7    9 am 
    10    9   10 1  
    11   10   11 1  
    12   10   15 1  
    13   11   12 2  
    14   11   13 am 
    15   13   14 1  
    16   15   16 1  
    17   16   17 2  
    18   16   24 1  
    19   17   18 1  
    20   18   19 1  
    21   19   20 ar 
    22   19   24 ar 
    23   20   21 ar 
    24   21   22 ar 
    25   22   23 ar 
    26   23   24 ar 
    27   25   26 1  
    28   26   27 1  
    29   26   28 1  
    30    1   29 1  
    31    2   30 1  
    32    5   31 1  
    33    5   32 1  
    34    6   33 1  
    35    9   34 1  
    36   10   35 1  
    37   13   36 1  
    38   14   37 1  
    39   14   38 1  
    40   14   39 1  
    41   15   40 1  
    42   15   41 1  
    43   17   42 1  
    44   18   43 1  
    45   20   44 1  
    46   21   45 1  
    47   22   46 1  
    48   23   47 1  
    49   25   48 1  
    50   25   49 1  
    51   26   50 1  
    52   27   51 1  
    53   27   52 1  
    54   27   53 1  
    55   28   54 1  
    56   28   55 1  
    57   28   56 1  
@<TRIPOS>SUBSTRUCTURE
     1 GM6         1

