### 
### Created by X-TOOL on Mon Sep 10 21:13:19 2018
### 

@<TRIPOS>MOLECULE
4pl3_ligand
   45    46     1     0     0
SMALL
GAST_HUCK


@<TRIPOS>ATOM
      1 C21        62.7290   43.1220    1.3370 C.ar      1 31J         0.1209
      2 C23        61.8450   42.5150   -0.8110 C.2       1 31J         0.2529
      3 C01        67.8430   45.6450   -3.8790 C.3       1 31J         0.0365
      4 O02        66.5060   45.3700   -3.4650 O.3       1 31J        -0.3807
      5 C03        65.5310   45.5730   -4.4840 C.3       1 31J         0.0706
      6 C04        64.3900   44.5850   -4.3160 C.3       1 31J         0.0712
      7 O05        63.2810   45.1110   -3.5830 O.3       1 31J        -0.3759
      8 C06        62.2030   44.1620   -3.6130 C.3       1 31J         0.0541
      9 C07        61.1340   44.3710   -2.5360 C.3       1 31J         0.0018
     10 C08        61.6730   43.9370   -1.1950 C.2       1 31J         0.0314
     11 C09        62.0770   44.9590   -0.2190 C.2       1 31J        -0.0384
     12 C10        61.9440   46.4220   -0.5440 C.3       1 31J        -0.0334
     13 C11        62.6150   44.4890    1.0790 C.ar      1 31J        -0.0045
     14 C12        62.9990   45.4260    2.0250 C.ar      1 31J        -0.0440
     15 C13        63.5050   45.0020    3.2450 C.ar      1 31J         0.1063
     16 O14        63.8750   45.9580    4.1640 O.3       1 31J        -0.3318
     17 C15        63.4360   47.3110    3.9900 C.3       1 31J         0.0549
     18 C16        63.6270   43.6390    3.5060 C.ar      1 31J         0.1153
     19 O17        64.1170   43.1720    4.6890 O.3       1 31J        -0.3405
     20 C18        63.2410   42.7100    2.5620 C.ar      1 31J         0.0150
     21 C19        63.3820   41.2780    2.9170 C.3       1 31J        -0.0361
     22 O22        62.3540   42.1760    0.4140 O.3       1 31J        -0.2264
     23 O24        61.5180   41.6210   -1.6060 O.2       1 31J        -0.3835
     24 H          68.5310   45.4651   -3.0398 H         1 31J         0.0524
     25 H          67.9197   46.6952   -4.1972 H         1 31J         0.0524
     26 H          68.1094   44.9868   -4.7191 H         1 31J         0.0524
     27 H          65.9978   45.4261   -5.4692 H         1 31J         0.0582
     28 H          65.1384   46.5981   -4.4134 H         1 31J         0.0582
     29 H          64.7709   43.7010   -3.7836 H         1 31J         0.0583
     30 H          64.0373   44.2879   -5.3146 H         1 31J         0.0583
     31 H          62.6286   43.1562   -3.4822 H         1 31J         0.0578
     32 H          61.7154   44.2287   -4.5967 H         1 31J         0.0578
     33 H          60.2439   43.7738   -2.7832 H         1 31J         0.0404
     34 H          60.8609   45.4357   -2.4933 H         1 31J         0.0404
     35 H          61.5248   46.5365   -1.5545 H         1 31J         0.0391
     36 H          62.9345   46.8985   -0.5018 H         1 31J         0.0391
     37 H          61.2754   46.9006    0.1866 H         1 31J         0.0391
     38 H          62.9045   46.4848    1.8127 H         1 31J         0.0432
     39 H          63.8235   47.9308    4.8120 H         1 31J         0.0569
     40 H          62.3365   47.3431    3.9936 H         1 31J         0.0569
     41 H          63.8110   47.6977    3.0310 H         1 31J         0.0569
     42 H          63.5667   43.4769    5.4009 H         1 31J         0.2432
     43 H          63.0389   40.6565    2.0768 H         1 31J         0.0344
     44 H          62.7738   41.0593    3.8071 H         1 31J         0.0344
     45 H          64.4379   41.0554    3.1305 H         1 31J         0.0344
@<TRIPOS>BOND
     1    1   13 ar 
     2    1   20 ar 
     3   22    1 1  
     4   10    2 1  
     5    2   22 1  
     6    2   23 2  
     7    4    3 1  
     8    5    4 1  
     9    6    5 1  
    10    7    6 1  
    11    8    7 1  
    12    9    8 1  
    13    9   10 1  
    14   10   11 2  
    15   11   12 1  
    16   11   13 1  
    17   13   14 ar 
    18   14   15 ar 
    19   15   16 1  
    20   15   18 ar 
    21   16   17 1  
    22   18   19 1  
    23   18   20 ar 
    24   20   21 1  
    25    3   24 1  
    26    3   25 1  
    27    3   26 1  
    28    5   27 1  
    29    5   28 1  
    30    6   29 1  
    31    6   30 1  
    32    8   31 1  
    33    8   32 1  
    34    9   33 1  
    35    9   34 1  
    36   12   35 1  
    37   12   36 1  
    38   12   37 1  
    39   14   38 1  
    40   17   39 1  
    41   17   40 1  
    42   17   41 1  
    43   19   42 1  
    44   21   43 1  
    45   21   44 1  
    46   21   45 1  
@<TRIPOS>SUBSTRUCTURE
     1 31J         1

