### 
### Created by X-TOOL on Mon Sep 10 21:13:19 2018
### 

@<TRIPOS>MOLECULE
4pl4_ligand
   40    42     1     0     0
SMALL
GAST_HUCK


@<TRIPOS>ATOM
      1 C22        88.1350  -11.7830   70.0880 C.ar      1 31K        -0.0387
      2 C19        89.3450  -10.7380   66.7970 C.3       1 31K         0.0867
      3 C18        90.0090   -9.3850   67.1160 C.3       1 31K         0.0520
      4 C10        87.0980  -11.8670   72.3950 C.ar      1 31K        -0.0542
      5 C13        88.5610  -10.0170   71.6730 C.ar      1 31K        -0.0783
      6 C01        85.2690  -15.0580   73.3630 C.3       1 31K        -0.0357
      7 C03        85.8180  -13.6790   73.4010 C.ar      1 31K        -0.0251
      8 C04        85.5180  -12.8390   74.4860 C.ar      1 31K         0.1171
      9 O05        84.7550  -13.3250   75.4770 O.3       1 31K        -0.3408
     10 C06        86.0010  -11.5400   74.5280 C.ar      1 31K         0.1126
     11 O07        85.7300  -10.7080   75.5790 O.3       1 31K        -0.3271
     12 C08        84.9940   -9.4960   75.4170 C.3       1 31K         0.0566
     13 C09        86.7950  -11.0780   73.4880 C.ar      1 31K        -0.0430
     14 C11        86.6120  -13.1760   72.3320 C.ar      1 31K        -0.0744
     15 C12        87.9440  -11.2330   71.3550 C.ar      1 31K        -0.0501
     16 C14        89.3720   -9.3500   70.7440 C.ar      1 31K        -0.0515
     17 C15        89.5480   -9.9200   69.4940 C.ar      1 31K         0.0713
     18 N16        90.3460   -9.3000   68.5380 N.pl3     1 31K        -0.3120
     19 C17        91.5280   -8.5600   68.9540 C.3       1 31K         0.0137
     20 O20        89.1810  -11.6150   67.9150 O.3       1 31K        -0.3218
     21 C21        88.9500  -11.1160   69.1670 C.ar      1 31K         0.1093
     22 H          87.6568  -12.7180   69.8193 H         1 31K         0.0495
     23 H          89.9650  -11.2532   66.0486 H         1 31K         0.0628
     24 H          88.3499  -10.5372   66.3734 H         1 31K         0.0628
     25 H          89.3141   -8.5717   66.8598 H         1 31K         0.0537
     26 H          90.9279   -9.2836   66.5199 H         1 31K         0.0537
     27 H          88.4089   -9.5836   72.6549 H         1 31K         0.0492
     28 H          85.6078  -15.5624   72.4460 H         1 31K         0.0365
     29 H          84.1699  -15.0155   73.3734 H         1 31K         0.0365
     30 H          85.6227  -15.6178   74.2414 H         1 31K         0.0365
     31 H          84.6333  -12.6549   76.1392 H         1 31K         0.2420
     32 H          84.8980   -8.9925   76.3903 H         1 31K         0.0572
     33 H          83.9931   -9.7248   75.0222 H         1 31K         0.0572
     34 H          85.5237   -8.8366   74.7137 H         1 31K         0.0572
     35 H          87.1888  -10.0691   73.5344 H         1 31K         0.0448
     36 H          86.8377  -13.8025   71.4767 H         1 31K         0.0432
     37 H          89.8498   -8.4107   70.9979 H         1 31K         0.0485
     38 H          91.6216   -8.6041   70.0491 H         1 31K         0.0474
     39 H          91.4348   -7.5111   68.6359 H         1 31K         0.0474
     40 H          92.4211   -9.0054   68.4915 H         1 31K         0.0474
@<TRIPOS>BOND
     1   15    1 ar 
     2    1   21 ar 
     3    3    2 1  
     4    2   20 1  
     5   18    3 1  
     6    4   13 ar 
     7    4   14 ar 
     8   15    4 1  
     9    5   15 ar 
    10   16    5 ar 
    11    7    6 1  
    12    7    8 ar 
    13   14    7 ar 
    14    8    9 1  
    15   10    8 ar 
    16   10   11 1  
    17   13   10 ar 
    18   11   12 1  
    19   17   16 ar 
    20   17   18 1  
    21   17   21 ar 
    22   18   19 1  
    23   20   21 1  
    24    1   22 1  
    25    2   23 1  
    26    2   24 1  
    27    3   25 1  
    28    3   26 1  
    29    5   27 1  
    30    6   28 1  
    31    6   29 1  
    32    6   30 1  
    33    9   31 1  
    34   12   32 1  
    35   12   33 1  
    36   12   34 1  
    37   13   35 1  
    38   14   36 1  
    39   16   37 1  
    40   19   38 1  
    41   19   39 1  
    42   19   40 1  
@<TRIPOS>SUBSTRUCTURE
     1 31K         1

