### 
### Created by X-TOOL on Mon Sep 10 21:13:20 2018
### 

@<TRIPOS>MOLECULE
4pl5_ligand
   43    45     1     0     0
SMALL
GAST_HUCK


@<TRIPOS>ATOM
      1 C10        87.1760  -13.4260   72.0580 C.ar      1 31L        -0.0515
      2 C11        86.4600  -14.6010   71.8520 C.ar      1 31L        -0.0743
      3 C12        87.8420  -12.7260   70.9230 C.ar      1 31L        -0.0409
      4 C14        88.3780  -12.6630   68.5990 C.ar      1 31L        -0.0438
      5 C15        89.0290  -11.4640   68.8080 C.ar      1 31L         0.0409
      6 C16        89.0990  -10.8880   70.0600 C.ar      1 31L        -0.0438
      7 C20        90.9290  -11.3430   65.9310 C.3       1 31L         0.0674
      8 C22        91.8250  -10.1410   67.7700 C.3       1 31L         0.0674
      9 C23        90.4040   -9.6230   67.9600 C.3       1 31L         0.0505
     10 C01        85.1000  -16.5440   72.6840 C.3       1 31L        -0.0357
     11 C03        85.8490  -15.2430   72.9070 C.ar      1 31L        -0.0252
     12 C04        85.9580  -14.6630   74.1640 C.ar      1 31L         0.1171
     13 O05        85.3530  -15.2840   75.1980 O.3       1 31L        -0.3408
     14 C06        86.6640  -13.5070   74.3880 C.ar      1 31L         0.1126
     15 O07        86.7870  -12.9330   75.6150 O.3       1 31L        -0.3271
     16 C08        88.0450  -12.8760   76.3170 C.3       1 31L         0.0566
     17 C09        87.2820  -12.8440   73.3360 C.ar      1 31L        -0.0428
     18 C13        87.7780  -13.2940   69.6690 C.ar      1 31L        -0.0673
     19 C17        88.5060  -11.5090   71.1260 C.ar      1 31L        -0.0673
     20 N18        89.6290  -10.8300   67.7360 N.pl3     1 31L        -0.3041
     21 C19        89.4860  -11.4000   66.4170 C.3       1 31L         0.0505
     22 O21        91.8340  -11.3630   67.0330 O.3       1 31L        -0.3759
     23 H          86.3822  -15.0149   70.8531 H         1 31L         0.0431
     24 H          88.3388  -13.1023   67.6088 H         1 31L         0.0518
     25 H          89.6211   -9.9482   70.1987 H         1 31L         0.0518
     26 H          91.0801  -10.4171   65.3566 H         1 31L         0.0579
     27 H          91.1271  -12.2114   65.2855 H         1 31L         0.0579
     28 H          92.2790  -10.3138   68.7569 H         1 31L         0.0579
     29 H          92.4115   -9.3879   67.2233 H         1 31L         0.0579
     30 H          90.1576   -8.8438   67.2237 H         1 31L         0.0537
     31 H          90.2514   -9.2292   68.9757 H         1 31L         0.0537
     32 H          85.1428  -16.8137   71.6184 H         1 31L         0.0365
     33 H          84.0504  -16.4198   72.9889 H         1 31L         0.0365
     34 H          85.5639  -17.3415   73.2829 H         1 31L         0.0365
     35 H          85.5027  -14.7888   75.9948 H         1 31L         0.2420
     36 H          87.9031  -12.3695   77.2831 H         1 31L         0.0572
     37 H          88.7763  -12.3176   75.7142 H         1 31L         0.0572
     38 H          88.4153  -13.8973   76.4894 H         1 31L         0.0572
     39 H          87.8231  -11.9177   73.4919 H         1 31L         0.0447
     40 H          87.2577  -14.2338   69.5239 H         1 31L         0.0582
     41 H          88.5495  -11.0652   72.1140 H         1 31L         0.0582
     42 H          89.1126  -12.4338   66.4599 H         1 31L         0.0537
     43 H          88.8201  -10.7955   65.7836 H         1 31L         0.0537
@<TRIPOS>BOND
     1    1    2 ar 
     2    3    1 1  
     3    1   17 ar 
     4    2   11 ar 
     5   18    3 ar 
     6   19    3 ar 
     7    5    4 ar 
     8    4   18 ar 
     9    5    6 ar 
    10   20    5 1  
    11    6   19 ar 
    12    7   21 1  
    13   22    7 1  
    14    9    8 1  
    15    8   22 1  
    16    9   20 1  
    17   11   10 1  
    18   11   12 ar 
    19   12   13 1  
    20   12   14 ar 
    21   14   15 1  
    22   14   17 ar 
    23   15   16 1  
    24   20   21 1  
    25    2   23 1  
    26    4   24 1  
    27    6   25 1  
    28    7   26 1  
    29    7   27 1  
    30    8   28 1  
    31    8   29 1  
    32    9   30 1  
    33    9   31 1  
    34   10   32 1  
    35   10   33 1  
    36   10   34 1  
    37   13   35 1  
    38   16   36 1  
    39   16   37 1  
    40   16   38 1  
    41   17   39 1  
    42   18   40 1  
    43   19   41 1  
    44   21   42 1  
    45   21   43 1  
@<TRIPOS>SUBSTRUCTURE
     1 31L         1

