### 
### Created by X-TOOL on Mon Sep 10 21:13:24 2018
### 

@<TRIPOS>MOLECULE
4pl6_ligand
   34    33     1     0     0
SMALL
GAST_HUCK


@<TRIPOS>ATOM
      1 N          -1.6140    6.8020  -15.7860 N.4       1 M3L         0.2327
      2 CA         -0.4450    7.4240  -15.1870 C.3       1 M3L         0.0283
      3 CB          0.7790    7.1280  -16.0590 C.3       1 M3L         0.0026
      4 CG          0.6720    5.7330  -16.6640 C.3       1 M3L        -0.0416
      5 CD          2.0130    5.0080  -16.6880 C.3       1 M3L        -0.0122
      6 CE          2.9410    5.5990  -17.7400 C.3       1 M3L        -0.0309
      7 NZ          4.3060    5.0770  -17.5780 N.4       1 M3L         0.2369
      8 C          -0.6580    8.9120  -15.0610 C.2       1 M3L         0.0844
      9 O          -1.4520    9.3590  -14.2010 O.co2     1 M3L        -0.5643
     10 CM1         4.3330    3.6230  -17.7900 C.3       1 M3L        -0.0418
     11 CM2         4.7990    5.3620  -16.2250 C.3       1 M3L        -0.0418
     12 CM3         5.1750    5.7390  -18.5580 C.3       1 M3L        -0.0418
     13 OXT        -0.0400    9.6980  -15.8170 O.co2     1 M3L        -0.5643
     14 H1         -1.4622    5.8087  -15.8659 H         1 M3L         0.2010
     15 H2         -1.7704    7.1928  -16.7019 H         1 M3L         0.2010
     16 H3         -2.4202    6.9730  -15.2056 H         1 M3L         0.2010
     17 H4         -0.2837    7.0011  -14.1844 H         1 M3L         0.1024
     18 H5          1.6874    7.1871  -15.4415 H         1 M3L         0.0339
     19 H6          0.8365    7.8710  -16.8681 H         1 M3L         0.0339
     20 H7          0.2998    5.8223  -17.6952 H         1 M3L         0.0270
     21 H8         -0.0387    5.1423  -16.0674 H         1 M3L         0.0270
     22 H9          1.8423    3.9457  -16.9167 H         1 M3L         0.0317
     23 H10         2.4874    5.0987  -15.6997 H         1 M3L         0.0317
     24 H11         2.9576    6.6937  -17.6335 H         1 M3L         0.0815
     25 H12         2.5689    5.3335  -18.7405 H         1 M3L         0.0815
     26 H13         5.3613    3.2532  -17.6645 H         1 M3L         0.0778
     27 H14         3.9828    3.3942  -18.8073 H         1 M3L         0.0778
     28 H15         3.6752    3.1333  -17.0569 H         1 M3L         0.0778
     29 H16         4.7848    6.4480  -16.0508 H         1 M3L         0.0778
     30 H17         5.8284    4.9878  -16.1234 H         1 M3L         0.0778
     31 H18         4.1532    4.8639  -15.4869 H         1 M3L         0.0778
     32 H19         4.8093    5.5282  -19.5738 H         1 M3L         0.0778
     33 H20         6.2022    5.3601  -18.4522 H         1 M3L         0.0778
     34 H21         5.1648    6.8249  -18.3827 H         1 M3L         0.0778
@<TRIPOS>BOND
     1    1    2 1  
     2    2    3 1  
     3    2    8 1  
     4    3    4 1  
     5    4    5 1  
     6    5    6 1  
     7    6    7 1  
     8    7   10 1  
     9    7   11 1  
    10    7   12 1  
    11    8    9 ar 
    12    8   13 ar 
    13    1   14 1  
    14    1   15 1  
    15    1   16 1  
    16    2   17 1  
    17    3   18 1  
    18    3   19 1  
    19    4   20 1  
    20    4   21 1  
    21    5   22 1  
    22    5   23 1  
    23    6   24 1  
    24    6   25 1  
    25   10   26 1  
    26   10   27 1  
    27   10   28 1  
    28   11   29 1  
    29   11   30 1  
    30   11   31 1  
    31   12   32 1  
    32   12   33 1  
    33   12   34 1  
@<TRIPOS>SUBSTRUCTURE
     1 M3L         1

