### 
### Created by X-TOOL on Mon Sep 10 21:13:25 2018
### 

@<TRIPOS>MOLECULE
4pli_ligand
   34    33     1     0     0
SMALL
GAST_HUCK


@<TRIPOS>ATOM
      1 N          -1.7300    7.6350  -16.9510 N.4       1 M3L         0.2327
      2 CA         -0.9720    6.9730  -15.9060 C.3       1 M3L         0.0283
      3 CB          0.4870    6.8230  -16.3300 C.3       1 M3L         0.0026
      4 CG          0.6620    5.6060  -17.2320 C.3       1 M3L        -0.0416
      5 CD          2.0660    5.0160  -17.1260 C.3       1 M3L        -0.0122
      6 CE          3.0690    5.8210  -17.9430 C.3       1 M3L        -0.0309
      7 NZ          4.3270    5.0700  -18.0920 N.4       1 M3L         0.2369
      8 C          -1.0510    7.7700  -14.6380 C.2       1 M3L         0.0844
      9 O          -1.3790    7.1760  -13.5880 O.co2     1 M3L        -0.5643
     10 CM1         4.1020    3.8350  -18.8510 C.3       1 M3L        -0.0418
     11 CM2         4.8750    4.7480  -16.7710 C.3       1 M3L        -0.0418
     12 CM3         5.2940    5.8780  -18.8310 C.3       1 M3L        -0.0418
     13 OXT        -0.7850    8.9900  -14.6910 O.co2     1 M3L        -0.5643
     14 H1         -1.6734    7.0952  -17.8004 H         1 M3L         0.2010
     15 H2         -1.3493    8.5545  -17.1112 H         1 M3L         0.2010
     16 H3         -2.6940    7.7152  -16.6675 H         1 M3L         0.2010
     17 H4         -1.3993    5.9746  -15.7308 H         1 M3L         0.1024
     18 H5          1.1132    6.7016  -15.4338 H         1 M3L         0.0339
     19 H6          0.7993    7.7254  -16.8760 H         1 M3L         0.0339
     20 H7          0.4805    5.9069  -18.2744 H         1 M3L         0.0270
     21 H8         -0.0693    4.8383  -16.9393 H         1 M3L         0.0270
     22 H9          2.0488    3.9813  -17.4989 H         1 M3L         0.0317
     23 H10         2.3777    5.0205  -16.0711 H         1 M3L         0.0317
     24 H11         3.2732    6.7729  -17.4311 H         1 M3L         0.0815
     25 H12         2.6471    6.0232  -18.9385 H         1 M3L         0.0815
     26 H13         5.0513    3.2885  -18.9518 H         1 M3L         0.0778
     27 H14         3.7144    4.0839  -19.8499 H         1 M3L         0.0778
     28 H15         3.3717    3.2064  -18.3204 H         1 M3L         0.0778
     29 H16         5.0416    5.6774  -16.2067 H         1 M3L         0.0778
     30 H17         5.8300    4.2152  -16.8901 H         1 M3L         0.0778
     31 H18         4.1647    4.1098  -16.2249 H         1 M3L         0.0778
     32 H19         4.8861    6.1216  -19.8231 H         1 M3L         0.0778
     33 H20         6.2305    5.3130  -18.9483 H         1 M3L         0.0778
     34 H21         5.4935    6.8078  -18.2782 H         1 M3L         0.0778
@<TRIPOS>BOND
     1    1    2 1  
     2    2    3 1  
     3    2    8 1  
     4    3    4 1  
     5    4    5 1  
     6    5    6 1  
     7    6    7 1  
     8    7   10 1  
     9    7   11 1  
    10    7   12 1  
    11    8    9 ar 
    12    8   13 ar 
    13    1   14 1  
    14    1   15 1  
    15    1   16 1  
    16    2   17 1  
    17    3   18 1  
    18    3   19 1  
    19    4   20 1  
    20    4   21 1  
    21    5   22 1  
    22    5   23 1  
    23    6   24 1  
    24    6   25 1  
    25   10   26 1  
    26   10   27 1  
    27   10   28 1  
    28   11   29 1  
    29   11   30 1  
    30   11   31 1  
    31   12   32 1  
    32   12   33 1  
    33   12   34 1  
@<TRIPOS>SUBSTRUCTURE
     1 M3L         1

