### 
### Created by X-TOOL on Mon Sep 10 21:13:17 2018
### 

@<TRIPOS>MOLECULE
4pm0_ligand
   40    42     1     0     0
SMALL
GAST_HUCK


@<TRIPOS>ATOM
      1 C1        -44.5470   27.1740    0.4480 C.2       1 32V         0.2112
      2 C2        -44.9700   24.6020    1.2970 C.cat     1 32V         0.1556
      3 N1        -43.7860   24.8990    0.5620 N.pl3     1 32V        -0.2741
      4 N2        -45.9510   25.5610    1.5850 N.pl3     1 32V        -0.2697
      5 C3        -45.7260   26.8630    1.1210 C.2       1 32V         0.1820
      6 C4        -43.5590   26.1870    0.1720 C.3       1 32V         0.2317
      7 S1        -44.5550   28.8640   -0.0220 S.3       1 32V         0.0903
      8 C5        -46.5570   27.9450    1.3190 C.2       1 32V         0.1309
      9 C6        -46.0460   29.1170    0.7520 C.2       1 32V         0.0938
     10 N3        -45.1730   23.2480    1.7230 N.pl3     1 32V        -0.3382
     11 C7        -47.8600   27.8540    2.0800 C.1       1 32V        -0.0573
     12 C8        -48.9550   27.8320    2.6950 C.1       1 32V        -0.1157
     13 O1        -42.4160   26.4410   -0.5120 O.3       1 32V        -0.3387
     14 C9        -42.8060   23.8300    0.3100 C.3       1 32V         0.0243
     15 C10       -46.4690   22.9270    2.3500 C.3       1 32V         0.0287
     16 C11       -47.4530   22.4790    1.3130 C.3       1 32V        -0.0305
     17 C12       -46.3400   21.7800    3.3090 C.3       1 32V        -0.0305
     18 C13       -41.9320   23.6900    1.5210 C.3       1 32V        -0.0449
     19 C14       -47.7020   21.1330    3.2770 C.3       1 32V        -0.0509
     20 C15       -48.4790   21.7810    2.1800 C.3       1 32V        -0.0509
     21 H         -46.8004   25.3186    2.1148 H         1 32V         0.2132
     22 H         -43.0550   26.4173    1.1222 H         1 32V         0.1321
     23 H         -46.5472   30.0826    0.8011 H         1 32V         0.1432
     24 H         -44.4451   22.5303    1.5966 H         1 32V         0.1681
     25 H         -49.8756   27.8135    3.2120 H         1 32V         0.1213
     26 H         -42.3745   27.3660   -0.7249 H         1 32V         0.2202
     27 H         -42.1903   24.0895   -0.5638 H         1 32V         0.0518
     28 H         -43.3313   22.8824    0.1201 H         1 32V         0.0518
     29 H         -46.8467   23.8171    2.8744 H         1 32V         0.0551
     30 H         -46.9942   21.7868    0.5916 H         1 32V         0.0288
     31 H         -47.8910   23.3325    0.7748 H         1 32V         0.0288
     32 H         -46.1001   22.1394    4.3206 H         1 32V         0.0288
     33 H         -45.5633   21.0758    2.9762 H         1 32V         0.0288
     34 H         -41.1925   22.8939    1.3494 H         1 32V         0.0249
     35 H         -42.5517   23.4331    2.3928 H         1 32V         0.0249
     36 H         -41.4108   24.6403    1.7089 H         1 32V         0.0249
     37 H         -48.2127   21.2844    4.2394 H         1 32V         0.0266
     38 H         -47.6017   20.0553    3.0806 H         1 32V         0.0266
     39 H         -49.0240   21.0243    1.5966 H         1 32V         0.0266
     40 H         -49.1923   22.5094    2.5930 H         1 32V         0.0266
@<TRIPOS>BOND
     1    1    5 2  
     2    6    1 1  
     3    1    7 1  
     4    3    2 ar 
     5    2    4 ar 
     6    2   10 ar 
     7    3    6 1  
     8    3   14 1  
     9    4    5 1  
    10    5    8 1  
    11    6   13 1  
    12    7    9 1  
    13    8    9 2  
    14    8   11 1  
    15   10   15 1  
    16   11   12 3  
    17   14   18 1  
    18   15   16 1  
    19   15   17 1  
    20   16   20 1  
    21   17   19 1  
    22   19   20 1  
    23    4   21 1  
    24    6   22 1  
    25    9   23 1  
    26   10   24 1  
    27   12   25 1  
    28   13   26 1  
    29   14   27 1  
    30   14   28 1  
    31   15   29 1  
    32   16   30 1  
    33   16   31 1  
    34   17   32 1  
    35   17   33 1  
    36   18   34 1  
    37   18   35 1  
    38   18   36 1  
    39   19   37 1  
    40   19   38 1  
    41   20   39 1  
    42   20   40 1  
@<TRIPOS>SUBSTRUCTURE
     1 32V         1

