### 
### Created by X-TOOL on Mon Sep 10 21:13:19 2018
### 

@<TRIPOS>MOLECULE
4pml_ligand
   18    18     1     0     0
SMALL
GAST_HUCK


@<TRIPOS>ATOM
      1 N3         27.3970   49.0010    0.7630 N.pl3     1 3AB        -0.3362
      2 C3         26.1730   49.3540    0.3560 C.ar      1 3AB         0.0407
      3 C2         25.3920   48.4730   -0.4100 C.ar      1 3AB        -0.0250
      4 C4         25.6650   50.6060    0.7180 C.ar      1 3AB        -0.0404
      5 C5         24.3870   50.9940    0.3040 C.ar      1 3AB        -0.0680
      6 C6         23.6120   50.1130   -0.4600 C.ar      1 3AB        -0.0553
      7 C1         24.1050   48.8570   -0.8330 C.ar      1 3AB         0.0379
      8 C1'        23.2190   47.9290   -1.6900 C.2       1 3AB         0.1994
      9 O1'        22.3520   48.3930   -2.4370 O.2       1 3AB        -0.3849
     10 N1'        23.4220   46.6200   -1.5440 N.am      1 3AB        -0.3002
     11 H          27.7812   48.0815    0.5024 H         1 3AB         0.1718
     12 H          27.9555   49.6486    1.3371 H         1 3AB         0.1718
     13 H          25.7804   47.4965   -0.6758 H         1 3AB         0.0565
     14 H          26.2643   51.2779    1.3217 H         1 3AB         0.0550
     15 H          23.9990   51.9699    0.5726 H         1 3AB         0.0594
     16 H          22.6152   50.4080   -0.7673 H         1 3AB         0.0557
     17 H          22.8785   45.9677   -2.0724 H         1 3AB         0.1808
     18 H          24.1178   46.2900   -0.9060 H         1 3AB         0.1808
@<TRIPOS>BOND
     1    1    2 1  
     2    2    3 ar 
     3    2    4 ar 
     4    3    7 ar 
     5    4    5 ar 
     6    5    6 ar 
     7    6    7 ar 
     8    7    8 1  
     9    8    9 2  
    10    8   10 am 
    11    1   11 1  
    12    1   12 1  
    13    3   13 1  
    14    4   14 1  
    15    5   15 1  
    16    6   16 1  
    17   10   17 1  
    18   10   18 1  
@<TRIPOS>SUBSTRUCTURE
     1 3AB         1

