### 
### Created by X-TOOL on Mon Sep 10 21:13:17 2018
### 

@<TRIPOS>MOLECULE
4pmm_ligand
   61    66     1     0     0
SMALL
GAST_HUCK


@<TRIPOS>ATOM
      1 C2         31.5480  -35.1820   -4.9840 C.ar      1 31V        -0.0377
      2 C3         32.1820  -35.0710   -6.2060 C.ar      1 31V        -0.0740
      3 N4         38.7780  -30.9210  -11.7030 N.pl3     1 31V        -0.1560
      4 C5         30.4940  -33.5340   -6.9800 C.ar      1 31V        -0.0345
      5 N6         29.7170  -34.6090   -3.4870 N.pl3     1 31V        -0.2240
      6 C7         33.7140  -34.2100   -8.7460 C.2       1 31V         0.0879
      7 C9         35.9820  -32.7560  -10.2420 C.2       1 31V         0.2436
      8 C10        38.0480  -31.5420  -10.7340 C.2       1 31V         0.1926
      9 C11        39.4350  -30.0930   -9.8390 C.2       1 31V        -0.0076
     10 C12        38.4380  -31.0210   -9.5400 C.2       1 31V        -0.0286
     11 C13        40.1490  -29.3310   -8.7790 C.3       1 31V         0.0294
     12 C15        39.9880  -27.8410   -8.6990 C.2       1 31V        -0.0643
     13 C18        37.4540  -31.4660  -15.1310 C.ar      1 31V        -0.0676
     14 C20        39.8260  -31.1200  -15.2590 C.ar      1 31V        -0.0676
     15 C21        39.8860  -30.9570  -13.8840 C.ar      1 31V        -0.0288
     16 C22        30.3050  -34.9180   -2.3010 C.2       1 31V         0.1048
     17 O          35.7340  -32.1570   -9.1940 O.2       1 31V        -0.3796
     18 N3         37.0360  -32.4230  -11.0380 N.am      1 31V        -0.2014
     19 C14        41.2820  -28.4110   -9.1290 C.2       1 31V        -0.0643
     20 N5         39.6590  -30.0080  -11.1470 N.2       1 31V        -0.2477
     21 C16        38.7180  -31.0520  -13.1250 C.ar      1 31V         0.1030
     22 C19        38.6170  -31.3790  -15.8820 C.ar      1 31V        -0.0702
     23 C17        37.4960  -31.2980  -13.7550 C.ar      1 31V        -0.0288
     24 C8         35.0570  -33.8060  -10.8360 C.3       1 31V         0.1740
     25 N          33.8420  -33.9300  -10.0510 N.pl3     1 31V        -0.1488
     26 N1         32.6440  -33.6890  -10.6110 N.2       1 31V        -0.0892
     27 N2         31.7470  -33.8030   -9.6570 N.2       1 31V        -0.2183
     28 C6         32.3760  -34.1190   -8.4890 C.2       1 31V         0.0631
     29 C4         31.6640  -34.2560   -7.2100 C.ar      1 31V        -0.0346
     30 C          29.8490  -33.6320   -5.7590 C.ar      1 31V         0.1229
     31 O1         28.7290  -32.9190   -5.4240 O.3       1 31V        -0.3224
     32 C26        28.2850  -31.8940   -6.3190 C.3       1 31V         0.0580
     33 C1         30.3740  -34.4710   -4.7610 C.ar      1 31V         0.1233
     34 C24        28.3570  -34.5250   -3.2440 C.2       1 31V         0.0430
     35 C23        28.1980  -34.7970   -1.9200 C.2       1 31V        -0.0083
     36 C25        26.9400  -34.8560   -1.1130 C.3       1 31V        -0.0379
     37 N7         29.4370  -35.0440   -1.3310 N.2       1 31V        -0.3243
     38 H          31.9608  -35.8161   -4.2077 H         1 31V         0.0548
     39 H          33.0956  -35.6259   -6.3864 H         1 31V         0.0480
     40 H          30.0892  -32.8958   -7.7572 H         1 31V         0.0484
     41 H          34.5072  -34.4571   -8.0419 H         1 31V         0.1060
     42 H          38.0517  -31.2758   -8.5542 H         1 31V         0.0126
     43 H          40.1944  -29.9349   -7.8607 H         1 31V         0.0560
     44 H          39.3685  -26.9721   -8.4820 H         1 31V         0.0618
     45 H          36.5084  -31.6661  -15.6217 H         1 31V         0.0596
     46 H          40.7313  -31.0442  -15.8504 H         1 31V         0.0596
     47 H          40.8351  -30.7567  -13.4002 H         1 31V         0.0571
     48 H          31.3788  -35.0463   -2.1729 H         1 31V         0.1209
     49 H          37.0785  -32.8638  -11.9346 H         1 31V         0.2336
     50 H          42.3097  -28.2677   -9.4594 H         1 31V         0.0618
     51 H          38.5793  -31.5138  -16.9569 H         1 31V         0.0545
     52 H          36.5846  -31.3573  -13.1711 H         1 31V         0.0571
     53 H          35.5760  -34.7757  -10.8518 H         1 31V         0.0907
     54 H          34.7937  -33.5142  -11.8634 H         1 31V         0.0907
     55 H          27.3811  -31.4177   -5.9114 H         1 31V         0.0575
     56 H          28.0556  -32.3372   -7.2993 H         1 31V         0.0575
     57 H          29.0770  -31.1393   -6.4341 H         1 31V         0.0575
     58 H          27.5749  -34.2896   -3.9643 H         1 31V         0.0734
     59 H          27.1849  -35.1044   -0.0698 H         1 31V         0.0339
     60 H          26.2746  -35.6278   -1.5271 H         1 31V         0.0339
     61 H          26.4354  -33.8792   -1.1485 H         1 31V         0.0339
@<TRIPOS>BOND
     1    2    1 ar 
     2    1   33 ar 
     3   29    2 ar 
     4    8    3 1  
     5    3   20 1  
     6    3   21 1  
     7   29    4 ar 
     8    4   30 ar 
     9    5   16 1  
    10   33    5 1  
    11    5   34 1  
    12    6   25 1  
    13   28    6 2  
    14    7   17 2  
    15    7   18 am 
    16   24    7 1  
    17    8   10 2  
    18   18    8 1  
    19   10    9 1  
    20    9   11 1  
    21    9   20 2  
    22   11   12 1  
    23   11   19 1  
    24   19   12 2  
    25   13   22 ar 
    26   23   13 ar 
    27   15   14 ar 
    28   14   22 ar 
    29   21   15 ar 
    30   16   37 2  
    31   21   23 ar 
    32   25   24 1  
    33   26   25 1  
    34   27   26 2  
    35   28   27 1  
    36   28   29 1  
    37   30   31 1  
    38   30   33 ar 
    39   31   32 1  
    40   34   35 2  
    41   35   36 1  
    42   35   37 1  
    43    1   38 1  
    44    2   39 1  
    45    4   40 1  
    46    6   41 1  
    47   10   42 1  
    48   11   43 1  
    49   12   44 1  
    50   13   45 1  
    51   14   46 1  
    52   15   47 1  
    53   16   48 1  
    54   18   49 1  
    55   19   50 1  
    56   22   51 1  
    57   23   52 1  
    58   24   53 1  
    59   24   54 1  
    60   32   55 1  
    61   32   56 1  
    62   32   57 1  
    63   34   58 1  
    64   36   59 1  
    65   36   60 1  
    66   36   61 1  
@<TRIPOS>SUBSTRUCTURE
     1 31V         1

