### 
### Created by X-TOOL on Mon Sep 10 21:13:17 2018
### 

@<TRIPOS>MOLECULE
4pmp_ligand
   48    51     1     0     0
SMALL
GAST_HUCK


@<TRIPOS>ATOM
      1 C2         31.4220  -34.6560   -9.8740 C.3       1 31W        -0.0276
      2 C3         31.8120  -35.6160   -8.7920 C.3       1 31W        -0.0276
      3 C5         31.5450  -33.6880   -5.9170 C.ar      1 31W        -0.0172
      4 C7         30.3420  -34.2180   -3.8780 C.ar      1 31W         0.0132
      5 C9         27.6920  -34.4090   -1.4210 C.2       1 31W        -0.0144
      6 C10        26.8320  -33.8820   -2.3030 C.2       1 31W         0.0120
      7 C11        31.5030  -34.7790   -3.3450 C.ar      1 31W        -0.0535
      8 C12        32.6630  -34.8230   -4.1010 C.ar      1 31W        -0.0642
      9 C13        32.6810  -34.2840   -5.3790 C.ar      1 31W        -0.0553
     10 C15        36.9150  -32.1350   -7.7330 C.ar      1 31W        -0.0494
     11 C18        39.8260  -28.9360   -8.8450 C.3       1 31W         0.5436
     12 C20        36.7290  -31.8530  -10.1100 C.ar      1 31W        -0.0494
     13 O1         33.9240  -31.5130   -7.3880 O.2       1 31W        -0.3914
     14 C          33.8690  -32.5170   -8.0850 C.2       1 31W         0.2889
     15 N2         34.9160  -32.9310   -8.8540 N.am      1 31W        -0.2256
     16 C14        36.1970  -32.3180   -8.9110 C.ar      1 31W         0.0559
     17 C19        37.9430  -31.1840  -10.1260 C.ar      1 31W        -0.0457
     18 C17        38.6390  -30.9830   -8.9380 C.ar      1 31W         0.0850
     19 O          39.8630  -30.2800   -8.8800 O.3       1 31W        -0.2361
     20 F2         39.3550  -28.4120   -9.9590 F         1 31W        -0.1404
     21 F1         39.0920  -28.4780   -7.8450 F         1 31W        -0.1404
     22 F          41.0260  -28.4220   -8.6860 F         1 31W        -0.1404
     23 C16        38.1300  -31.4700   -7.7440 C.ar      1 31W        -0.0457
     24 N          32.7100  -33.3020   -8.1190 N.am      1 31W        -0.2404
     25 C1         32.6660  -34.4290   -9.0830 C.3       1 31W         0.0482
     26 C4         31.5850  -32.9560   -7.2410 C.3       1 31W         0.0692
     27 C6         30.3710  -33.6840   -5.1650 C.ar      1 31W        -0.0438
     28 C8         29.0900  -34.1850   -3.0980 C.2       1 31W         0.1106
     29 S          27.6200  -33.5720   -3.7790 S.3       1 31W        -0.0055
     30 N1         28.9840  -34.5880   -1.8630 N.2       1 31W        -0.3113
     31 H          30.5539  -33.9946   -9.7365 H         1 31W         0.0288
     32 H          31.4884  -34.9593  -10.9293 H         1 31W         0.0288
     33 H          32.1648  -36.6249   -9.0522 H         1 31W         0.0288
     34 H          31.2303  -35.6601   -7.8594 H         1 31W         0.0288
     35 H          27.3866  -34.6805   -0.4116 H         1 31W         0.0585
     36 H          25.7804  -33.6810   -2.1040 H         1 31W         0.0760
     37 H          31.4973  -35.1809   -2.3382 H         1 31W         0.0598
     38 H          33.5578  -35.2792   -3.6933 H         1 31W         0.0608
     39 H          33.5915  -34.3278   -5.9657 H         1 31W         0.0584
     40 H          36.5198  -32.5163   -6.7984 H         1 31W         0.0477
     41 H          36.1908  -32.0149  -11.0369 H         1 31W         0.0477
     42 H          34.7698  -33.7365   -9.4282 H         1 31W         0.2218
     43 H          38.3493  -30.8182  -11.0621 H         1 31W         0.0506
     44 H          38.6815  -31.3307   -6.8212 H         1 31W         0.0506
     45 H          33.6534  -34.5598   -9.5498 H         1 31W         0.0558
     46 H          31.6379  -31.8776   -7.0309 H         1 31W         0.0683
     47 H          30.6527  -33.1792   -7.7804 H         1 31W         0.0683
     48 H          29.4676  -33.2593   -5.5875 H         1 31W         0.0590
@<TRIPOS>BOND
     1    2    1 1  
     2   25    1 1  
     3   25    2 1  
     4    3    9 ar 
     5    3   26 1  
     6   27    3 ar 
     7    4    7 ar 
     8    4   27 ar 
     9   28    4 1  
    10    6    5 2  
    11    5   30 1  
    12   29    6 1  
    13    7    8 ar 
    14    8    9 ar 
    15   16   10 ar 
    16   10   23 ar 
    17   19   11 1  
    18   11   20 1  
    19   11   21 1  
    20   11   22 1  
    21   16   12 ar 
    22   12   17 ar 
    23   14   13 2  
    24   14   15 am 
    25   24   14 am 
    26   15   16 1  
    27   17   18 ar 
    28   18   19 1  
    29   23   18 ar 
    30   24   25 1  
    31   26   24 1  
    32   28   29 1  
    33   28   30 2  
    34    1   31 1  
    35    1   32 1  
    36    2   33 1  
    37    2   34 1  
    38    5   35 1  
    39    6   36 1  
    40    7   37 1  
    41    8   38 1  
    42    9   39 1  
    43   10   40 1  
    44   12   41 1  
    45   15   42 1  
    46   17   43 1  
    47   23   44 1  
    48   25   45 1  
    49   26   46 1  
    50   26   47 1  
    51   27   48 1  
@<TRIPOS>SUBSTRUCTURE
     1 31W         1

