### 
### Created by X-TOOL on Mon Sep 10 21:13:17 2018
### 

@<TRIPOS>MOLECULE
4pms_ligand
   51    56     1     0     0
SMALL
GAST_HUCK


@<TRIPOS>ATOM
      1 C2         35.8410  -33.3440   -9.3300 C.2       1 31X         0.2322
      2 C3         37.0470  -32.7140   -8.7720 C.ar      1 31X         0.0484
      3 C5         38.7270  -32.5690   -7.0410 C.ar      1 31X        -0.0570
      4 C7         38.8770  -31.1490   -8.9650 C.ar      1 31X        -0.0570
      5 C9         30.7630  -34.4680   -9.3230 C.2       1 31X         0.1031
      6 C10        30.5200  -34.2060  -10.7770 C.2       1 31X         0.0900
      7 C11        29.9360  -34.1850   -8.2810 C.2       1 31X        -0.0376
      8 C12        30.6240  -34.4390   -7.0390 C.ar      1 31X         0.0119
      9 C13        30.3680  -34.3440   -5.6350 C.ar      1 31X         0.0395
     10 C15        28.3480  -32.7530   -5.4650 C.ar      1 31X        -0.0085
     11 C18        26.9120  -30.4320   -6.1800 C.ar      1 31X        -0.0608
     12 C20        28.8810  -31.7850   -6.3680 C.ar      1 31X        -0.0530
     13 C21        26.5010  -33.4270   -3.9890 C.ar      1 31X        -0.0523
     14 C22        27.2030  -34.5350   -3.6190 C.ar      1 31X        -0.0586
     15 O2         29.3330  -33.9800  -11.1210 O.co2     1 31X        -0.5579
     16 O1         31.5110  -34.1730  -11.5420 O.co2     1 31X        -0.5579
     17 C26        31.9010  -34.9040   -7.4220 C.ar      1 31X         0.0882
     18 N          31.9670  -34.9490   -8.8170 N.pl3     1 31X        -0.2346
     19 C          33.0710  -35.5230   -9.5770 C.3       1 31X         0.1077
     20 C1         34.1960  -34.5460   -9.7710 C.2       1 31X         0.1213
     21 N2         35.0760  -34.2290   -8.7750 N.2       1 31X        -0.2623
     22 C8         37.7130  -31.7050   -9.4720 C.ar      1 31X        -0.0435
     23 C6         39.3890  -31.5820   -7.7520 C.ar      1 31X        -0.0582
     24 C4         37.5620  -33.1300   -7.5410 C.ar      1 31X        -0.0435
     25 O          35.5050  -33.0810  -10.6030 O.3       1 31X        -0.1457
     26 N1         34.3870  -33.9140  -10.8880 N.2       1 31X        -0.1293
     27 C25        32.8630  -35.2320   -6.4740 C.ar      1 31X        -0.0169
     28 C24        32.5030  -35.1000   -5.1420 C.ar      1 31X        -0.0073
     29 N3         31.2980  -34.6730   -4.7180 N.ar      1 31X        -0.3132
     30 C14        29.0520  -33.9500   -5.0650 C.ar      1 31X         0.0018
     31 C23        28.4580  -34.7940   -4.1500 C.ar      1 31X        -0.0508
     32 C16        27.0470  -32.5020   -4.9180 C.ar      1 31X        -0.0159
     33 C17        26.3540  -31.3200   -5.3000 C.ar      1 31X        -0.0534
     34 C19        28.1720  -30.6660   -6.7140 C.ar      1 31X        -0.0608
     35 H          39.1217  -32.9046   -6.0888 H         1 31X         0.0627
     36 H          39.3895  -30.3716   -9.5200 H         1 31X         0.0627
     37 H          28.9129  -33.8228   -8.3705 H         1 31X         0.0380
     38 H          26.3657  -29.5392   -6.4620 H         1 31X         0.0618
     39 H          29.8680  -31.9389   -6.7889 H         1 31X         0.0624
     40 H          25.5169  -33.2501   -3.5704 H         1 31X         0.0639
     41 H          26.7746  -35.2235   -2.8997 H         1 31X         0.0622
     42 H          32.6977  -35.8337  -10.5640 H         1 31X         0.0784
     43 H          33.4540  -36.4013   -9.0367 H         1 31X         0.0784
     44 H          37.3167  -31.3545  -10.4181 H         1 31X         0.0661
     45 H          40.3034  -31.1501   -7.3616 H         1 31X         0.0647
     46 H          37.0469  -33.8965   -6.9734 H         1 31X         0.0661
     47 H          33.8497  -35.5753   -6.7631 H         1 31X         0.0636
     48 H          33.2410  -35.3578   -4.3910 H         1 31X         0.0718
     49 H          28.9877  -35.6863   -3.8365 H         1 31X         0.0641
     50 H          25.3712  -31.1197   -4.8889 H         1 31X         0.0627
     51 H          28.5990  -29.9552   -7.4123 H         1 31X         0.0621
@<TRIPOS>BOND
     1    1    2 1  
     2   21    1 2  
     3    1   25 1  
     4    2   22 ar 
     5    2   24 ar 
     6    3   23 ar 
     7   24    3 ar 
     8   22    4 ar 
     9    4   23 ar 
    10    5    6 1  
    11    5    7 2  
    12   18    5 1  
    13    6   15 ar 
    14    6   16 ar 
    15    8    7 1  
    16    8    9 ar 
    17   17    8 ar 
    18    9   29 ar 
    19    9   30 1  
    20   10   12 ar 
    21   30   10 ar 
    22   10   32 ar 
    23   11   33 ar 
    24   34   11 ar 
    25   12   34 ar 
    26   13   14 ar 
    27   32   13 ar 
    28   14   31 ar 
    29   18   17 1  
    30   17   27 ar 
    31   19   18 1  
    32   20   19 1  
    33   20   21 1  
    34   20   26 2  
    35   25   26 1  
    36   27   28 ar 
    37   28   29 ar 
    38   30   31 ar 
    39   32   33 ar 
    40    3   35 1  
    41    4   36 1  
    42    7   37 1  
    43   11   38 1  
    44   12   39 1  
    45   13   40 1  
    46   14   41 1  
    47   19   42 1  
    48   19   43 1  
    49   22   44 1  
    50   23   45 1  
    51   24   46 1  
    52   27   47 1  
    53   28   48 1  
    54   31   49 1  
    55   33   50 1  
    56   34   51 1  
@<TRIPOS>SUBSTRUCTURE
     1 31X         1

