### 
### Created by X-TOOL on Mon Sep 10 21:13:18 2018
### 

@<TRIPOS>MOLECULE
4pmt_ligand
   54    58     1     0     0
SMALL
GAST_HUCK


@<TRIPOS>ATOM
      1 C2         30.0910  -34.9750   -2.6050 C.ar      1 31Y         0.0605
      2 C3         28.4050  -34.9330   -1.0690 C.ar      1 31Y         0.0616
      3 N4         31.0240  -29.7350   -6.4340 N.ar      1 31Y        -0.3043
      4 C5         31.8220  -35.0360   -4.2750 C.ar      1 31Y        -0.0032
      5 N6         21.9240  -31.2300   -3.7960 N.pl3     1 31Y        -0.3098
      6 C7         30.4100  -33.3610   -7.3410 C.3       1 31Y         0.0679
      7 C9         31.1880  -31.0180   -6.8010 C.ar      1 31Y         0.0145
      8 C10        29.7710  -29.3110   -6.2160 C.ar      1 31Y         0.0042
      9 C11        28.6650  -30.1280   -6.3530 C.ar      1 31Y        -0.0404
     10 C12        28.8630  -31.4470   -6.7320 C.ar      1 31Y        -0.0385
     11 C13        25.8270  -32.7640   -3.8390 C.ar      1 31Y         0.0561
     12 C15        23.5860  -32.7920   -2.9590 C.ar      1 31Y        -0.0520
     13 C18        25.4930  -31.6670   -4.6240 C.ar      1 31Y        -0.0474
     14 C20        20.2840  -29.8460   -2.6630 C.3       1 31Y         0.0670
     15 C21        20.4130  -29.7730   -5.0150 C.3       1 31Y         0.0670
     16 C22        21.2040  -31.0580   -5.0620 C.3       1 31Y         0.0484
     17 O          19.5420  -29.7370   -3.8820 O.3       1 31Y        -0.3759
     18 C19        21.0790  -31.1290   -2.6030 C.3       1 31Y         0.0484
     19 C16        23.2380  -31.7010   -3.7590 C.ar      1 31Y         0.0303
     20 C14        24.8660  -33.3150   -2.9980 C.ar      1 31Y        -0.0474
     21 C17        24.2180  -31.1330   -4.5770 C.ar      1 31Y        -0.0520
     22 N5         27.1700  -33.1700   -3.8780 N.pl3     1 31Y        -0.2530
     23 C          27.9400  -33.9630   -3.0860 C.ar      1 31Y         0.1681
     24 N1         27.5290  -34.2870   -1.8500 N.ar      1 31Y        -0.2516
     25 N          29.6600  -35.2920   -1.3440 N.ar      1 31Y        -0.2907
     26 C1         29.2600  -34.3230   -3.5330 C.ar      1 31Y         0.1054
     27 N2         29.6900  -34.0400   -4.7940 N.ar      1 31Y        -0.2734
     28 C6         30.9180  -34.3810   -5.1430 C.ar      1 31Y         0.1201
     29 C4         31.4030  -35.3190   -3.0090 C.ar      1 31Y        -0.0256
     30 N3         31.2910  -34.0580   -6.4140 N.pl3     1 31Y        -0.2920
     31 C8         30.1490  -31.9190   -6.9630 C.ar      1 31Y         0.0071
     32 H          28.0460  -35.1997   -0.0815 H         1 31Y         0.1045
     33 H          32.8184  -35.3050   -4.6064 H         1 31Y         0.0703
     34 H          29.4471  -33.8920   -7.3711 H         1 31Y         0.0700
     35 H          30.8709  -33.3804   -8.3396 H         1 31Y         0.0700
     36 H          32.1975  -31.3694   -6.9815 H         1 31Y         0.0766
     37 H          29.6185  -28.2798   -5.9186 H         1 31Y         0.0767
     38 H          27.6670  -29.7471   -6.1687 H         1 31Y         0.0693
     39 H          28.0136  -32.1104   -6.8481 H         1 31Y         0.0679
     40 H          22.8458  -33.2330   -2.3013 H         1 31Y         0.0492
     41 H          26.2371  -31.2267   -5.2779 H         1 31Y         0.0514
     42 H          19.5827  -29.8218   -1.8159 H         1 31Y         0.0579
     43 H          20.9764  -28.9944   -2.5903 H         1 31Y         0.0579
     44 H          19.8109  -29.6897   -5.9318 H         1 31Y         0.0579
     45 H          21.1112  -28.9250   -4.9565 H         1 31Y         0.0579
     46 H          20.5194  -31.9056   -5.2136 H         1 31Y         0.0532
     47 H          21.9247  -31.0157   -5.8919 H         1 31Y         0.0532
     48 H          21.7118  -31.1276   -1.7033 H         1 31Y         0.0532
     49 H          20.3909  -31.9864   -2.5661 H         1 31Y         0.0532
     50 H          25.1218  -34.1599   -2.3689 H         1 31Y         0.0514
     51 H          23.9767  -30.2655   -5.1806 H         1 31Y         0.0492
     52 H          27.6845  -32.7828   -4.6819 H         1 31Y         0.2189
     53 H          32.0745  -35.8073   -2.3121 H         1 31Y         0.0754
     54 H          32.2356  -34.3178   -6.7320 H         1 31Y         0.1855
@<TRIPOS>BOND
     1    1   25 ar 
     2   26    1 ar 
     3   29    1 ar 
     4   24    2 ar 
     5   25    2 ar 
     6    7    3 ar 
     7    3    8 ar 
     8   28    4 ar 
     9    4   29 ar 
    10    5   16 1  
    11    5   18 1  
    12   19    5 1  
    13   30    6 1  
    14    6   31 1  
    15   31    7 ar 
    16    9    8 ar 
    17   10    9 ar 
    18   31   10 ar 
    19   11   13 ar 
    20   11   20 ar 
    21   22   11 1  
    22   12   19 ar 
    23   20   12 ar 
    24   13   21 ar 
    25   14   17 1  
    26   18   14 1  
    27   16   15 1  
    28   15   17 1  
    29   21   19 ar 
    30   23   22 1  
    31   23   24 ar 
    32   26   23 ar 
    33   27   26 ar 
    34   28   27 ar 
    35   28   30 1  
    36    2   32 1  
    37    4   33 1  
    38    6   34 1  
    39    6   35 1  
    40    7   36 1  
    41    8   37 1  
    42    9   38 1  
    43   10   39 1  
    44   12   40 1  
    45   13   41 1  
    46   14   42 1  
    47   14   43 1  
    48   15   44 1  
    49   15   45 1  
    50   16   46 1  
    51   16   47 1  
    52   18   48 1  
    53   18   49 1  
    54   20   50 1  
    55   21   51 1  
    56   22   52 1  
    57   29   53 1  
    58   30   54 1  
@<TRIPOS>SUBSTRUCTURE
     1 31Y         1

