### 
### Created by X-TOOL on Mon Sep 10 21:13:18 2018
### 

@<TRIPOS>MOLECULE
4pn1_ligand
   89    91     1     0     0
SMALL
GAST_HUCK


@<TRIPOS>ATOM
      1 N         106.0030   62.9390  180.7940 N.4       1 ARG         0.2377
      2 CA        106.0420   62.5760  179.3820 C.3       1 ARG         0.0621
      3 C         106.6020   61.1700  179.1780 C.2       1 ARG         0.2265
      4 O         107.3290   60.6480  180.0230 O.2       1 ARG        -0.3907
      5 CB        106.8570   63.5960  178.5940 C.3       1 ARG        -0.0040
      6 N         106.2540   60.5610  178.0510 N.am      1 THR        -0.2586
      7 CA        106.7550   59.2360  177.7130 C.3       1 THR         0.1568
      8 C         106.9550   59.1140  176.2060 C.2       1 THR         0.2090
      9 O         106.1450   59.6170  175.4280 O.2       1 THR        -0.3941
     10 CB        105.8050   58.1220  178.2130 C.3       1 THR         0.0924
     11 OG1       106.2590   56.8490  177.7370 O.3       1 THR        -0.3874
     12 CG2       104.3820   58.3630  177.7250 C.3       1 THR        -0.0346
     13 N         108.0480   58.4580  175.7880 N.am      1 PRO        -0.2498
     14 CA        108.2850   58.2210  174.3600 C.3       1 PRO         0.1338
     15 C         107.1740   57.3670  173.7560 C.2       1 PRO         0.2041
     16 O         106.4460   56.7000  174.4920 O.2       1 PRO        -0.3944
     17 CB        109.6200   57.4660  174.3430 C.3       1 PRO        -0.0104
     18 CG        109.7680   56.9060  175.7200 C.3       1 PRO        -0.0281
     19 CD        109.1270   57.9060  176.6250 C.3       1 PRO         0.0369
     20 N         107.0460   57.3950  172.4330 N.am      1 ALA        -0.2640
     21 CA        105.9600   56.6960  171.7540 C.3       1 ALA         0.1282
     22 C         106.0190   55.1830  171.9530 C.2       1 ALA         0.2037
     23 O         104.9890   54.5300  172.1220 O.2       1 ALA        -0.3944
     24 CB        105.9580   57.0360  170.2690 C.3       1 ALA        -0.0244
     25 N         107.2280   54.6330  171.9470 N.am      1 TRP        -0.2627
     26 CA        107.4110   53.1850  171.9840 C.3       1 TRP         0.1351
     27 C         107.2120   52.5560  173.3630 C.2       1 TRP         0.2048
     28 O         107.2820   51.3360  173.5060 O.2       1 TRP        -0.3943
     29 CB        108.7870   52.8070  171.4330 C.3       1 TRP         0.0042
     30 CG        109.9090   53.6620  171.9390 C.2       1 TRP        -0.0418
     31 CD1       110.4700   54.7340  171.3080 C.2       1 TRP         0.0167
     32 CD2       110.6130   53.5150  173.1790 C.ar      1 TRP        -0.0214
     33 NE1       111.4770   55.2650  172.0770 N.pl3     1 TRP        -0.2890
     34 CE2       111.5840   54.5350  173.2320 C.ar      1 TRP         0.0603
     35 CE3       110.5150   52.6210  174.2500 C.ar      1 TRP        -0.0747
     36 CZ2       112.4510   54.6870  174.3120 C.ar      1 TRP        -0.0443
     37 CZ3       111.3760   52.7730  175.3220 C.ar      1 TRP        -0.0792
     38 CH2       112.3320   53.7980  175.3440 C.ar      1 TRP        -0.0768
     39 N         106.9640   53.3820  174.3720 N.am      1 ASN        -0.2648
     40 CA        106.7870   52.8710  175.7260 C.3       1 ASN         0.1392
     41 C         105.4330   53.2400  176.3210 C.2       1 ASN         0.2173
     42 O         104.8250   52.4470  177.0420 O.co2     1 ASN        -0.4118
     43 CB        107.9180   53.3560  176.6340 C.3       1 ASN         0.0742
     44 CG        107.9260   52.6550  177.9780 C.2       1 ASN         0.1775
     45 OD1       108.2910   51.4830  178.0750 O.2       1 ASN        -0.3971
     46 ND2       107.5310   53.3710  179.0240 N.am      1 ASN        -0.3007
     47 H         105.6292   63.8701  180.8913 H         1 ARG         0.2015
     48 H         106.9361   62.9101  181.1743 H         1 ARG         0.2015
     49 H         105.4167   62.2878  181.2923 H         1 ARG         0.2015
     50 H         105.0110   62.5896  178.9988 H         1 ARG         0.1095
     51 H         106.8767   63.3083  177.5325 H         1 ARG         0.0310
     52 H         107.8847   63.6252  178.9851 H         1 ARG         0.0310
     53 H         106.3974   64.5902  178.6959 H         1 ARG         0.0310
     54 H         105.6326   61.0234  177.4186 H         1 THR         0.1885
     55 H         107.7295   59.1027  178.2055 H         1 THR         0.0826
     56 H         105.8093   58.1186  179.3130 H         1 THR         0.0639
     57 H         106.2683   56.8523  176.7871 H         1 THR         0.2101
     58 H         103.7272   57.5593  178.0929 H         1 THR         0.0257
     59 H         104.3682   58.3726  176.6251 H         1 THR         0.0257
     60 H         104.0231   59.3310  178.1047 H         1 THR         0.0257
     61 H         108.3605   59.1704  173.8096 H         1 PRO         0.0802
     62 H         110.4488   58.1521  174.1140 H         1 PRO         0.0313
     63 H         109.5968   56.6573  173.5977 H         1 PRO         0.0313
     64 H         110.8313   56.7834  175.9735 H         1 PRO         0.0287
     65 H         109.2581   55.9344  175.7973 H         1 PRO         0.0287
     66 H         108.7217   57.4225  177.5261 H         1 PRO         0.0524
     67 H         109.8410   58.6895  176.9188 H         1 PRO         0.0524
     68 H         107.7106   57.9079  171.8897 H         1 ALA         0.1883
     69 H         105.0133   57.0518  172.1866 H         1 ALA         0.0797
     70 H         105.1348   56.5021  169.7718 H         1 ALA         0.0277
     71 H         106.9156   56.7313  169.8218 H         1 ALA         0.0277
     72 H         105.8220   58.1200  170.1412 H         1 ALA         0.0277
     73 H         108.0330   55.2255  171.9164 H         1 TRP         0.1884
     74 H         106.6508   52.7493  171.3189 H         1 TRP         0.0815
     75 H         108.7551   52.8935  170.3369 H         1 TRP         0.0397
     76 H         108.9956   51.7638  171.7126 H         1 TRP         0.0397
     77 H         110.1635   55.1140  170.3346 H         1 TRP         0.0795
     78 H         112.0568   56.0787  171.8265 H         1 TRP         0.2216
     79 H         109.7792   51.8250  174.2403 H         1 TRP         0.0540
     80 H         113.1909   55.4790  174.3333 H         1 TRP         0.0541
     81 H         111.3103   52.0877  176.1594 H         1 TRP         0.0510
     82 H         112.9922   53.8879  176.1990 H         1 TRP         0.0530
     83 H         106.8979   54.3652  174.2017 H         1 ASN         0.1878
     84 H         106.8392   51.7734  175.6754 H         1 ASN         0.0777
     85 O1        104.9300   54.3683  176.0729 O.co2     1 ASN        -0.4118
     86 H         107.7975   54.4366  176.8007 H         1 ASN         0.0545
     87 H         108.8785   53.1672  176.1323 H         1 ASN         0.0545
     88 H         107.5163   52.9591  179.9351 H         1 ASN         0.1814
     89 H         107.2482   54.3222  178.9007 H         1 ASN         0.1814
@<TRIPOS>BOND
     1    1    2 1  
     2    2    3 1  
     3    2    5 1  
     4    3    4 2  
     5    3    6 am 
     6    6    7 1  
     7    7    8 1  
     8    7   10 1  
     9    8    9 2  
    10    8   13 am 
    11   10   11 1  
    12   10   12 1  
    13   13   14 1  
    14   13   19 1  
    15   14   15 1  
    16   14   17 1  
    17   15   16 2  
    18   15   20 am 
    19   17   18 1  
    20   18   19 1  
    21   20   21 1  
    22   21   22 1  
    23   21   24 1  
    24   22   23 2  
    25   22   25 am 
    26   25   26 1  
    27   26   27 1  
    28   26   29 1  
    29   27   28 2  
    30   27   39 am 
    31   29   30 1  
    32   30   31 2  
    33   30   32 1  
    34   31   33 1  
    35   32   34 ar 
    36   32   35 ar 
    37   33   34 1  
    38   34   36 ar 
    39   35   37 ar 
    40   36   38 ar 
    41   37   38 ar 
    42   39   40 1  
    43   40   41 1  
    44   40   43 1  
    45   41   42 ar 
    46   43   44 1  
    47   44   45 2  
    48   44   46 am 
    49    1   47 1  
    50    1   48 1  
    51    1   49 1  
    52    2   50 1  
    53    5   51 1  
    54    5   52 1  
    55    5   53 1  
    56    6   54 1  
    57    7   55 1  
    58   10   56 1  
    59   11   57 1  
    60   12   58 1  
    61   12   59 1  
    62   12   60 1  
    63   14   61 1  
    64   17   62 1  
    65   17   63 1  
    66   18   64 1  
    67   18   65 1  
    68   19   66 1  
    69   19   67 1  
    70   20   68 1  
    71   21   69 1  
    72   24   70 1  
    73   24   71 1  
    74   24   72 1  
    75   25   73 1  
    76   26   74 1  
    77   29   75 1  
    78   29   76 1  
    79   31   77 1  
    80   33   78 1  
    81   35   79 1  
    82   36   80 1  
    83   37   81 1  
    84   38   82 1  
    85   39   83 1  
    86   40   84 1  
    87   41   85 ar 
    88   43   86 1  
    89   43   87 1  
    90   46   88 1  
    91   46   89 1  
@<TRIPOS>SUBSTRUCTURE
     1 ARG         1

