### 
### Created by X-TOOL on Mon Sep 10 21:13:16 2018
### 

@<TRIPOS>MOLECULE
4pnc_ligand
   28    29     1     0     0
SMALL
GAST_HUCK


@<TRIPOS>ATOM
      1 OAM        23.2090   -0.8300    7.9330 O.2       1 7NP        -0.3823
      2 CAJ        24.1680   -0.3070    8.4670 C.2       1 7NP         0.1286
      3 CAB        24.6690    0.9180    7.8750 C.ar      1 7NP         0.0260
      4 CAI        24.7110   -0.9410    9.6620 C.3       1 7NP         0.0314
      5 CAN        24.5070   -2.4020    9.3880 C.3       1 7NP        -0.0470
      6 CAH        26.1230   -0.4840    9.8430 C.3       1 7NP        -0.0260
      7 CAG        26.2250    1.0050    9.8570 C.3       1 7NP        -0.0181
      8 CAC        25.7020    1.6090    8.5660 C.ar      1 7NP        -0.0339
      9 CAD        26.2130    2.8140    8.0610 C.ar      1 7NP        -0.0622
     10 CAE        25.7040    3.3350    6.8920 C.ar      1 7NP        -0.0347
     11 CAF        24.6680    2.6400    6.2130 C.ar      1 7NP         0.0893
     12 CAA        24.1260    1.4340    6.6970 C.ar      1 7NP        -0.0209
     13 OAK        24.2350    3.2650    5.0520 O.3       1 7NP        -0.3246
     14 CAL        23.2730    2.6010    4.2930 C.3       1 7NP         0.0579
     15 H1         24.1383   -0.6544   10.5563 H         1 7NP         0.0518
     16 H2         24.8858   -2.9906   10.2366 H         1 7NP         0.0256
     17 H3         25.0516   -2.6833    8.4746 H         1 7NP         0.0256
     18 H4         23.4342   -2.6033    9.2520 H         1 7NP         0.0256
     19 H5         26.7329   -0.8751    9.0153 H         1 7NP         0.0313
     20 H6         26.5049   -0.8762   10.7971 H         1 7NP         0.0313
     21 H7         27.2798    1.2902    9.9838 H         1 7NP         0.0422
     22 H8         25.6356    1.3961   10.6994 H         1 7NP         0.0422
     23 H9         27.0051    3.3329    8.5886 H         1 7NP         0.0544
     24 H10        26.0903    4.2664    6.4941 H         1 7NP         0.0566
     25 H11        23.3210    0.9275    6.1768 H         1 7NP         0.0575
     26 H12        23.0234    3.2047    3.4080 H         1 7NP         0.0574
     27 H13        22.3683    2.4485    4.8998 H         1 7NP         0.0574
     28 H14        23.6680    1.6258    3.9721 H         1 7NP         0.0574
@<TRIPOS>BOND
     1    1    2 2  
     2    2    3 1  
     3    2    4 1  
     4    3    8 ar 
     5    3   12 ar 
     6    4    5 1  
     7    4    6 1  
     8    6    7 1  
     9    7    8 1  
    10    8    9 ar 
    11    9   10 ar 
    12   10   11 ar 
    13   11   12 ar 
    14   11   13 1  
    15   13   14 1  
    16    4   15 1  
    17    5   16 1  
    18    5   17 1  
    19    5   18 1  
    20    6   19 1  
    21    6   20 1  
    22    7   21 1  
    23    7   22 1  
    24    9   23 1  
    25   10   24 1  
    26   12   25 1  
    27   14   26 1  
    28   14   27 1  
    29   14   28 1  
@<TRIPOS>SUBSTRUCTURE
     1 7NP         1

