### 
### Created by X-TOOL on Mon Sep 10 21:13:18 2018
### 

@<TRIPOS>MOLECULE
4pni_ligand
   72    76     1     0     0
SMALL
GAST_HUCK


@<TRIPOS>ATOM
      1 OAH       -11.4040   -0.2520  -26.2330 O.2       1 KQQ        -0.4053
      2 CAF       -12.0250   -1.2870  -26.3320 C.2       1 KQQ         0.1870
      3 NAG       -11.5240   -2.3450  -26.9510 N.am      1 KQQ        -0.3061
      4 CAD       -13.3390   -1.4810  -25.7200 C.2       1 KQQ         0.1108
      5 SAC       -14.1170   -3.0570  -25.8670 S.3       1 KQQ        -0.0431
      6 CAB       -15.4580   -2.5420  -24.9770 C.2       1 KQQ        -0.0011
      7 CAA       -15.3240   -1.1960  -24.5620 C.2       1 KQQ        -0.0343
      8 CAE       -14.1480   -0.5920  -25.0150 C.2       1 KQQ         0.0706
      9 NAI       -13.6270    0.7130  -24.9200 N.pl3     1 KQQ        -0.2617
     10 C4        -14.2440    1.7520  -24.3280 C.ar      1 KQQ         0.1286
     11 N3        -15.5550    1.7120  -24.0770 N.ar      1 KQQ        -0.2485
     12 C5        -13.5750    3.0300  -24.1310 C.ar      1 KQQ         0.0375
     13 CAP       -12.2120    3.4940  -24.2600 C.2       1 KQQ        -0.0600
     14 CAQ       -12.2490    4.7800  -23.8340 C.2       1 KQQ         0.0204
     15 NAR       -13.5150    5.0800  -23.3770 N.pl3     1 KQQ        -0.2713
     16 C6        -14.3710    4.0700  -23.5320 C.ar      1 KQQ         0.1234
     17 N1        -15.7080    3.9280  -23.2780 N.ar      1 KQQ        -0.2608
     18 C2        -16.2810    2.7250  -23.5370 C.ar      1 KQQ         0.1834
     19 NAS       -17.6030    2.6320  -23.2560 N.pl3     1 KQQ        -0.2331
     20 CAT       -18.4390    1.5820  -23.5420 C.ar      1 KQQ         0.1245
     21 CAY       -19.5470    1.4660  -22.6880 C.ar      1 KQQ         0.1363
     22 OAZ       -19.6830    2.4040  -21.7080 O.3       1 KQQ        -0.3196
     23 CBA       -20.7190    2.4300  -20.7230 C.3       1 KQQ         0.0577
     24 CAU       -18.3010    0.6510  -24.5460 C.ar      1 KQQ         0.0167
     25 CAV       -19.1940   -0.4450  -24.6750 C.ar      1 KQQ         0.0887
     26 CAW       -20.2480   -0.5570  -23.7830 C.ar      1 KQQ        -0.0613
     27 CAX       -20.4150    0.3720  -22.8070 C.ar      1 KQQ        -0.0331
     28 NBB       -18.9430   -1.3950  -25.6270 N.am      1 KQQ        -0.1958
     29 C         -18.4790   -1.1370  -26.8580 C.2       1 KQQ         0.2677
     30 CA        -18.1340   -2.3290  -27.7340 C.3       1 KQQ         0.0673
     31 N         -17.4110   -1.8010  -28.8960 N.4       1 KQQ         0.2484
     32 CBL       -16.1470   -1.0500  -28.6340 C.3       1 KQQ        -0.0415
     33 CBM       -17.0910   -2.8910  -29.8780 C.3       1 KQQ        -0.0415
     34 O         -18.3620    0.0400  -27.3250 O.2       1 KQQ        -0.3694
     35 CBC       -19.2190   -2.7330  -25.1140 C.3       1 KQQ         0.0543
     36 CBD       -20.7090   -2.6220  -25.0020 C.3       1 KQQ        -0.0673
     37 CBE       -21.1620   -1.7550  -23.8390 C.3       1 KQQ        -0.0802
     38 CBG       -22.6270   -1.3350  -23.9180 C.3       1 KQQ        -0.1075
     39 CBF       -20.9310   -2.4800  -22.5080 C.3       1 KQQ        -0.1075
     40 H         -12.0606   -3.1863  -27.0170 H         1 KQQ         0.1790
     41 H         -10.6091   -2.3027  -27.3525 H         1 KQQ         0.1790
     42 H         -16.3192   -3.1689  -24.7507 H         1 KQQ         0.0811
     43 H         -16.0638   -0.6817  -23.9503 H         1 KQQ         0.0441
     44 H         -12.7009    0.8857  -25.3364 H         1 KQQ         0.2163
     45 H         -11.3489    2.9354  -24.6190 H         1 KQQ         0.0299
     46 H         -11.4074    5.4710  -23.8501 H         1 KQQ         0.0884
     47 H         -13.7715    5.9866  -22.9608 H         1 KQQ         0.2301
     48 H         -18.0272    3.4379  -22.7749 H         1 KQQ         0.2279
     49 H         -20.5766    3.2992  -20.0640 H         1 KQQ         0.0574
     50 H         -20.6805    1.5070  -20.1259 H         1 KQQ         0.0574
     51 H         -21.6969    2.5040  -21.2212 H         1 KQQ         0.0574
     52 H         -17.4894    0.7573  -25.2567 H         1 KQQ         0.0489
     53 H         -21.2353    0.2655  -22.1064 H         1 KQQ         0.0598
     54 H         -19.0526   -2.8397  -28.0587 H         1 KQQ         0.1072
     55 H         -17.4979   -3.0353  -27.1803 H         1 KQQ         0.1072
     56 H         -18.0423   -1.1559  -29.3447 H         1 KQQ         0.2047
     57 H         -15.7150   -0.7150  -29.5885 H         1 KQQ         0.0778
     58 H         -15.4309   -1.7062  -28.1177 H         1 KQQ         0.0778
     59 H         -16.3641   -0.1756  -28.0029 H         1 KQQ         0.0778
     60 H         -18.0022   -3.4675  -30.0956 H         1 KQQ         0.0778
     61 H         -16.3286   -3.5582  -29.4497 H         1 KQQ         0.0778
     62 H         -16.7079   -2.4458  -30.8081 H         1 KQQ         0.0778
     63 H         -18.7417   -2.9101  -24.1389 H         1 KQQ         0.0607
     64 H         -18.9135   -3.5192  -25.8200 H         1 KQQ         0.0607
     65 H         -21.1251   -3.6313  -24.8676 H         1 KQQ         0.0126
     66 H         -21.0976   -2.1862  -25.9342 H         1 KQQ         0.0126
     67 H         -22.8777   -0.7133  -23.0458 H         1 KQQ         0.0063
     68 H         -23.2654   -2.2308  -23.9254 H         1 KQQ         0.0063
     69 H         -22.7939   -0.7581  -24.8396 H         1 KQQ         0.0063
     70 H         -19.8777   -2.7891  -22.4369 H         1 KQQ         0.0063
     71 H         -21.5780   -3.3681  -22.4571 H         1 KQQ         0.0063
     72 H         -21.1714   -1.8029  -21.6751 H         1 KQQ         0.0063
@<TRIPOS>BOND
     1    1    2 2  
     2    2    3 am 
     3    2    4 1  
     4    4    5 1  
     5    4    8 2  
     6    5    6 1  
     7    6    7 2  
     8    7    8 1  
     9    8    9 1  
    10    9   10 1  
    11   10   11 ar 
    12   10   12 ar 
    13   11   18 ar 
    14   12   13 1  
    15   12   16 ar 
    16   13   14 2  
    17   14   15 1  
    18   15   16 1  
    19   16   17 ar 
    20   17   18 ar 
    21   18   19 1  
    22   19   20 1  
    23   20   21 ar 
    24   20   24 ar 
    25   21   22 1  
    26   21   27 ar 
    27   22   23 1  
    28   24   25 ar 
    29   25   26 ar 
    30   25   28 1  
    31   26   27 ar 
    32   26   37 1  
    33   28   29 am 
    34   28   35 1  
    35   29   30 1  
    36   29   34 2  
    37   30   31 1  
    38   31   32 1  
    39   31   33 1  
    40   35   36 1  
    41   36   37 1  
    42   37   38 1  
    43   37   39 1  
    44    3   40 1  
    45    3   41 1  
    46    6   42 1  
    47    7   43 1  
    48    9   44 1  
    49   13   45 1  
    50   14   46 1  
    51   15   47 1  
    52   19   48 1  
    53   23   49 1  
    54   23   50 1  
    55   23   51 1  
    56   24   52 1  
    57   27   53 1  
    58   30   54 1  
    59   30   55 1  
    60   31   56 1  
    61   32   57 1  
    62   32   58 1  
    63   32   59 1  
    64   33   60 1  
    65   33   61 1  
    66   33   62 1  
    67   35   63 1  
    68   35   64 1  
    69   36   65 1  
    70   36   66 1  
    71   38   67 1  
    72   38   68 1  
    73   38   69 1  
    74   39   70 1  
    75   39   71 1  
    76   39   72 1  
@<TRIPOS>SUBSTRUCTURE
     1 KQQ         1

