### 
### Created by X-TOOL on Mon Sep 10 21:13:18 2018
### 

@<TRIPOS>MOLECULE
4pnk_ligand
   43    46     1     0     0
SMALL
GAST_HUCK


@<TRIPOS>ATOM
      1 CAA       -25.0300   26.5130   16.3530 C.2       1 KZQ         0.1055
      2 NAB       -25.6020   25.3850   16.8590 N.pl3     1 KZQ        -0.2464
      3 NAC       -24.8080   24.8380   17.7320 N.2       1 KZQ        -0.3433
      4 CAD       -23.6920   25.5540   17.8560 C.ar      1 KZQ        -0.0310
      5 CAE       -23.7710   26.6390   17.0150 C.ar      1 KZQ         0.0187
      6 CAF       -22.6120   25.3810   18.6370 C.ar      1 KZQ        -0.0731
      7 CAG       -21.6170   26.3200   18.5510 C.ar      1 KZQ        -0.0416
      8 CAH       -21.6460   27.4240   17.7110 C.ar      1 KZQ         0.0648
      9 CAI       -22.7740   27.6100   16.9220 C.ar      1 KZQ        -0.0267
     10 NAJ       -20.5930   28.3050   17.7380 N.am      1 KZQ        -0.2446
     11 CAK       -19.4660   28.2410   18.5380 C.2       1 KZQ         0.1832
     12 OAL       -19.1350   27.4000   19.3810 O.2       1 KZQ        -0.4112
     13 CAM       -18.5080   29.3770   18.4150 C.2       1 KZQ         0.0524
     14 CAN       -18.1860   30.1070   19.5490 C.2       1 KZQ         0.0640
     15 NAO       -17.3420   31.1490   19.4730 N.am      1 KZQ        -0.2115
     16 CAP       -16.7820   31.4940   18.3060 C.2       1 KZQ         0.2977
     17 NAQ       -17.0240   30.8330   17.1650 N.am      1 KZQ        -0.2516
     18 CAR       -17.8990   29.6760   17.1070 C.3       1 KZQ         0.0885
     19 CAS       -18.7900   29.7420   20.8840 C.3       1 KZQ        -0.0024
     20 OAT       -15.9940   32.4680   18.2660 O.2       1 KZQ        -0.3871
     21 CAU       -17.1360   28.4250   16.8590 C.ar      1 KZQ        -0.0215
     22 CAV       -17.2500   27.7960   15.6150 C.ar      1 KZQ        -0.0597
     23 CAW       -16.5820   26.6050   15.3720 C.ar      1 KZQ        -0.0352
     24 CAX       -15.8240   26.0400   16.3770 C.ar      1 KZQ         0.1245
     25 CAY       -15.7040   26.6320   17.6250 C.ar      1 KZQ        -0.0352
     26 CAZ       -16.3540   27.8350   17.8720 C.ar      1 KZQ        -0.0597
     27 FBA       -15.1790   24.9160   16.1110 F         1 KZQ        -0.1896
     28 H         -25.4465   27.1803   15.5999 H         1 KZQ         0.1367
     29 H         -26.5266   25.0193   16.5900 H         1 KZQ         0.2933
     30 H         -22.5310   24.5333   19.3077 H         1 KZQ         0.0577
     31 H         -20.7463   26.1910   19.1837 H         1 KZQ         0.0501
     32 H         -22.8745   28.4674   16.2664 H         1 KZQ         0.0512
     33 H         -20.6468   29.0802   17.1085 H         1 KZQ         0.2226
     34 H         -17.1291   31.6735   20.2974 H         1 KZQ         0.2357
     35 H         -16.5858   31.1484   16.3232 H         1 KZQ         0.1894
     36 H         -18.6661   29.8391   16.3357 H         1 KZQ         0.0739
     37 H         -19.4513   28.8715   20.7615 H         1 KZQ         0.0451
     38 H         -19.3715   30.5929   21.2683 H         1 KZQ         0.0451
     39 H         -17.9873   29.4956   21.5946 H         1 KZQ         0.0451
     40 H         -17.8621   28.2405   14.8386 H         1 KZQ         0.0546
     41 H         -16.6546   26.1235   14.4035 H         1 KZQ         0.0586
     42 H         -15.1095   26.1614   18.3997 H         1 KZQ         0.0586
     43 H         -16.2601   28.3169   18.8384 H         1 KZQ         0.0546
@<TRIPOS>BOND
     1    1    2 1  
     2    1    5 2  
     3    2    3 1  
     4    3    4 2  
     5    4    5 ar 
     6    4    6 ar 
     7    5    9 ar 
     8    6    7 ar 
     9    7    8 ar 
    10    8    9 ar 
    11    8   10 1  
    12   10   11 am 
    13   11   12 2  
    14   11   13 1  
    15   13   14 2  
    16   13   18 1  
    17   14   15 1  
    18   14   19 1  
    19   15   16 am 
    20   16   17 am 
    21   16   20 2  
    22   17   18 1  
    23   18   21 1  
    24   21   22 ar 
    25   21   26 ar 
    26   22   23 ar 
    27   23   24 ar 
    28   24   25 ar 
    29   24   27 1  
    30   25   26 ar 
    31    1   28 1  
    32    2   29 1  
    33    6   30 1  
    34    7   31 1  
    35    9   32 1  
    36   10   33 1  
    37   15   34 1  
    38   17   35 1  
    39   18   36 1  
    40   19   37 1  
    41   19   38 1  
    42   19   39 1  
    43   22   40 1  
    44   23   41 1  
    45   25   42 1  
    46   26   43 1  
@<TRIPOS>SUBSTRUCTURE
     1 KZQ         1

