### 
### Created by X-TOOL on Mon Sep 10 21:13:19 2018
### 

@<TRIPOS>MOLECULE
4pnl_ligand
   22    23     1     0     0
SMALL
GAST_HUCK


@<TRIPOS>ATOM
      1 C1A        24.5070   44.5140   -1.0850 C.3       1 DRL         0.0265
      2 C1I        24.3460   46.0300   -1.1040 C.2       1 DRL         0.1415
      3 N1G        25.1900   46.8270   -0.4190 N.2       1 DRL        -0.3053
      4 C1J        25.0820   48.1850   -0.4300 C.2       1 DRL        -0.0089
      5 C1D        26.1660   48.8990    0.4080 C.3       1 DRL        -0.0059
      6 C1C        26.1690   50.4370    0.3040 C.3       1 DRL         0.0055
      7 S1H        24.5000   51.1780    0.2950 S.3       1 DRL        -0.1520
      8 C1E        23.8270   50.3370   -1.1880 C.3       1 DRL         0.0170
      9 C1K        24.0270   48.8070   -1.1490 C.2       1 DRL         0.0245
     10 C1L        23.1540   47.9790   -1.8750 C.2       1 DRL         0.2020
     11 O1B        22.2380   48.4440   -2.5610 O.2       1 DRL        -0.4174
     12 N1F        23.3120   46.5950   -1.8590 N.am      1 DRL        -0.2012
     13 H          25.3617   44.2440   -0.4473 H         1 DRL         0.0524
     14 H          24.6840   44.1512   -2.1082 H         1 DRL         0.0524
     15 H          23.5916   44.0530   -0.6857 H         1 DRL         0.0524
     16 H          27.1488   48.5336    0.0755 H         1 DRL         0.0450
     17 H          26.0125   48.6297    1.4634 H         1 DRL         0.0450
     18 H          26.6794   50.7206   -0.6282 H         1 DRL         0.0402
     19 H          26.7235   50.8417    1.1635 H         1 DRL         0.0402
     20 H          24.3346   50.7353   -2.0789 H         1 DRL         0.0457
     21 H          22.7497   50.5492   -1.2541 H         1 DRL         0.0457
     22 H          22.6920   46.0104   -2.3824 H         1 DRL         0.2550
@<TRIPOS>BOND
     1    1    2 1  
     2    2    3 2  
     3    2   12 1  
     4    3    4 1  
     5    4    5 1  
     6    4    9 2  
     7    5    6 1  
     8    6    7 1  
     9    7    8 1  
    10    8    9 1  
    11    9   10 1  
    12   10   11 2  
    13   10   12 am 
    14    1   13 1  
    15    1   14 1  
    16    1   15 1  
    17    5   16 1  
    18    5   17 1  
    19    6   18 1  
    20    6   19 1  
    21    8   20 1  
    22    8   21 1  
    23   12   22 1  
@<TRIPOS>SUBSTRUCTURE
     1 DRL         1

