### 
### Created by X-TOOL on Mon Sep 10 21:13:19 2018
### 

@<TRIPOS>MOLECULE
4pnm_ligand
   21    22     1     0     0
SMALL
GAST_HUCK


@<TRIPOS>ATOM
      1 C5         26.2250   48.6120    0.8860 C.ar      1 NU1         0.0981
      2 O5         27.2720   48.0740    1.5650 O.3       1 NU1        -0.3352
      3 C4A        25.3480   47.7890    0.1660 C.ar      1 NU1         0.0438
      4 N4         25.5610   46.4510    0.1190 N.2       1 NU1        -0.3112
      5 C3         24.7330   45.6320   -0.5580 C.2       1 NU1         0.1361
      6 C9         24.9780   44.1230   -0.5970 C.3       1 NU1         0.0253
      7 N2         23.6370   46.1650   -1.2550 N.am      1 NU1        -0.1966
      8 C1         23.3910   47.5400   -1.2290 C.2       1 NU1         0.2318
      9 O1         22.4290   47.9850   -1.8550 O.2       1 NU1        -0.3872
     10 C8A        24.2520   48.3660   -0.5040 C.ar      1 NU1         0.0522
     11 C8         24.0380   49.7460   -0.4330 C.ar      1 NU1        -0.0617
     12 C7         24.9070   50.5570    0.3020 C.ar      1 NU1        -0.0746
     13 C6         25.9950   49.9880    0.9680 C.ar      1 NU1        -0.0373
     14 H          27.7600   48.7674    1.9936 H         1 NU1         0.2465
     15 H          25.8711   43.8811   -0.0021 H         1 NU1         0.0522
     16 H          25.1334   43.8035   -1.6380 H         1 NU1         0.0522
     17 H          24.1059   43.5990   -0.1788 H         1 NU1         0.0522
     18 H          23.0313   45.5593   -1.7710 H         1 NU1         0.2521
     19 H          23.1945   50.1887   -0.9503 H         1 NU1         0.0545
     20 H          24.7369   51.6263    0.3552 H         1 NU1         0.0526
     21 H          26.6618   50.6146    1.5492 H         1 NU1         0.0541
@<TRIPOS>BOND
     1    1    2 1  
     2    1    3 ar 
     3    1   13 ar 
     4    3    4 1  
     5    3   10 ar 
     6    4    5 2  
     7    5    6 1  
     8    5    7 1  
     9    7    8 am 
    10    8    9 2  
    11    8   10 1  
    12   10   11 ar 
    13   11   12 ar 
    14   12   13 ar 
    15    2   14 1  
    16    6   15 1  
    17    6   16 1  
    18    6   17 1  
    19    7   18 1  
    20   11   19 1  
    21   12   20 1  
    22   13   21 1  
@<TRIPOS>SUBSTRUCTURE
     1 NU1         1

