### 
### Created by X-TOOL on Mon Sep 10 21:13:18 2018
### 

@<TRIPOS>MOLECULE
4pnn_ligand
   17    18     1     0     0
SMALL
GAST_HUCK


@<TRIPOS>ATOM
      1 C9         24.4550   51.2100   -0.1500 C.ar      1 JPZ        -0.0633
      2 C8         25.6920   50.6950    0.4820 C.ar      1 JPZ        -0.0643
      3 C10        23.6250   50.3730   -0.9160 C.ar      1 JPZ        -0.0479
      4 C7         26.0050   49.3370    0.4020 C.ar      1 JPZ        -0.0499
      5 C4         24.4760   46.2610   -0.9410 C.2       1 JPZ         0.1270
      6 C11        23.9230   48.9760   -0.9810 C.ar      1 JPZ         0.0643
      7 C6         25.0820   48.4430   -0.3020 C.ar      1 JPZ         0.0242
      8 C2         23.0840   47.9590   -1.6840 C.2       1 JPZ         0.2384
      9 N5         25.3670   47.0650   -0.3320 N.2       1 JPZ        -0.2958
     10 N3         23.3530   46.6440   -1.7050 N.am      1 JPZ        -0.1980
     11 O1         22.0400   48.3930   -2.3640 O.2       1 JPZ        -0.3848
     12 H          24.1849   52.2516   -0.0193 H         1 JPZ         0.0570
     13 H          26.3547   51.3734    1.0071 H         1 JPZ         0.0633
     14 H          22.7731   50.7800   -1.4486 H         1 JPZ         0.0648
     15 H          26.9128   48.9515    0.8518 H         1 JPZ         0.0573
     16 H          24.6408   45.1901   -0.8315 H         1 JPZ         0.1520
     17 H          22.8017   45.9882   -2.2208 H         1 JPZ         0.2558
@<TRIPOS>BOND
     1    2    1 ar 
     2    3    1 ar 
     3    4    2 ar 
     4    6    3 ar 
     5    7    4 ar 
     6    9    5 2  
     7    5   10 1  
     8    7    6 ar 
     9    6    8 1  
    10    7    9 1  
    11    8   10 am 
    12    8   11 2  
    13    1   12 1  
    14    2   13 1  
    15    3   14 1  
    16    4   15 1  
    17    5   16 1  
    18   10   17 1  
@<TRIPOS>SUBSTRUCTURE
     1 JPZ         1

