### 
### Created by X-TOOL on Mon Sep 10 21:13:18 2018
### 

@<TRIPOS>MOLECULE
4pnq_ligand
   20    21     1     0     0
SMALL
GAST_HUCK


@<TRIPOS>ATOM
      1 C10        24.4930   46.0110   -1.0790 C.2       1 32X         0.0438
      2 C11        25.3840   46.8000   -0.4030 C.2       1 32X        -0.0521
      3 C12        25.1910   48.2550   -0.3160 C.ar      1 32X        -0.0122
      4 N01        27.2860   48.5740    0.9940 N.pl3     1 32X        -0.3382
      5 C02        26.1070   49.1110    0.4190 C.ar      1 32X         0.0382
      6 C03        25.8010   50.5020    0.5660 C.ar      1 32X        -0.0495
      7 C04        24.5430   51.0410    0.0040 C.ar      1 32X        -0.0786
      8 C05        23.6960   50.2150   -0.7900 C.ar      1 32X        -0.0658
      9 C06        24.0130   48.8330   -0.9090 C.ar      1 32X         0.0377
     10 C07        23.1000   47.9650   -1.7040 C.2       1 32X         0.2206
     11 O08        22.0990   48.3310   -2.3090 O.2       1 32X        -0.3959
     12 N09        23.3850   46.5920   -1.7310 N.am      1 32X        -0.2290
     13 H          24.6397   44.9325   -1.1136 H         1 32X         0.1086
     14 H          26.2482   46.3436    0.0773 H         1 32X         0.0280
     15 H          27.9307   49.1866    1.5136 H         1 32X         0.1716
     16 H          27.4980   47.5712    0.8922 H         1 32X         0.1716
     17 H          26.4887   51.1580    1.0873 H         1 32X         0.0504
     18 H          24.2640   52.0705    0.1975 H         1 32X         0.0517
     19 H          22.8296   50.6301   -1.2921 H         1 32X         0.0522
     20 H          22.7687   45.9916   -2.2406 H         1 32X         0.2466
@<TRIPOS>BOND
     1    1    2 2  
     2    1   12 1  
     3    2    3 1  
     4    3    5 ar 
     5    3    9 ar 
     6    5    4 1  
     7    5    6 ar 
     8    6    7 ar 
     9    7    8 ar 
    10    8    9 ar 
    11    9   10 1  
    12   10   11 2  
    13   10   12 am 
    14    1   13 1  
    15    2   14 1  
    16    4   15 1  
    17    4   16 1  
    18    6   17 1  
    19    7   18 1  
    20    8   19 1  
    21   12   20 1  
@<TRIPOS>SUBSTRUCTURE
     1 32X         1

