### 
### Created by X-TOOL on Mon Sep 10 21:13:17 2018
### 

@<TRIPOS>MOLECULE
4pnr_ligand
   21    23     1     0     0
SMALL
GAST_HUCK


@<TRIPOS>ATOM
      1 CAO        24.8800   47.9260   -0.3760 C.ar      1 G18        -0.0279
      2 CAN        23.7760   48.5900   -1.0390 C.ar      1 G18         0.0482
      3 CAH        23.5920   49.9940   -0.9320 C.ar      1 G18        -0.0519
      4 CAD        24.4610   50.7950   -0.1880 C.ar      1 G18        -0.0657
      5 CAF        25.6630   50.1670    0.4240 C.ar      1 G18        -0.0676
      6 CAL        25.8320   48.7860    0.2780 C.ar      1 G18        -0.0632
      7 CAC        25.7010   44.2570   -0.1200 C.2       1 G18        -0.0230
      8 CAG        25.8470   45.5430    0.1600 C.2       1 G18        -0.0882
      9 CAM        24.8710   46.4580   -0.3820 C.2       1 G18        -0.0038
     10 CAJ        23.9250   45.7490   -1.1200 C.2       1 G18         0.1537
     11 NAC        22.9610   46.4170   -1.8280 N.am      1 G18        -0.2086
     12 SAK        24.2750   44.0050   -1.1300 S.3       1 G18        -0.0103
     13 CAK        22.7480   47.7690   -1.7740 C.2       1 G18         0.2271
     14 OAB        21.8780   48.2280   -2.4570 O.2       1 G18        -0.3907
     15 H          22.7544   50.4565   -1.4416 H         1 G18         0.0641
     16 H          24.2637   51.8531   -0.0590 H         1 G18         0.0552
     17 H          26.3873   50.7627    0.9676 H         1 G18         0.0623
     18 H          26.7326   48.3369    0.6809 H         1 G18         0.0551
     19 H          26.3664   43.4666    0.2241 H         1 G18         0.0535
     20 H          26.6723   45.8970    0.7760 H         1 G18         0.0357
     21 H          22.3697   45.8782   -2.4280 H         1 G18         0.2461
@<TRIPOS>BOND
     1    1    2 ar 
     2    1    6 ar 
     3    9    1 1  
     4    2    3 ar 
     5    2   13 1  
     6    3    4 ar 
     7    5    4 ar 
     8    6    5 ar 
     9    8    7 2  
    10    7   12 1  
    11    8    9 1  
    12    9   10 2  
    13   10   11 1  
    14   10   12 1  
    15   11   13 am 
    16   13   14 2  
    17    3   15 1  
    18    4   16 1  
    19    5   17 1  
    20    6   18 1  
    21    7   19 1  
    22    8   20 1  
    23   11   21 1  
@<TRIPOS>SUBSTRUCTURE
     1 G18         1

