### 
### Created by X-TOOL on Mon Sep 10 21:13:18 2018
### 

@<TRIPOS>MOLECULE
4pns_ligand
   19    20     1     0     0
SMALL
GAST_HUCK


@<TRIPOS>ATOM
      1 C10        24.3190   46.4360   -0.7540 C.2       1 32Y        -0.0398
      2 C11        25.1980   47.5000   -0.2250 C.ar      1 32Y         0.0228
      3 C12        26.3410   47.2820    0.5910 C.ar      1 32Y         0.0307
      4 N01        28.2410   48.1330    1.9200 N.pl3     1 32Y        -0.3395
      5 C02        27.1390   48.3340    1.0970 C.ar      1 32Y         0.0408
      6 C03        26.7400   49.7050    0.7860 C.ar      1 32Y        -0.0427
      7 C04        25.6340   49.9640   -0.0020 C.ar      1 32Y        -0.0274
      8 C05        24.8710   48.8630   -0.5340 C.ar      1 32Y         0.1322
      9 O06        23.7400   49.2180   -1.3290 O.3       1 32Y        -0.2155
     10 C07        22.8980   48.1550   -1.8190 C.2       1 32Y         0.2621
     11 O08        22.0030   48.5240   -2.5310 O.2       1 32Y        -0.3750
     12 C09        23.1960   46.7800   -1.4330 C.2       1 32Y         0.0221
     13 I13        26.7980   45.3670    1.1200 I         1 32Y        -0.0611
     14 H          24.5700   45.3875   -0.6004 H         1 32Y         0.0744
     15 H          28.7851   48.9395    2.2583 H         1 32Y         0.1701
     16 H          28.5135   47.1775    2.1916 H         1 32Y         0.1701
     17 H          27.3203   50.5318    1.1793 H         1 32Y         0.0546
     18 H          25.3433   50.9858   -0.2178 H         1 32Y         0.0564
     19 H          22.4877   45.9974   -1.7010 H         1 32Y         0.0646
@<TRIPOS>BOND
     1    1    2 1  
     2    1   12 2  
     3    2    3 ar 
     4    2    8 ar 
     5    3    5 ar 
     6    3   13 1  
     7    5    4 1  
     8    5    6 ar 
     9    6    7 ar 
    10    7    8 ar 
    11    8    9 1  
    12    9   10 1  
    13   10   11 2  
    14   10   12 1  
    15    1   14 1  
    16    4   15 1  
    17    4   16 1  
    18    6   17 1  
    19    7   18 1  
    20   12   19 1  
@<TRIPOS>SUBSTRUCTURE
     1 32Y         1

