### 
### Created by X-TOOL on Mon Sep 10 21:13:18 2018
### 

@<TRIPOS>MOLECULE
4pnt_ligand
   19    20     1     0     0
SMALL
GAST_HUCK


@<TRIPOS>ATOM
      1 O01        26.9000   48.4820    1.0920 O.3       1 IQD        -0.3350
      2 C02        25.8560   49.1120    0.4490 C.ar      1 IQD         0.0895
      3 C03        25.6380   50.4880    0.5340 C.ar      1 IQD        -0.0384
      4 C04        24.4170   51.0440   -0.1160 C.ar      1 IQD        -0.0754
      5 C05        23.5520   50.2410   -0.8790 C.ar      1 IQD        -0.0635
      6 C06        23.7890   48.8230   -0.9370 C.ar      1 IQD         0.0405
      7 C07        22.8920   47.8660   -1.6240 C.2       1 IQD         0.2215
      8 O08        21.9140   48.3940   -2.3670 O.2       1 IQD        -0.3955
      9 N09        23.0840   46.5450   -1.6900 N.am      1 IQD        -0.2283
     10 C10        24.1580   46.0080   -0.9380 C.2       1 IQD         0.0448
     11 C11        25.0900   46.7850   -0.2650 C.2       1 IQD        -0.0503
     12 C12        24.9280   48.2270   -0.2590 C.ar      1 IQD        -0.0017
     13 H1         27.7235   48.8409    0.7831 H         1 IQD         0.2474
     14 H2         26.3353   51.1327    1.0567 H         1 IQD         0.0534
     15 H3         24.1900   52.0972    0.0032 H         1 IQD         0.0523
     16 H4         22.7198   50.6828   -1.4151 H         1 IQD         0.0541
     17 H5         22.4943   45.9601   -2.2469 H         1 IQD         0.2470
     18 H6         24.2576   44.9248   -0.8852 H         1 IQD         0.1095
     19 H7         25.9293   46.3202    0.2503 H         1 IQD         0.0282
@<TRIPOS>BOND
     1    1    2 1  
     2    2    3 ar 
     3    2   12 ar 
     4    3    4 ar 
     5    4    5 ar 
     6    5    6 ar 
     7    6    7 1  
     8    6   12 ar 
     9    7    8 2  
    10    7    9 am 
    11    9   10 am 
    12   10   11 2  
    13   11   12 1  
    14    1   13 1  
    15    3   14 1  
    16    4   15 1  
    17    5   16 1  
    18    9   17 1  
    19   10   18 1  
    20   11   19 1  
@<TRIPOS>SUBSTRUCTURE
     1 IQD         1

