### 
### Created by X-TOOL on Mon Sep 10 21:13:18 2018
### 

@<TRIPOS>MOLECULE
4pnu_ligand
   53    56     1     0     0
SMALL
GAST_HUCK


@<TRIPOS>ATOM
      1 CAM        10.9330   -5.1970   -8.9980 C.3       1 2VD        -0.0401
      2 CAL        11.4650   -6.5630   -8.6380 C.3       1 2VD        -0.0343
      3 CAK        11.9830   -7.2640   -9.8680 C.3       1 2VD         0.0237
      4 CBD        12.7330   -8.5780   -9.4650 C.2       1 2VD         0.0400
      5 OBF        13.9170   -8.4360   -9.0840 O.co2     1 2VD        -0.5685
      6 OBE        12.1510   -9.6930   -9.5570 O.co2     1 2VD        -0.5685
      7 CAJ        10.8420   -7.5340  -10.8040 C.3       1 2VD         0.0144
      8 CAH         9.9290   -6.4350  -10.8300 C.2       1 2VD         0.0456
      9 CAI         9.9610   -5.3550  -10.0130 C.2       1 2VD        -0.0467
     10 CAE         8.9400   -4.5340  -10.3610 C.ar      1 2VD        -0.0283
     11 CAF         8.5110   -3.3480   -9.8650 C.ar      1 2VD        -0.0696
     12 CAA         7.4050   -2.6940  -10.4210 C.ar      1 2VD        -0.0085
     13 BR          6.7200   -1.0590   -9.7910 Br        1 2VD        -0.0623
     14 CAB         6.7500   -3.2930  -11.4890 C.ar      1 2VD        -0.0712
     15 CAC         7.2150   -4.5120  -11.9630 C.ar      1 2VD        -0.0458
     16 CAD         8.2900   -5.1010  -11.3980 C.ar      1 2VD         0.0632
     17 NAG         8.8980   -6.2540  -11.6690 N.pl3     1 2VD        -0.2478
     18 CAO         8.5020   -7.2000  -12.7510 C.3       1 2VD         0.1387
     19 CAP         7.4970   -8.2870  -12.2930 C.2       1 2VD         0.2068
     20 OAQ         7.2780   -9.2400  -13.0310 O.2       1 2VD        -0.3941
     21 N           6.8650   -8.1570  -11.1090 N.am      1 2VD        -0.2674
     22 CA          5.8950   -9.1850  -10.6640 C.3       1 2VD         0.1039
     23 C           6.2760   -9.7770   -9.2940 C.2       1 2VD         0.0621
     24 OXT         7.2400   -9.2760   -8.6760 O.co2     1 2VD        -0.5664
     25 O           5.5710  -10.7230   -8.8870 O.co2     1 2VD        -0.5664
     26 CB          4.4930   -8.5660  -10.5780 C.3       1 2VD         0.0159
     27 CG          4.1850   -8.2070  -11.9050 C.ar      1 2VD        -0.0392
     28 CD1         3.6900   -9.1780  -12.7810 C.ar      1 2VD        -0.0602
     29 CE1         3.3920   -8.8510  -14.1030 C.ar      1 2VD        -0.0686
     30 CZ          3.5820   -7.5480  -14.5600 C.ar      1 2VD        -0.0687
     31 CE2         4.0780   -6.5780  -13.6950 C.ar      1 2VD        -0.0686
     32 CD2         4.3780   -6.9000  -12.3640 C.ar      1 2VD        -0.0602
     33 H1         11.7536   -4.5623   -9.3638 H         1 2VD         0.0323
     34 H2         10.4751   -4.7306   -8.1133 H         1 2VD         0.0323
     35 H3         10.6565   -7.1615   -8.1928 H         1 2VD         0.0298
     36 H4         12.2833   -6.4537   -7.9111 H         1 2VD         0.0298
     37 H5         12.6991   -6.6018  -10.3766 H         1 2VD         0.0490
     38 H6         10.3089   -8.4364  -10.4703 H         1 2VD         0.0464
     39 H7         11.2386   -7.6960  -11.8171 H         1 2VD         0.0464
     40 H8          9.0313   -2.8996   -9.0264 H         1 2VD         0.0545
     41 H9          5.8897   -2.8165  -11.9450 H         1 2VD         0.0522
     42 H10         6.7112   -4.9943  -12.7928 H         1 2VD         0.0536
     43 H11         9.4081   -7.7001  -13.1235 H         1 2VD         0.0839
     44 H12         8.0409   -6.6222  -13.5655 H         1 2VD         0.0839
     45 H13         7.0516   -7.3639  -10.5291 H         1 2VD         0.1877
     46 H14         5.8828   -9.9976  -11.4052 H         1 2VD         0.0749
     47 H15         4.4984   -7.6797   -9.9266 H         1 2VD         0.0467
     48 H16         3.7672   -9.2984  -10.1948 H         1 2VD         0.0467
     49 H17         3.5369  -10.1920  -12.4297 H         1 2VD         0.0557
     50 H18         3.0121   -9.6109  -14.7763 H         1 2VD         0.0599
     51 H19         3.3441   -7.2914  -15.5860 H         1 2VD         0.0559
     52 H20         4.2335   -5.5665  -14.0525 H         1 2VD         0.0599
     53 H21         4.7583   -6.1385  -11.6928 H         1 2VD         0.0557
@<TRIPOS>BOND
     1    1    2 1  
     2    1    9 1  
     3    2    3 1  
     4    3    4 1  
     5    3    7 1  
     6    4    5 ar 
     7    4    6 ar 
     8    7    8 1  
     9    8    9 2  
    10    8   17 1  
    11    9   10 1  
    12   10   11 ar 
    13   10   16 ar 
    14   11   12 ar 
    15   12   13 1  
    16   12   14 ar 
    17   14   15 ar 
    18   15   16 ar 
    19   16   17 1  
    20   17   18 1  
    21   18   19 1  
    22   19   20 2  
    23   19   21 am 
    24   21   22 1  
    25   22   23 1  
    26   22   26 1  
    27   23   24 ar 
    28   23   25 ar 
    29   26   27 1  
    30   27   28 ar 
    31   27   32 ar 
    32   28   29 ar 
    33   29   30 ar 
    34   30   31 ar 
    35   31   32 ar 
    36    1   33 1  
    37    1   34 1  
    38    2   35 1  
    39    2   36 1  
    40    3   37 1  
    41    7   38 1  
    42    7   39 1  
    43   11   40 1  
    44   14   41 1  
    45   15   42 1  
    46   18   43 1  
    47   18   44 1  
    48   21   45 1  
    49   22   46 1  
    50   26   47 1  
    51   26   48 1  
    52   28   49 1  
    53   29   50 1  
    54   30   51 1  
    55   31   52 1  
    56   32   53 1  
@<TRIPOS>SUBSTRUCTURE
     1 2VD         1

