### 
### Created by X-TOOL on Mon Sep 10 21:13:18 2018
### 

@<TRIPOS>MOLECULE
4pnw_ligand
   53    56     1     0     0
SMALL
GAST_HUCK


@<TRIPOS>ATOM
      1 CAM        39.7770   11.9910   45.6490 C.3       1 2VM        -0.0401
      2 CAL        40.2510   13.3390   45.0850 C.3       1 2VM        -0.0343
      3 CAK        40.9220   14.0980   46.2220 C.3       1 2VM         0.0237
      4 CBD        41.7640   15.2710   45.6620 C.2       1 2VM         0.0400
      5 OBF        42.6790   14.9790   44.8560 O.co2     1 2VM        -0.5685
      6 OBE        41.5100   16.4280   46.0670 O.co2     1 2VM        -0.5685
      7 CAJ        39.8440   14.5660   47.1600 C.3       1 2VM         0.0144
      8 CAH        38.9690   13.4810   47.4490 C.2       1 2VM         0.0456
      9 CAI        38.9230   12.3030   46.7580 C.2       1 2VM        -0.0467
     10 CAE        37.9710   11.5390   47.3230 C.ar      1 2VM        -0.0283
     11 CAF        37.5370   10.2980   47.0280 C.ar      1 2VM        -0.0696
     12 CAA        36.5160    9.7060   47.7680 C.ar      1 2VM        -0.0085
     13 BR         35.8170    7.9630   47.4370 Br        1 2VM        -0.0623
     14 CAB        35.9790   10.4270   48.8160 C.ar      1 2VM        -0.0712
     15 CAC        36.4540   11.6970   49.0920 C.ar      1 2VM        -0.0458
     16 CAD        37.4330   12.2280   48.3430 C.ar      1 2VM         0.0632
     17 NAG        38.0350   13.4170   48.4170 N.pl3     1 2VM        -0.2478
     18 CAO        37.6960   14.4810   49.4580 C.3       1 2VM         0.1387
     19 CAP        36.9450   15.6790   48.8380 C.2       1 2VM         0.2068
     20 OAQ        37.1710   16.8200   49.2230 O.2       1 2VM        -0.3941
     21 N          36.0380   15.3900   47.8960 N.am      1 2VM        -0.2674
     22 CA         35.2490   16.4140   47.1580 C.3       1 2VM         0.1039
     23 C          33.9310   16.6400   47.8850 C.2       1 2VM         0.0621
     24 OXT        33.2750   15.6290   48.2090 O.co2     1 2VM        -0.5664
     25 O          33.6270   17.8230   48.1230 O.co2     1 2VM        -0.5664
     26 CB         35.0380   15.8210   45.7870 C.3       1 2VM         0.0159
     27 CG         35.9380   16.1820   44.7770 C.ar      1 2VM        -0.0392
     28 CD1        37.2490   16.5760   45.0790 C.ar      1 2VM        -0.0602
     29 CE1        38.1570   16.8640   44.0680 C.ar      1 2VM        -0.0686
     30 CZ         37.7650   16.7300   42.7440 C.ar      1 2VM        -0.0687
     31 CE2        36.4740   16.3100   42.4330 C.ar      1 2VM        -0.0686
     32 CD2        35.5650   16.0210   43.4470 C.ar      1 2VM        -0.0602
     33 H1         40.6374   11.3941   45.9857 H         1 2VM         0.0323
     34 H2         39.2196   11.4314   44.8834 H         1 2VM         0.0323
     35 H3         39.3913   13.9115   44.7068 H         1 2VM         0.0298
     36 H4         40.9691   13.1733   44.2684 H         1 2VM         0.0298
     37 H5         41.5944   13.4176   46.7650 H         1 2VM         0.0490
     38 H6         39.2753   15.3813   46.6889 H         1 2VM         0.0464
     39 H7         40.3004   14.9286   48.0929 H         1 2VM         0.0464
     40 H8         37.9874    9.7541   46.2056 H         1 2VM         0.0545
     41 H9         35.1876    9.9993   49.4208 H         1 2VM         0.0522
     42 H10        36.0345   12.2643   49.9150 H         1 2VM         0.0536
     43 H11        38.6299   14.8439   49.9119 H         1 2VM         0.0839
     44 H12        37.0624   14.0284   50.2349 H         1 2VM         0.0839
     45 H13        35.8812   14.4274   47.6749 H         1 2VM         0.1877
     46 H14        35.8003   17.3632   47.0866 H         1 2VM         0.0749
     47 H15        34.0327   16.1163   45.4523 H         1 2VM         0.0467
     48 H16        35.0830   14.7269   45.8916 H         1 2VM         0.0467
     49 H17        37.5582   16.6570   46.1148 H         1 2VM         0.0557
     50 H18        39.1618   17.1902   44.3111 H         1 2VM         0.0599
     51 H19        38.4664   16.9531   41.9482 H         1 2VM         0.0559
     52 H20        36.1755   16.2076   41.3960 H         1 2VM         0.0599
     53 H21        34.5690   15.6714   43.2005 H         1 2VM         0.0557
@<TRIPOS>BOND
     1    1    2 1  
     2    1    9 1  
     3    2    3 1  
     4    3    4 1  
     5    3    7 1  
     6    4    5 ar 
     7    4    6 ar 
     8    7    8 1  
     9    8    9 2  
    10    8   17 1  
    11    9   10 1  
    12   10   11 ar 
    13   10   16 ar 
    14   11   12 ar 
    15   12   13 1  
    16   12   14 ar 
    17   14   15 ar 
    18   15   16 ar 
    19   16   17 1  
    20   17   18 1  
    21   18   19 1  
    22   19   20 2  
    23   19   21 am 
    24   21   22 1  
    25   22   23 1  
    26   22   26 1  
    27   23   24 ar 
    28   23   25 ar 
    29   26   27 1  
    30   27   28 ar 
    31   27   32 ar 
    32   28   29 ar 
    33   29   30 ar 
    34   30   31 ar 
    35   31   32 ar 
    36    1   33 1  
    37    1   34 1  
    38    2   35 1  
    39    2   36 1  
    40    3   37 1  
    41    7   38 1  
    42    7   39 1  
    43   11   40 1  
    44   14   41 1  
    45   15   42 1  
    46   18   43 1  
    47   18   44 1  
    48   21   45 1  
    49   22   46 1  
    50   26   47 1  
    51   26   48 1  
    52   28   49 1  
    53   29   50 1  
    54   30   51 1  
    55   31   52 1  
    56   32   53 1  
@<TRIPOS>SUBSTRUCTURE
     1 2VM         1

