### 
### Created by X-TOOL on Mon Sep 10 21:13:18 2018
### 

@<TRIPOS>MOLECULE
4po0_ligand
   30    31     1     0     0
SMALL
GAST_HUCK


@<TRIPOS>ATOM
      1 C1         61.6280   26.6520   51.0440 C.ar      1 NPS         0.0895
      2 O2         62.9660   26.2820   51.3310 O.3       1 NPS        -0.3221
      3 C2         60.8690   25.9210   50.0920 C.ar      1 NPS        -0.0299
      4 C14        55.6450   29.2330   50.7720 C.3       1 NPS         0.0406
      5 C3         59.5240   26.2780   49.8410 C.ar      1 NPS        -0.0598
      6 C4         58.9520   27.3840   50.5380 C.ar      1 NPS        -0.0322
      7 C5         59.7120   28.0870   51.4520 C.ar      1 NPS        -0.0327
      8 C6         61.0560   27.7170   51.7160 C.ar      1 NPS        -0.0317
      9 C7         57.6120   27.7810   50.2790 C.ar      1 NPS        -0.0572
     10 C8         57.0800   28.8570   50.9530 C.ar      1 NPS        -0.0301
     11 C10        54.8050   28.0450   50.7340 C.3       1 NPS        -0.0414
     12 C13        59.1760   29.1480   52.1090 C.ar      1 NPS        -0.0624
     13 C11        57.8480   29.5290   51.8760 C.ar      1 NPS        -0.0588
     14 C12        63.3600   24.9320   51.1660 C.3       1 NPS         0.0592
     15 O          56.3660   30.1440   48.6510 O.co2     1 NPS        -0.5662
     16 OXT        54.3590   30.7350   49.3900 O.co2     1 NPS        -0.5662
     17 C15        55.4480   30.0690   49.5280 C.2       1 NPS         0.0487
     18 H          61.3196   25.0915   49.5591 H         1 NPS         0.0583
     19 H          55.3410   29.8385   51.6386 H         1 NPS         0.0615
     20 H          58.9332   25.7169   49.1260 H         1 NPS         0.0599
     21 H          61.6358   28.2702   52.4460 H         1 NPS         0.0493
     22 H          57.0129   27.2400   49.5555 H         1 NPS         0.0528
     23 H          54.9650   27.4535   51.6475 H         1 NPS         0.0271
     24 H          55.0667   27.4389   49.8542 H         1 NPS         0.0271
     25 H          53.7485   28.3448   50.6717 H         1 NPS         0.0271
     26 H          59.7793   29.7034   52.8179 H         1 NPS         0.0587
     27 H          57.4222   30.3597   52.4272 H         1 NPS         0.0578
     28 H          64.4221   24.8250   51.4314 H         1 NPS         0.0577
     29 H          63.2119   24.6323   50.1180 H         1 NPS         0.0577
     30 H          62.7521   24.2900   51.8204 H         1 NPS         0.0577
@<TRIPOS>BOND
     1    1    2 1  
     2    3    1 ar 
     3    8    1 ar 
     4    2   14 1  
     5    5    3 ar 
     6   10    4 1  
     7    4   11 1  
     8    4   17 1  
     9    6    5 ar 
    10    6    7 ar 
    11    9    6 ar 
    12    7    8 ar 
    13    7   12 ar 
    14    9   10 ar 
    15   10   13 ar 
    16   12   13 ar 
    17   17   15 ar 
    18   17   16 ar 
    19    3   18 1  
    20    4   19 1  
    21    5   20 1  
    22    8   21 1  
    23    9   22 1  
    24   11   23 1  
    25   11   24 1  
    26   11   25 1  
    27   12   26 1  
    28   13   27 1  
    29   14   28 1  
    30   14   29 1  
    31   14   30 1  
@<TRIPOS>SUBSTRUCTURE
     1 NPS         1

