### 
### Created by X-TOOL on Mon Sep 10 21:13:19 2018
### 

@<TRIPOS>MOLECULE
4poh_ligand
   46    47     1     0     0
SMALL
GAST_HUCK


@<TRIPOS>ATOM
      1 C2'        65.6000   46.0890   28.9640 C.3       1 2VR        -0.0083
      2 C1'        66.9550   45.4080   29.1700 C.3       1 2VR        -0.0288
      3 C18        67.8950   46.1100   30.1570 C.3       1 2VR        -0.0138
      4 C5         67.1700   46.6420   31.3990 C.ar      1 2VR        -0.0307
      5 C4         67.7870   46.5470   32.6400 C.ar      1 2VR        -0.0603
      6 C3         67.1260   46.9830   33.7910 C.ar      1 2VR        -0.0702
      7 C2         65.8360   47.4840   33.7070 C.ar      1 2VR        -0.0605
      8 C1         65.2070   47.5990   32.4650 C.ar      1 2VR        -0.0340
      9 C8'        63.8130   48.1940   32.3730 C.3       1 2VR        -0.0281
     10 C6         65.8890   47.1820   31.3150 C.ar      1 2VR         0.0042
     11 C7         65.3380   47.2280   29.9690 C.2       1 2VR        -0.0248
     12 C8         64.6650   48.3600   29.5330 C.2       1 2VR        -0.0496
     13 C9         64.2350   48.4540   28.1290 C.2       1 2VR        -0.0516
     14 C19        65.2830   48.7870   27.0660 C.3       1 2VR        -0.0281
     15 C10        62.9200   48.2230   27.7460 C.2       1 2VR        -0.0705
     16 C11        61.8280   47.8780   28.6690 C.2       1 2VR        -0.0819
     17 C12        60.7480   47.1270   28.2220 C.2       1 2VR        -0.0748
     18 C13        59.6290   46.7840   29.1080 C.2       1 2VR        -0.0668
     19 C20        59.8870   46.1360   30.4670 C.3       1 2VR        -0.0338
     20 C14        58.3370   47.0700   28.6540 C.2       1 2VR        -0.0599
     21 C15        57.1000   46.8220   29.3910 C.2       1 2VR         0.0232
     22 O1         56.1350   47.5820   29.1520 O.co2     1 2VR        -0.5762
     23 O2         57.0580   45.8910   30.2320 O.co2     1 2VR        -0.5762
     24 H          64.8079   45.3340   29.0759 H         1 2VR         0.0485
     25 H          65.5684   46.5056   27.9464 H         1 2VR         0.0485
     26 H          67.4619   45.3568   28.1951 H         1 2VR         0.0320
     27 H          66.7709   44.3891   29.5415 H         1 2VR         0.0320
     28 H          68.3757   46.9553   29.6427 H         1 2VR         0.0447
     29 H          68.6635   45.3924   30.4802 H         1 2VR         0.0447
     30 H          68.7858   46.1327   32.7157 H         1 2VR         0.0513
     31 H          67.6233   46.9294   34.7527 H         1 2VR         0.0622
     32 H          65.3141   47.7873   34.6074 H         1 2VR         0.0513
     33 H          63.4581   48.4542   33.3812 H         1 2VR         0.0410
     34 H          63.1297   47.4593   31.9221 H         1 2VR         0.0410
     35 H          63.8413   49.0996   31.7492 H         1 2VR         0.0410
     36 H          64.4562   49.1740   30.2256 H         1 2VR         0.0458
     37 H          64.8039   48.8197   26.0764 H         1 2VR         0.0427
     38 H          66.0663   48.0147   27.0688 H         1 2VR         0.0427
     39 H          65.7325   49.7661   27.2882 H         1 2VR         0.0427
     40 H          62.6804   48.3030   26.6867 H         1 2VR         0.0393
     41 H          61.8661   48.2119   29.7048 H         1 2VR         0.0621
     42 H          60.7312   46.7842   27.1885 H         1 2VR         0.0403
     43 H          58.9284   45.9583   30.9764 H         1 2VR         0.0403
     44 H          60.5094   46.8046   31.0798 H         1 2VR         0.0403
     45 H          60.4090   45.1784   30.3235 H         1 2VR         0.0403
     46 H          58.2452   47.5164   27.6650 H         1 2VR         0.0269
@<TRIPOS>BOND
     1    1    2 1  
     2    1   11 1  
     3    2    3 1  
     4    3    4 1  
     5    4    5 ar 
     6    4   10 ar 
     7    5    6 ar 
     8    6    7 ar 
     9    7    8 ar 
    10    8    9 1  
    11    8   10 ar 
    12   10   11 1  
    13   11   12 2  
    14   12   13 1  
    15   13   14 1  
    16   13   15 2  
    17   15   16 1  
    18   16   17 2  
    19   17   18 1  
    20   18   19 1  
    21   18   20 2  
    22   20   21 1  
    23   21   22 ar 
    24   21   23 ar 
    25    1   24 1  
    26    1   25 1  
    27    2   26 1  
    28    2   27 1  
    29    3   28 1  
    30    3   29 1  
    31    5   30 1  
    32    6   31 1  
    33    7   32 1  
    34    9   33 1  
    35    9   34 1  
    36    9   35 1  
    37   12   36 1  
    38   14   37 1  
    39   14   38 1  
    40   14   39 1  
    41   15   40 1  
    42   16   41 1  
    43   17   42 1  
    44   19   43 1  
    45   19   44 1  
    46   19   45 1  
    47   20   46 1  
@<TRIPOS>SUBSTRUCTURE
     1 2VR         1

