### 
### Created by X-TOOL on Mon Sep 10 21:13:19 2018
### 

@<TRIPOS>MOLECULE
4poj_ligand
   44    45     1     0     0
SMALL
GAST_HUCK


@<TRIPOS>ATOM
      1 C2'        65.9450   46.3490   29.7670 C.ar      1 2VP        -0.0596
      2 C1'        66.7690   45.2920   30.5090 C.ar      1 2VP        -0.0718
      3 C18        67.4350   45.8210   31.7810 C.ar      1 2VP        -0.0650
      4 C5         66.4700   46.6030   32.6610 C.ar      1 2VP        -0.0278
      5 C4         66.7260   46.6670   34.0180 C.ar      1 2VP        -0.0594
      6 C3         65.9010   47.3970   34.8720 C.ar      1 2VP        -0.0585
      7 C2         64.7940   48.0530   34.3680 C.ar      1 2VP        -0.0465
      8 C7'        63.8750   48.8530   35.2930 C.3       1 2VP        -0.0317
      9 C1         64.5150   47.9760   32.9980 C.ar      1 2VP        -0.0555
     10 C6         65.3380   47.2740   32.1460 C.ar      1 2VP        -0.0169
     11 C7         65.0740   47.1850   30.7180 C.ar      1 2VP        -0.0176
     12 C8         64.0150   47.9020   30.1890 C.3       1 2VP         0.0300
     13 C9         63.6760   47.9040   28.7440 C.2       1 2VP        -0.0277
     14 C19        64.7380   48.3340   27.7350 C.3       1 2VP        -0.0136
     15 C10        62.4210   47.5600   28.2950 C.2       1 2VP        -0.0589
     16 C11        61.3210   47.1760   29.1890 C.2       1 2VP        -0.0809
     17 C12        60.1290   46.6860   28.6550 C.2       1 2VP        -0.0744
     18 C13        59.0150   46.3160   29.5150 C.2       1 2VP        -0.0672
     19 C20        59.2570   45.5120   30.7940 C.3       1 2VP        -0.0336
     20 C14        57.7230   46.7010   29.1200 C.2       1 2VP        -0.0606
     21 C15        56.5050   46.4010   29.8610 C.2       1 2VP         0.0225
     22 O2         55.5530   47.2040   29.7230 O.co2     1 2VP        -0.5765
     23 O1         56.4690   45.4000   30.6140 O.co2     1 2VP        -0.5765
     24 H          65.9731   46.4912   28.6927 H         1 2VP         0.0534
     25 H          66.8704   44.2686   30.1662 H         1 2VP         0.0578
     26 H          68.4777   45.6572   32.0279 H         1 2VP         0.0545
     27 H          67.5822   46.1409   34.4245 H         1 2VP         0.0606
     28 H          66.1276   47.4501   35.9307 H         1 2VP         0.0583
     29 H          63.0580   49.2960   34.7045 H         1 2VP         0.0389
     30 H          64.4515   49.6531   35.7802 H         1 2VP         0.0389
     31 H          63.4546   48.1852   36.0593 H         1 2VP         0.0389
     32 H          63.6385   48.4763   32.6024 H         1 2VP         0.0536
     33 H          64.1974   48.9529   30.4579 H         1 2VP         0.0691
     34 H          63.1158   47.5411   30.7097 H         1 2VP         0.0691
     35 H          64.3222   48.2769   26.7182 H         1 2VP         0.0490
     36 H          65.6092   47.6669   27.8128 H         1 2VP         0.0490
     37 H          65.0478   49.3680   27.9469 H         1 2VP         0.0490
     38 H          62.2344   47.5733   27.2222 H         1 2VP         0.0362
     39 H          61.4357   47.2736   30.2675 H         1 2VP         0.0647
     40 H          60.0305   46.5785   27.5758 H         1 2VP         0.0393
     41 H          58.2978   45.3337   31.3020 H         1 2VP         0.0405
     42 H          59.9257   46.0762   31.4608 H         1 2VP         0.0405
     43 H          59.7215   44.5481   30.5388 H         1 2VP         0.0405
     44 H          57.6248   47.2643   28.1932 H         1 2VP         0.0259
@<TRIPOS>BOND
     1    1    2 ar 
     2    1   11 ar 
     3    2    3 ar 
     4    3    4 ar 
     5    4    5 ar 
     6    4   10 ar 
     7    5    6 ar 
     8    6    7 ar 
     9    7    8 1  
    10    7    9 ar 
    11    9   10 ar 
    12   10   11 ar 
    13   11   12 1  
    14   12   13 1  
    15   13   14 1  
    16   13   15 2  
    17   15   16 1  
    18   16   17 2  
    19   17   18 1  
    20   18   19 1  
    21   18   20 2  
    22   20   21 1  
    23   21   22 ar 
    24   21   23 ar 
    25    1   24 1  
    26    2   25 1  
    27    3   26 1  
    28    5   27 1  
    29    6   28 1  
    30    8   29 1  
    31    8   30 1  
    32    8   31 1  
    33    9   32 1  
    34   12   33 1  
    35   12   34 1  
    36   14   35 1  
    37   14   36 1  
    38   14   37 1  
    39   15   38 1  
    40   16   39 1  
    41   17   40 1  
    42   19   41 1  
    43   19   42 1  
    44   19   43 1  
    45   20   44 1  
@<TRIPOS>SUBSTRUCTURE
     1 2VP         1

