### 
### Created by X-TOOL on Mon Sep 10 21:13:18 2018
### 

@<TRIPOS>MOLECULE
4pop_ligand
   32    33     1     0     0
SMALL
GAST_HUCK


@<TRIPOS>ATOM
      1 CM2        14.6840   11.6360   41.8380 C.3       1 2VY        -0.0029
      2 N4A        15.0970    7.6280   44.4680 N.pl3     1 2VY        -0.3185
      3 CM4        18.3120    7.1970   48.3860 C.3       1 2VY        -0.0500
      4 O1         20.8260    5.5380   48.2410 O.3       1 2VY        -0.3829
      5 C6         20.5750    5.3110   46.8890 C.3       1 2VY         0.0830
      6 C2         18.4150    7.8930   44.6170 C.2       1 2VY        -0.0261
      7 S1         19.6380    6.6950   44.6760 S.3       1 2VY        -0.0651
      8 C5         19.6530    6.3540   46.3040 C.2       1 2VY         0.0301
      9 C4         18.6680    7.1890   46.8880 C.2       1 2VY        -0.0581
     10 C3         17.9880    8.0530   45.9660 C.2       1 2VY        -0.0605
     11 C7A        16.8940    9.0080   46.4360 C.3       1 2VY         0.0028
     12 C4A        15.4560    8.9840   44.3000 C.ar      1 2VY         0.1226
     13 N3A        14.9670    9.6500   43.2520 N.ar      1 2VY        -0.2608
     14 C2A        15.2560   10.9350   43.0530 C.ar      1 2VY         0.0759
     15 N1A        16.0320   11.6140   43.8740 N.ar      1 2VY        -0.2936
     16 C6A        16.5560   11.0550   44.9720 C.ar      1 2VY         0.0077
     17 C5A        16.2900    9.6820   45.2100 C.ar      1 2VY         0.0262
     18 H1         14.0643   10.9302   41.2654 H         1 2VY         0.0449
     19 H2         15.5058   12.0002   41.2040 H         1 2VY         0.0449
     20 H3         14.0664   12.4865   42.1623 H         1 2VY         0.0449
     21 H4         15.4623    7.0940   45.2694 H         1 2VY         0.1790
     22 H5         14.4699    7.1733   43.7890 H         1 2VY         0.1790
     23 H6         18.9427    6.4685   48.9166 H         1 2VY         0.0308
     24 H7         17.2534    6.9265   48.5128 H         1 2VY         0.0308
     25 H8         18.4857    8.2017   48.7988 H         1 2VY         0.0308
     26 H9         21.2337    6.3894   48.3477 H         1 2VY         0.2126
     27 H10        20.1094    4.3209   46.7752 H         1 2VY         0.0717
     28 H11        21.5289    5.3327   46.3417 H         1 2VY         0.0717
     29 H12        18.0443    8.4185   43.7381 H         1 2VY         0.0463
     30 H13        17.3252    9.7681   47.1040 H         1 2VY         0.0518
     31 H14        16.1155    8.4466   46.9735 H         1 2VY         0.0518
     32 H15        17.1645   11.6335   45.6577 H         1 2VY         0.0792
@<TRIPOS>BOND
     1   14    1 1  
     2   12    2 1  
     3    9    3 1  
     4    5    4 1  
     5    8    5 1  
     6    6    7 1  
     7   10    6 2  
     8    8    7 1  
     9    9    8 2  
    10   10    9 1  
    11   11   10 1  
    12   17   11 1  
    13   13   12 ar 
    14   12   17 ar 
    15   13   14 ar 
    16   14   15 ar 
    17   15   16 ar 
    18   16   17 ar 
    19    1   18 1  
    20    1   19 1  
    21    1   20 1  
    22    2   21 1  
    23    2   22 1  
    24    3   23 1  
    25    3   24 1  
    26    3   25 1  
    27    4   26 1  
    28    5   27 1  
    29    5   28 1  
    30    6   29 1  
    31   11   30 1  
    32   11   31 1  
    33   16   32 1  
@<TRIPOS>SUBSTRUCTURE
     1 2VY         1

