### 
### Created by X-TOOL on Mon Sep 10 21:13:18 2018
### 

@<TRIPOS>MOLECULE
4pov_ligand
   32    33     1     0     0
SMALL
GAST_HUCK


@<TRIPOS>ATOM
      1 CM2        13.9450   14.5230   41.7640 C.3       1 2VY        -0.0029
      2 N4A        14.3000   10.4160   44.3050 N.pl3     1 2VY        -0.3185
      3 CM4        17.4620    9.8950   48.2600 C.3       1 2VY        -0.0500
      4 O1         19.5860    8.0480   48.0880 O.3       1 2VY        -0.3829
      5 C6         19.8030    8.1050   46.7220 C.3       1 2VY         0.0830
      6 C2         17.5960   10.7000   44.5490 C.2       1 2VY        -0.0261
      7 S1         18.8550    9.5500   44.5600 S.3       1 2VY        -0.0651
      8 C5         18.8410    9.1400   46.1650 C.2       1 2VY         0.0301
      9 C4         17.8290    9.9350   46.8000 C.2       1 2VY        -0.0581
     10 C3         17.1410   10.8330   45.9000 C.2       1 2VY        -0.0605
     11 C7A        16.0170   11.7490   46.3540 C.3       1 2VY         0.0028
     12 C4A        14.6330   11.7790   44.1820 C.ar      1 2VY         0.1226
     13 N3A        14.1790   12.4760   43.1190 N.ar      1 2VY        -0.2608
     14 C2A        14.4790   13.7740   42.9780 C.ar      1 2VY         0.0759
     15 N1A        15.2290   14.4320   43.8650 N.ar      1 2VY        -0.2936
     16 C6A        15.7420   13.8300   44.9440 C.ar      1 2VY         0.0077
     17 C5A        15.4440   12.4530   45.1370 C.ar      1 2VY         0.0262
     18 H1         13.3518   13.8369   41.1416 H         1 2VY         0.0449
     19 H2         14.7874   14.9160   41.1758 H         1 2VY         0.0449
     20 H3         13.3101   15.3570   42.0977 H         1 2VY         0.0449
     21 H4         14.6404    9.8734   45.1116 H         1 2VY         0.1790
     22 H5         13.7161    9.9618   43.5883 H         1 2VY         0.1790
     23 H6         18.0917    9.1554   48.7762 H         1 2VY         0.0308
     24 H7         16.4041    9.6125   48.3646 H         1 2VY         0.0308
     25 H8         17.6223   10.8878   48.7057 H         1 2VY         0.0308
     26 H9         19.7517    8.9020   48.4697 H         1 2VY         0.2126
     27 H10        19.6073    7.1230   46.2666 H         1 2VY         0.0717
     28 H11        20.8413    8.4043   46.5161 H         1 2VY         0.0717
     29 H12        17.2114   11.2319   43.6800 H         1 2VY         0.0463
     30 H13        16.4091   12.4937   47.0623 H         1 2VY         0.0518
     31 H14        15.2304   11.1559   46.8434 H         1 2VY         0.0518
     32 H15        16.3634   14.3731   45.6469 H         1 2VY         0.0792
@<TRIPOS>BOND
     1   14    1 1  
     2   12    2 1  
     3    9    3 1  
     4    5    4 1  
     5    8    5 1  
     6    6    7 1  
     7   10    6 2  
     8    8    7 1  
     9    9    8 2  
    10   10    9 1  
    11   11   10 1  
    12   17   11 1  
    13   13   12 ar 
    14   12   17 ar 
    15   13   14 ar 
    16   14   15 ar 
    17   15   16 ar 
    18   16   17 ar 
    19    1   18 1  
    20    1   19 1  
    21    1   20 1  
    22    2   21 1  
    23    2   22 1  
    24    3   23 1  
    25    3   24 1  
    26    3   25 1  
    27    4   26 1  
    28    5   27 1  
    29    5   28 1  
    30    6   29 1  
    31   11   30 1  
    32   11   31 1  
    33   16   32 1  
@<TRIPOS>SUBSTRUCTURE
     1 2VY         1

