### 
### Created by X-TOOL on Mon Sep 10 21:13:17 2018
### 

@<TRIPOS>MOLECULE
4pow_ligand
   40    40     1     0     0
SMALL
GAST_HUCK


@<TRIPOS>ATOM
      1 CA          3.6270   18.2040    2.9130 C.3       1 OP1         0.0362
      2 C           2.3030   17.5440    3.2890 C.2       1 OP1         0.0847
      3 O           2.3190   16.5140    4.0120 O.co2     1 OP1        -0.5643
      4 CB          4.2630   18.8010    4.1560 C.3       1 OP1         0.0058
      5 CG          3.3640   19.6380    4.9860 C.3       1 OP1        -0.0131
      6 CD          4.0440   20.1050    6.2120 C.3       1 OP1         0.0628
      7 NE          3.2780   21.2540    6.7290 N.pl3     1 OP1        -0.2723
      8 CZ          3.6790   21.8850    7.9520 C.cat     1 OP1         0.2882
      9 NH2         2.9350   22.9470    8.2860 N.pl3     1 OP1        -0.2849
     10 NH1         4.6850   21.4410    8.6750 N.pl3     1 OP1        -0.2849
     11 N           3.4440   19.1650    1.8200 N.4       1 OP1         0.2839
     12 CAU         3.8300   20.5530    1.6260 C.3       1 OP1         0.0364
     13 CAM         3.1700   20.9910    0.3660 C.3       1 OP1         0.0102
     14 CAK         2.9710   19.7560   -0.4650 C.3       1 OP1         0.0234
     15 CAQ         2.8980   18.6940    0.5760 C.3       1 OP1         0.0857
     16 OAM         2.8840   17.3690    0.2630 O.3       1 OP1        -0.3529
     17 CAS         5.2910   20.6450    1.4570 C.2       1 OP1         0.0847
     18 OAH         5.9990   19.6060    1.2410 O.co2     1 OP1        -0.5643
     19 OAE         5.8640   21.7570    1.4910 O.co2     1 OP1        -0.5643
     20 OXT         1.2100   18.0940    2.9220 O.co2     1 OP1        -0.5643
     21 H           4.3034   17.4196    2.5426 H         1 OP1         0.1027
     22 H           5.1111   19.4251    3.8379 H         1 OP1         0.0340
     23 H           4.6305   17.9737    4.7809 H         1 OP1         0.0340
     24 H           2.4824   19.0444    5.2695 H         1 OP1         0.0302
     25 H           3.0445   20.5116    4.3988 H         1 OP1         0.0302
     26 H           5.0732   20.4141    5.9769 H         1 OP1         0.0689
     27 H           4.0650   19.2994    6.9607 H         1 OP1         0.0689
     28 H           2.4574   21.6021    6.2130 H         1 OP1         0.2642
     29 H           3.1425   23.4705    9.1485 H         1 OP1         0.2615
     30 H           2.1552   23.2405    7.6805 H         1 OP1         0.2615
     31 H           5.2194   20.6175    8.3632 H         1 OP1         0.2615
     32 H           4.9380   21.9170    9.5527 H         1 OP1         0.2615
     33 H           2.5546   19.4335    2.2110 H         1 OP1         0.2097
     34 H           3.5057   21.1713    2.4760 H         1 OP1         0.1027
     35 H           3.8098   21.7089   -0.1681 H         1 OP1         0.0341
     36 H           2.1998   21.4593    0.5885 H         1 OP1         0.0341
     37 H           3.8189   19.5910   -1.1460 H         1 OP1         0.0349
     38 H           2.0389   19.8109   -1.0465 H         1 OP1         0.0349
     39 H           1.8287   18.7766    0.8204 H         1 OP1         0.1185
     40 H           2.3801   16.8961    0.9148 H         1 OP1         0.2154
@<TRIPOS>BOND
     1    1    2 1  
     2    1    4 1  
     3    1   11 1  
     4    2    3 ar 
     5    2   20 ar 
     6    4    5 1  
     7    5    6 1  
     8    6    7 1  
     9    7    8 ar 
    10    8    9 ar 
    11    8   10 ar 
    12   11   12 1  
    13   11   15 1  
    14   12   13 1  
    15   12   17 1  
    16   13   14 1  
    17   14   15 1  
    18   15   16 1  
    19   17   18 ar 
    20   17   19 ar 
    21    1   21 1  
    22    4   22 1  
    23    4   23 1  
    24    5   24 1  
    25    5   25 1  
    26    6   26 1  
    27    6   27 1  
    28    7   28 1  
    29    9   29 1  
    30    9   30 1  
    31   10   31 1  
    32   10   32 1  
    33   11   33 1  
    34   12   34 1  
    35   13   35 1  
    36   13   36 1  
    37   14   37 1  
    38   14   38 1  
    39   15   39 1  
    40   16   40 1  
@<TRIPOS>SUBSTRUCTURE
     1 OP1         1

