### 
### Created by X-TOOL on Mon Sep 10 21:13:18 2018
### 

@<TRIPOS>MOLECULE
4pox_ligand
   38    37     1     0     0
SMALL
GAST_HUCK


@<TRIPOS>ATOM
      1 OXT        16.4780   -8.0390   -1.8300 O.co2     1 2W2        -0.5639
      2 CAQ        18.8520   -8.1920    2.1600 C.2       1 2W2         0.0351
      3 CAK        20.2230   -7.7250    1.7570 C.3       1 2W2         0.0069
      4 CAM        20.6970   -7.8500    0.3400 C.3       1 2W2         0.0140
      5 CAU        20.2080   -6.8420   -0.6800 C.3       1 2W2         0.0337
      6 OAC        17.8570   -8.1020    1.3890 O.co2     1 2W2        -0.5690
      7 OAF        18.6870   -8.6660    3.3170 O.co2     1 2W2        -0.5690
      8 CAS        20.4380   -5.4360   -0.2290 C.2       1 2W2         0.0846
      9 OAH        19.4970   -4.7840    0.2990 O.co2     1 2W2        -0.5643
     10 OAE        21.5780   -4.8930   -0.3750 O.co2     1 2W2        -0.5643
     11 N          18.8220   -7.1390   -1.0510 N.4       1 2W2         0.2593
     12 CA         18.0560   -6.2410   -1.9570 C.3       1 2W2         0.0605
     13 C          16.6860   -6.8650   -2.2220 C.2       1 2W2         0.0913
     14 O          15.7980   -6.2110   -2.8260 O.co2     1 2W2        -0.5639
     15 CB         18.7280   -5.8470   -3.2660 C.3       1 2W2         0.0934
     16 CG         19.4300   -6.9430   -4.0080 C.2       1 2W2         0.0872
     17 CD         19.3870   -6.9730   -5.4960 C.2       1 2W2         0.1620
     18 NE         20.1390   -8.0860   -6.0430 N.pl3     1 2W2        -0.2291
     19 CZ         20.9480   -7.9680   -7.2400 C.cat     1 2W2         0.1708
     20 NH2        21.6010   -9.0230   -7.6460 N.pl3     1 2W2        -0.3481
     21 NH1        21.0330   -6.8670   -7.9160 N.pl3     1 2W2        -0.3481
     22 H          20.9387   -8.2854    2.3765 H         1 2W2         0.0433
     23 H          20.2763   -6.6561    2.0112 H         1 2W2         0.0433
     24 H          20.3938   -8.8454   -0.0167 H         1 2W2         0.0356
     25 H          21.7950   -7.7859    0.3585 H         1 2W2         0.0356
     26 H          20.8141   -6.9782   -1.5878 H         1 2W2         0.1026
     27 H          18.3003   -7.1882   -0.1899 H         1 2W2         0.2052
     28 H          18.8322   -8.0463   -1.4901 H         1 2W2         0.2052
     29 H          17.8952   -5.3042   -1.4034 H         1 2W2         0.1100
     30 H          19.4697   -5.0667   -3.0404 H         1 2W2         0.0836
     31 H          17.9534   -5.4357   -3.9299 H         1 2W2         0.0836
     32 H          19.9697   -7.7148   -3.4611 H         1 2W2         0.1627
     33 H          18.8528   -6.2437   -6.1032 H         1 2W2         0.1896
     34 H          20.0965   -8.9959   -5.5621 H         1 2W2         0.2519
     35 H          22.1850   -8.9729   -8.4930 H         1 2W2         0.1671
     36 H          21.5322   -9.9055   -7.1194 H         1 2W2         0.1671
     37 H          20.5212   -6.0297   -7.6031 H         1 2W2         0.1671
     38 H          21.6124   -6.8284   -8.7667 H         1 2W2         0.1671
@<TRIPOS>BOND
     1   13    1 ar 
     2    3    2 1  
     3    2    6 ar 
     4    2    7 ar 
     5    4    3 1  
     6    5    4 1  
     7    5    8 1  
     8   11    5 1  
     9    8    9 ar 
    10    8   10 ar 
    11   12   11 1  
    12   12   13 1  
    13   12   15 1  
    14   13   14 ar 
    15   15   16 1  
    16   16   17 2  
    17   17   18 1  
    18   18   19 ar 
    19   19   20 ar 
    20   19   21 ar 
    21    3   22 1  
    22    3   23 1  
    23    4   24 1  
    24    4   25 1  
    25    5   26 1  
    26   11   27 1  
    27   11   28 1  
    28   12   29 1  
    29   15   30 1  
    30   15   31 1  
    31   16   32 1  
    32   17   33 1  
    33   18   34 1  
    34   20   35 1  
    35   20   36 1  
    36   21   37 1  
    37   21   38 1  
@<TRIPOS>SUBSTRUCTURE
     1 2W2         1

