### 
### Created by X-TOOL on Mon Sep 10 21:13:17 2018
### 

@<TRIPOS>MOLECULE
4pp0_ligand
   40    40     1     0     0
SMALL
GAST_HUCK


@<TRIPOS>ATOM
      1 CA         17.3520   -5.7350   -4.1970 C.3       1 OP1         0.0362
      2 C          16.2260   -6.6790   -4.5640 C.2       1 OP1         0.0847
      3 O          16.1710   -7.8490   -4.1220 O.co2     1 OP1        -0.5643
      4 CB         18.2320   -5.5030   -5.4170 C.3       1 OP1         0.0058
      5 CG         18.6640   -6.7800   -6.1080 C.3       1 OP1        -0.0131
      6 CD         19.4090   -6.5160   -7.3810 C.3       1 OP1         0.0628
      7 NE         20.0420   -7.7260   -7.8790 N.pl3     1 OP1        -0.2723
      8 CZ         20.8370   -7.7080   -9.0770 C.cat     1 OP1         0.2882
      9 NH2        20.9490   -6.6280   -9.8300 N.pl3     1 OP1        -0.2849
     10 NH1        21.4140   -8.8610   -9.4340 N.pl3     1 OP1        -0.2849
     11 N          18.1000   -6.2330   -3.0330 N.4       1 OP1         0.2839
     12 CAU        19.3530   -6.9160   -2.7800 C.3       1 OP1         0.0364
     13 CAM        19.2660   -7.4820   -1.4120 C.3       1 OP1         0.0102
     14 CAK        18.2200   -6.7470   -0.6590 C.3       1 OP1         0.0234
     15 CAQ        17.5110   -6.0650   -1.7550 C.3       1 OP1         0.0857
     16 OAM        16.2470   -5.6350   -1.6340 O.3       1 OP1        -0.3529
     17 CAS        20.5200   -5.9820   -2.8650 C.2       1 OP1         0.0847
     18 OAH        20.3950   -4.7390   -3.1340 O.co2     1 OP1        -0.5643
     19 OAE        21.6880   -6.4260   -2.6070 O.co2     1 OP1        -0.5643
     20 OXT        15.3360   -6.2430   -5.3320 O.co2     1 OP1        -0.5643
     21 H          16.9098   -4.7683   -3.9144 H         1 OP1         0.1027
     22 H          19.1332   -4.9595   -5.0969 H         1 OP1         0.0340
     23 H          17.6712   -4.8905   -6.1383 H         1 OP1         0.0340
     24 H          17.7693   -7.3767   -6.3394 H         1 OP1         0.0302
     25 H          19.3167   -7.3466   -5.4276 H         1 OP1         0.0302
     26 H          20.1829   -5.7572   -7.1933 H         1 OP1         0.0689
     27 H          18.7045   -6.1417   -8.1383 H         1 OP1         0.0689
     28 H          19.9191   -8.6104   -7.3656 H         1 OP1         0.2642
     29 H          21.5276   -6.6518  -10.6818 H         1 OP1         0.2615
     30 H          20.4577   -5.7623   -9.5651 H         1 OP1         0.2615
     31 H          21.3162   -9.6930   -8.8348 H         1 OP1         0.2615
     32 H          21.9560   -8.9167  -10.3081 H         1 OP1         0.2615
     33 H          18.5793   -5.3465   -3.0133 H         1 OP1         0.2097
     34 H          19.4867   -7.7245   -3.5138 H         1 OP1         0.1027
     35 H          20.2350   -7.3714   -0.9033 H         1 OP1         0.0341
     36 H          19.0011   -8.5481   -1.4686 H         1 OP1         0.0341
     37 H          18.6607   -6.0272    0.0465 H         1 OP1         0.0349
     38 H          17.5560   -7.4345   -0.1146 H         1 OP1         0.0349
     39 H          17.9509   -5.0755   -1.5617 H         1 OP1         0.1185
     40 H          15.6633   -6.2439   -2.0710 H         1 OP1         0.2154
@<TRIPOS>BOND
     1    1    2 1  
     2    1    4 1  
     3    1   11 1  
     4    2    3 ar 
     5    2   20 ar 
     6    4    5 1  
     7    5    6 1  
     8    6    7 1  
     9    7    8 ar 
    10    8    9 ar 
    11    8   10 ar 
    12   11   12 1  
    13   11   15 1  
    14   12   13 1  
    15   12   17 1  
    16   13   14 1  
    17   14   15 1  
    18   15   16 1  
    19   17   18 ar 
    20   17   19 ar 
    21    1   21 1  
    22    4   22 1  
    23    4   23 1  
    24    5   24 1  
    25    5   25 1  
    26    6   26 1  
    27    6   27 1  
    28    7   28 1  
    29    9   29 1  
    30    9   30 1  
    31   10   31 1  
    32   10   32 1  
    33   11   33 1  
    34   12   34 1  
    35   13   35 1  
    36   13   36 1  
    37   14   37 1  
    38   14   38 1  
    39   15   39 1  
    40   16   40 1  
@<TRIPOS>SUBSTRUCTURE
     1 OP1         1

