### 
### Created by X-TOOL on Mon Sep 10 21:13:20 2018
### 

@<TRIPOS>MOLECULE
4pp3_ligand
   46    47     1     0     0
SMALL
GAST_HUCK


@<TRIPOS>ATOM
      1 C2'        66.3680   46.7770   29.5870 C.3       1 2VZ        -0.0084
      2 C1'        67.2290   45.7890   30.3770 C.3       1 2VZ        -0.0288
      3 C18        67.7310   46.4350   31.6720 C.3       1 2VZ        -0.0135
      4 C5         66.6150   47.0710   32.5030 C.ar      1 2VZ        -0.0307
      5 C4         66.7140   47.0800   33.8980 C.ar      1 2VZ        -0.0514
      6 C3         65.7190   47.6370   34.6920 C.ar      1 2VZ        -0.0463
      7 C6'        65.8510   47.6300   36.2190 C.3       1 2VZ        -0.0296
      8 C2         64.6140   48.2070   34.0680 C.ar      1 2VZ        -0.0600
      9 C1         64.5060   48.2280   32.6950 C.ar      1 2VZ        -0.0577
     10 C6         65.5180   47.6420   31.9000 C.ar      1 2VZ        -0.0049
     11 C7         65.4060   47.5920   30.4590 C.2       1 2VZ        -0.0258
     12 C8         64.3870   48.3100   29.8370 C.2       1 2VZ        -0.0495
     13 C9         64.1180   48.3200   28.3850 C.2       1 2VZ        -0.0515
     14 C19        65.2260   48.7890   27.4380 C.3       1 2VZ        -0.0281
     15 C10        62.8800   47.9630   27.9000 C.2       1 2VZ        -0.0705
     16 C11        61.7510   47.5780   28.7750 C.2       1 2VZ        -0.0818
     17 C12        60.5970   47.0080   28.2610 C.2       1 2VZ        -0.0747
     18 C13        59.4900   46.6410   29.1580 C.2       1 2VZ        -0.0667
     19 C20        59.7750   45.8860   30.4600 C.3       1 2VZ        -0.0338
     20 C14        58.1990   46.9800   28.7720 C.2       1 2VZ        -0.0599
     21 C15        56.9870   46.7060   29.5480 C.2       1 2VZ         0.0232
     22 O1         56.9560   45.7290   30.3270 O.co2     1 2VZ        -0.5762
     23 O2         56.0200   47.4840   29.3730 O.co2     1 2VZ        -0.5762
     24 H          65.7760   46.2113   28.8525 H         1 2VZ         0.0484
     25 H          67.0353   47.4752   29.0606 H         1 2VZ         0.0484
     26 H          68.0914   45.4888   29.7638 H         1 2VZ         0.0320
     27 H          66.6280   44.9014   30.6241 H         1 2VZ         0.0320
     28 H          68.4613   47.2156   31.4125 H         1 2VZ         0.0449
     29 H          68.2219   45.6614   32.2807 H         1 2VZ         0.0449
     30 H          67.5863   46.6428   34.3703 H         1 2VZ         0.0511
     31 H          64.9693   48.1130   36.6654 H         1 2VZ         0.0405
     32 H          66.7577   48.1800   36.5112 H         1 2VZ         0.0405
     33 H          65.9206   46.5920   36.5763 H         1 2VZ         0.0405
     34 H          63.8255   48.6415   34.6718 H         1 2VZ         0.0524
     35 H          63.6469   48.6928   32.2248 H         1 2VZ         0.0633
     36 H          63.7376   48.9113   30.4716 H         1 2VZ         0.0460
     37 H          64.8673   48.7362   26.3995 H         1 2VZ         0.0427
     38 H          66.1071   48.1409   27.5550 H         1 2VZ         0.0427
     39 H          65.4996   49.8268   27.6791 H         1 2VZ         0.0427
     40 H          62.7246   47.9641   26.8221 H         1 2VZ         0.0394
     41 H          61.8285   47.7464   29.8481 H         1 2VZ         0.0621
     42 H          60.5093   46.8312   27.1900 H         1 2VZ         0.0404
     43 H          58.8298   45.7024   30.9918 H         1 2VZ         0.0403
     44 H          60.4417   46.4882   31.0947 H         1 2VZ         0.0403
     45 H          60.2581   44.9252   30.2286 H         1 2VZ         0.0403
     46 H          58.0786   47.4896   27.8172 H         1 2VZ         0.0270
@<TRIPOS>BOND
     1    1    2 1  
     2    1   11 1  
     3    2    3 1  
     4    3    4 1  
     5    4    5 ar 
     6    4   10 ar 
     7    5    6 ar 
     8    6    7 1  
     9    6    8 ar 
    10    8    9 ar 
    11    9   10 ar 
    12   10   11 1  
    13   11   12 2  
    14   12   13 1  
    15   13   14 1  
    16   13   15 2  
    17   15   16 1  
    18   16   17 2  
    19   17   18 1  
    20   18   19 1  
    21   18   20 2  
    22   20   21 1  
    23   21   22 ar 
    24   21   23 ar 
    25    1   24 1  
    26    1   25 1  
    27    2   26 1  
    28    2   27 1  
    29    3   28 1  
    30    3   29 1  
    31    5   30 1  
    32    7   31 1  
    33    7   32 1  
    34    7   33 1  
    35    8   34 1  
    36    9   35 1  
    37   12   36 1  
    38   14   37 1  
    39   14   38 1  
    40   14   39 1  
    41   15   40 1  
    42   16   41 1  
    43   17   42 1  
    44   19   43 1  
    45   19   44 1  
    46   19   45 1  
    47   20   46 1  
@<TRIPOS>SUBSTRUCTURE
     1 2VZ         1

