### 
### Created by X-TOOL on Mon Sep 10 21:13:19 2018
### 

@<TRIPOS>MOLECULE
4pp5_ligand
   46    47     1     0     0
SMALL
GAST_HUCK


@<TRIPOS>ATOM
      1 C5'        68.1000   46.6250   34.3720 C.3       1 2W0        -0.0327
      2 C4         66.9130   47.3360   33.7180 C.ar      1 2W0        -0.0380
      3 C3         66.0520   48.0660   34.5310 C.ar      1 2W0        -0.0626
      4 C2         64.9580   48.7150   33.9710 C.ar      1 2W0        -0.0699
      5 C1         64.7330   48.6220   32.6020 C.ar      1 2W0        -0.0600
      6 C6         65.5960   47.8870   31.7930 C.ar      1 2W0        -0.0069
      7 C5         66.7020   47.2390   32.3430 C.ar      1 2W0        -0.0243
      8 C18        67.6820   46.4580   31.4630 C.3       1 2W0        -0.0150
      9 C1'        66.9700   45.7960   30.2810 C.3       1 2W0        -0.0299
     10 C2'        66.1240   46.8130   29.5110 C.3       1 2W0        -0.0084
     11 C7         65.3360   47.7520   30.4310 C.2       1 2W0        -0.0243
     12 C8         64.3150   48.5140   29.8690 C.2       1 2W0        -0.0474
     13 C9         63.9690   48.4540   28.5220 C.2       1 2W0        -0.0493
     14 C19        65.0020   48.8280   27.4580 C.3       1 2W0        -0.0277
     15 C10        62.6830   48.1110   28.1160 C.2       1 2W0        -0.0686
     16 C11        61.6560   47.8140   29.0060 C.2       1 2W0        -0.0799
     17 C12        60.4890   47.2200   28.5390 C.2       1 2W0        -0.0729
     18 C13        59.4350   46.9130   29.3940 C.2       1 2W0        -0.0649
     19 C20        59.7060   46.1960   30.7190 C.3       1 2W0        -0.0334
     20 C14        58.1450   47.2650   29.0060 C.2       1 2W0        -0.0583
     21 C15        57.0050   47.0240   29.7670 C.2       1 2W0         0.0243
     22 O2         56.0310   47.7880   29.5980 O.co2     1 2W0        -0.5758
     23 O1         57.0080   46.0660   30.5700 O.co2     1 2W0        -0.5758
     24 H          68.0940   46.8213   35.4543 H         1 2W0         0.0375
     25 H          69.0377   47.0006   33.9365 H         1 2W0         0.0375
     26 H          68.0215   45.5421   34.1953 H         1 2W0         0.0375
     27 H          66.2338   48.1285   35.5978 H         1 2W0         0.0573
     28 H          64.2849   49.2896   34.5970 H         1 2W0         0.0557
     29 H          63.8799   49.1251   32.1614 H         1 2W0         0.0585
     30 H          68.1654   45.6790   32.0708 H         1 2W0         0.0433
     31 H          68.4460   47.1495   31.0782 H         1 2W0         0.0433
     32 H          66.3160   44.9956   30.6574 H         1 2W0         0.0318
     33 H          67.7220   45.3666   29.6027 H         1 2W0         0.0318
     34 H          65.4124   46.2671   28.8741 H         1 2W0         0.0483
     35 H          66.7912   47.4185   28.8799 H         1 2W0         0.0483
     36 H          63.7591   49.1911   30.5159 H         1 2W0         0.0483
     37 H          64.5542   48.7218   26.4589 H         1 2W0         0.0427
     38 H          65.8729   48.1614   27.5421 H         1 2W0         0.0427
     39 H          65.3218   49.8698   27.6076 H         1 2W0         0.0427
     40 H          62.4700   48.0732   27.0487 H         1 2W0         0.0410
     41 H          61.7657   48.0459   30.0644 H         1 2W0         0.0625
     42 H          60.3976   46.9895   27.4786 H         1 2W0         0.0419
     43 H          58.7568   46.0412   31.2529 H         1 2W0         0.0403
     44 H          60.3784   46.8092   31.3369 H         1 2W0         0.0403
     45 H          60.1774   45.2224   30.5194 H         1 2W0         0.0403
     46 H          58.0200   47.7611   28.0447 H         1 2W0         0.0283
@<TRIPOS>BOND
     1    1    2 1  
     2    2    3 ar 
     3    2    7 ar 
     4    3    4 ar 
     5    4    5 ar 
     6    5    6 ar 
     7    6    7 ar 
     8    6   11 1  
     9    7    8 1  
    10    8    9 1  
    11    9   10 1  
    12   10   11 1  
    13   11   12 2  
    14   12   13 1  
    15   13   14 1  
    16   13   15 2  
    17   15   16 1  
    18   16   17 2  
    19   17   18 1  
    20   18   19 1  
    21   18   20 2  
    22   20   21 1  
    23   21   22 ar 
    24   21   23 ar 
    25    1   24 1  
    26    1   25 1  
    27    1   26 1  
    28    3   27 1  
    29    4   28 1  
    30    5   29 1  
    31    8   30 1  
    32    8   31 1  
    33    9   32 1  
    34    9   33 1  
    35   10   34 1  
    36   10   35 1  
    37   12   36 1  
    38   14   37 1  
    39   14   38 1  
    40   14   39 1  
    41   15   40 1  
    42   16   41 1  
    43   17   42 1  
    44   19   43 1  
    45   19   44 1  
    46   19   45 1  
    47   20   46 1  
@<TRIPOS>SUBSTRUCTURE
     1 2W0         1

