### 
### Created by X-TOOL on Mon Sep 10 21:13:18 2018
### 

@<TRIPOS>MOLECULE
4pp7_ligand
   49    51     1     0     0
SMALL
GAST_HUCK


@<TRIPOS>ATOM
      1 N1         13.5180  -26.0540   -2.4870 N.pl3     1 2VX        -0.2694
      2 C2         13.0190  -27.3170   -2.6230 C.ar      1 2VX         0.1117
      3 C3         12.6660  -27.7970   -3.9040 C.ar      1 2VX         0.1648
      4 C4         12.1410  -29.0970   -4.0660 C.ar      1 2VX         0.0817
      5 C5         11.9580  -29.9470   -2.9550 C.ar      1 2VX        -0.0603
      6 C6         12.3080  -29.4790   -1.6700 C.ar      1 2VX        -0.0574
      7 C7         12.8290  -28.1720   -1.5080 C.ar      1 2VX         0.1333
      8 F8         13.1550  -27.7420   -0.2680 F         1 2VX        -0.2062
      9 F9         12.8320  -27.0080   -4.9920 F         1 2VX        -0.2060
     10 N10        11.8330  -29.4860   -5.3060 N.am      1 2VX        -0.1962
     11 S11        11.1200  -30.9330   -5.9050 S.o2      1 2VX         0.0586
     12 C12        12.4670  -31.6730   -6.9260 C.3       1 2VX         0.0894
     13 C13        14.6470  -32.5910   -5.9730 C.3       1 2VX        -0.0637
     14 C14        13.1660  -32.8580   -6.2460 C.3       1 2VX        -0.0342
     15 C15        14.7310  -25.7250   -1.9560 C.ar      1 2VX         0.0584
     16 C16        15.7380  -26.7110   -1.8070 C.ar      1 2VX        -0.0401
     17 C17        16.9980  -26.3820   -1.2550 C.ar      1 2VX        -0.0578
     18 C18        17.2670  -25.0560   -0.8440 C.ar      1 2VX         0.0136
     19 C19        16.2700  -24.0620   -0.9890 C.ar      1 2VX         0.0551
     20 C20        15.0110  -24.3980   -1.5420 C.ar      1 2VX        -0.0255
     21 N21        18.5220  -24.7250   -0.2930 N.2       1 2VX        -0.3041
     22 C22        18.7600  -23.4990    0.0810 C.2       1 2VX         0.1245
     23 N23        17.8510  -22.4570   -0.0180 N.am      1 2VX        -0.1901
     24 C24        16.5790  -22.6520   -0.5450 C.2       1 2VX         0.2367
     25 C25        18.2590  -21.1240    0.4460 C.3       1 2VX         0.0594
     26 O26        15.7390  -21.7590   -0.6570 O.2       1 2VX        -0.3853
     27 O27        10.7910  -31.7940   -4.7600 O.2       1 2VX        -0.1502
     28 O28        10.0630  -30.4540   -6.8010 O.2       1 2VX        -0.1502
     29 C29        12.5430  -24.9720   -2.6660 C.3       1 2VX         0.0310
     30 H          11.5547  -30.9446   -3.0861 H         1 2VX         0.0365
     31 H          12.1778  -30.1208   -0.8061 H         1 2VX         0.0499
     32 H          12.0570  -28.8158   -6.0136 H         1 2VX         0.2126
     33 H          13.2178  -30.8953   -7.1294 H         1 2VX         0.0523
     34 H          12.0338  -32.0216   -7.8751 H         1 2VX         0.0523
     35 H          15.0946  -33.4704   -5.4869 H         1 2VX         0.0230
     36 H          14.7464  -31.7168   -5.3127 H         1 2VX         0.0230
     37 H          15.1653  -32.3938   -6.9230 H         1 2VX         0.0230
     38 H          13.0817  -33.7388   -6.8996 H         1 2VX         0.0279
     39 H          12.6629  -33.0618   -5.2893 H         1 2VX         0.0279
     40 H          15.5402  -27.7298   -2.1199 H         1 2VX         0.0557
     41 H          17.7582  -27.1471   -1.1469 H         1 2VX         0.0551
     42 H          14.2519  -23.6318   -1.6503 H         1 2VX         0.0554
     43 H          19.7406  -23.2782    0.5001 H         1 2VX         0.1483
     44 H          19.2902  -21.1679    0.8263 H         1 2VX         0.0595
     45 H          17.5853  -20.7936    1.2504 H         1 2VX         0.0595
     46 H          18.2070  -20.4125   -0.3913 H         1 2VX         0.0595
     47 H          11.6181  -25.3799   -3.0998 H         1 2VX         0.0523
     48 H          12.9601  -24.2106   -3.3415 H         1 2VX         0.0523
     49 H          12.3199  -24.5144   -1.6909 H         1 2VX         0.0523
@<TRIPOS>BOND
     1    1    2 1  
     2    1   15 1  
     3    1   29 1  
     4    2    3 ar 
     5    2    7 ar 
     6    3    4 ar 
     7    3    9 1  
     8    4    5 ar 
     9    4   10 1  
    10    5    6 ar 
    11    6    7 ar 
    12    7    8 1  
    13   10   11 am 
    14   11   12 1  
    15   11   27 2  
    16   11   28 2  
    17   12   14 1  
    18   14   13 1  
    19   15   16 ar 
    20   15   20 ar 
    21   16   17 ar 
    22   17   18 ar 
    23   18   19 ar 
    24   18   21 1  
    25   19   20 ar 
    26   19   24 1  
    27   21   22 2  
    28   22   23 1  
    29   23   24 am 
    30   23   25 1  
    31   24   26 2  
    32    5   30 1  
    33    6   31 1  
    34   10   32 1  
    35   12   33 1  
    36   12   34 1  
    37   13   35 1  
    38   13   36 1  
    39   13   37 1  
    40   14   38 1  
    41   14   39 1  
    42   16   40 1  
    43   17   41 1  
    44   20   42 1  
    45   22   43 1  
    46   25   44 1  
    47   25   45 1  
    48   25   46 1  
    49   29   47 1  
    50   29   48 1  
    51   29   49 1  
@<TRIPOS>SUBSTRUCTURE
     1 2VX         1

