### 
### Created by X-TOOL on Mon Sep 10 21:13:20 2018
### 

@<TRIPOS>MOLECULE
4pp9_ligand
   40    43     1     0     0
SMALL
GAST_HUCK


@<TRIPOS>ATOM
      1 C1        -10.9950    4.5260  -20.3510 C.ar      1 2VT        -0.0720
      2 C2        -10.6720    5.7610  -19.7690 C.ar      1 2VT        -0.0700
      3 C3        -10.4780    6.8830  -20.5470 C.ar      1 2VT        -0.0341
      4 C4        -10.6120    6.7860  -21.9410 C.ar      1 2VT         0.0926
      5 C5        -10.9550    5.5330  -22.5330 C.ar      1 2VT         0.0276
      6 C6        -11.1470    4.4050  -21.7150 C.ar      1 2VT        -0.0627
      7 C7        -11.0080    5.8140  -23.9800 C.2       1 2VT         0.1387
      8 N8        -10.7290    7.0970  -24.1060 N.2       1 2VT        -0.1758
      9 N9        -10.4890    7.6720  -22.9800 N.pl3     1 2VT        -0.2047
     10 C11       -11.3070    4.8630  -25.0760 C.2       1 2VT         0.2310
     11 O12       -11.7250    3.7520  -24.7870 O.2       1 2VT        -0.3799
     12 N13       -11.1190    5.2330  -26.3760 N.am      1 2VT        -0.2528
     13 C14       -11.3660    4.4100  -27.5100 C.2       1 2VT         0.0736
     14 C15       -11.7560    3.0590  -27.5150 C.2       1 2VT         0.0203
     15 N16       -11.8730    2.6490  -28.7480 N.2       1 2VT        -0.2230
     16 N17       -11.5520    3.7080  -29.5950 N.pl3     1 2VT        -0.2109
     17 C18       -11.2450    4.7840  -28.8150 C.2       1 2VT         0.0626
     18 C19       -11.5500    3.6400  -31.0560 C.3       1 2VT         0.1006
     19 C20       -12.8190    4.2520  -31.5640 C.ar      1 2VT        -0.0007
     20 C21       -13.9670    3.4740  -31.6800 C.ar      1 2VT        -0.0489
     21 C22       -15.1560    4.0450  -32.1280 C.ar      1 2VT        -0.0572
     22 C23       -15.1990    5.3960  -32.4530 C.ar      1 2VT        -0.0339
     23 C24       -14.0430    6.1850  -32.3360 C.ar      1 2VT         0.0891
     24 C25       -12.8460    5.6050  -31.8830 C.ar      1 2VT        -0.0230
     25 C26       -14.0760    7.5750  -32.6770 C.1       1 2VT         0.0987
     26 N27       -14.0960    8.6790  -32.9460 N.1       1 2VT        -0.3283
     27 H         -11.1268    3.6552  -19.7190 H         1 2VT         0.0536
     28 H         -10.5735    5.8344  -18.6920 H         1 2VT         0.0580
     29 H         -10.2244    7.8310  -20.0864 H         1 2VT         0.0563
     30 H         -11.4120    3.4497  -22.1535 H         1 2VT         0.0589
     31 H         -10.2380    8.6653  -22.8736 H         1 2VT         0.2502
     32 H         -10.7799    6.1583  -26.5455 H         1 2VT         0.2116
     33 H         -11.9326    2.4507  -26.6291 H         1 2VT         0.0620
     34 H         -10.9538    5.7705  -29.1728 H         1 2VT         0.0764
     35 H         -11.4900    2.5900  -31.3781 H         1 2VT         0.0796
     36 H         -10.6866    4.1949  -31.4517 H         1 2VT         0.0796
     37 H         -13.9359    2.4218  -31.4213 H         1 2VT         0.0629
     38 H         -16.0477    3.4359  -32.2232 H         1 2VT         0.0623
     39 H         -16.1257    5.8409  -32.7971 H         1 2VT         0.0661
     40 H         -11.9506    6.2077  -31.7830 H         1 2VT         0.0656
@<TRIPOS>BOND
     1    1    2 ar 
     2    1    6 ar 
     3    2    3 ar 
     4    3    4 ar 
     5    4    5 ar 
     6    4    9 1  
     7    5    6 ar 
     8    5    7 1  
     9    7    8 2  
    10    7   10 1  
    11    8    9 1  
    12   10   11 2  
    13   10   12 am 
    14   12   13 1  
    15   13   14 1  
    16   13   17 2  
    17   14   15 2  
    18   15   16 1  
    19   16   17 1  
    20   16   18 1  
    21   18   19 1  
    22   19   20 ar 
    23   19   24 ar 
    24   20   21 ar 
    25   21   22 ar 
    26   22   23 ar 
    27   23   24 ar 
    28   23   25 1  
    29   25   26 3  
    30    1   27 1  
    31    2   28 1  
    32    3   29 1  
    33    6   30 1  
    34    9   31 1  
    35   12   32 1  
    36   14   33 1  
    37   17   34 1  
    38   18   35 1  
    39   18   36 1  
    40   20   37 1  
    41   21   38 1  
    42   22   39 1  
    43   24   40 1  
@<TRIPOS>SUBSTRUCTURE
     1 2VT         1

