### 
### Created by X-TOOL on Mon Sep 10 21:13:20 2018
### 

@<TRIPOS>MOLECULE
4ppa_ligand
   47    51     1     0     0
SMALL
GAST_HUCK


@<TRIPOS>ATOM
      1 C1        -10.9630  -28.8410   56.4330 C.ar      1 2VU        -0.0572
      2 C2        -11.0060  -27.5010   56.8150 C.ar      1 2VU        -0.0489
      3 C3        -10.9200  -26.4920   55.8580 C.ar      1 2VU        -0.0007
      4 C4        -10.8020  -26.8170   54.5120 C.ar      1 2VU        -0.0230
      5 C5        -10.7590  -28.1650   54.1190 C.ar      1 2VU         0.0891
      6 C6        -10.8390  -29.1810   55.0930 C.ar      1 2VU        -0.0339
      7 C7        -10.6270  -28.4990   52.7310 C.1       1 2VU         0.0987
      8 N8        -10.5240  -28.7620   51.6310 N.1       1 2VU        -0.3283
      9 C9        -10.9700  -25.0380   56.2700 C.3       1 2VU         0.1006
     10 N10       -12.3740  -24.6930   56.4780 N.pl3     1 2VU        -0.2109
     11 C11       -13.2420  -24.2760   55.5240 C.2       1 2VU         0.0626
     12 C12       -14.4520  -24.0970   56.1100 C.2       1 2VU         0.0736
     13 C13       -14.3120  -24.4660   57.4620 C.2       1 2VU         0.0203
     14 N14       -13.0740  -24.8170   57.6850 N.2       1 2VU        -0.2230
     15 N15       -15.6290  -23.6780   55.4370 N.am      1 2VU        -0.2528
     16 C16       -16.8570  -23.5980   56.0090 C.2       1 2VU         0.2305
     17 O17       -17.0240  -23.8500   57.1920 O.2       1 2VU        -0.3799
     18 C18       -18.0260  -23.1890   55.2090 C.2       1 2VU         0.1357
     19 C19       -19.3710  -22.9220   55.7360 C.ar      1 2VU         0.0238
     20 C20       -19.9520  -22.9590   57.0110 C.ar      1 2VU        -0.0656
     21 C21       -21.2710  -22.6360   57.1670 C.ar      1 2VU        -0.0708
     22 C22       -22.0600  -22.2720   56.0530 C.ar      1 2VU        -0.0431
     23 C23       -21.4860  -22.2080   54.7710 C.ar      1 2VU        -0.0356
     24 C24       -20.1340  -22.5410   54.6020 C.ar      1 2VU         0.0871
     25 N25       -19.2630  -22.6000   53.5380 N.pl3     1 2VU        -0.2075
     26 N27       -18.0850  -22.9710   53.9100 N.2       1 2VU        -0.1791
     27 C28       -23.4770  -21.8610   56.3000 C.2       1 2VU        -0.0017
     28 C29       -24.2800  -21.1280   55.4680 C.2       1 2VU         0.0057
     29 N30       -25.4560  -20.9230   56.0980 N.2       1 2VU        -0.2157
     30 N32       -25.3860  -21.5150   57.3630 N.pl3     1 2VU        -0.2165
     31 C33       -24.2080  -22.0630   57.4930 C.2       1 2VU         0.0610
     32 H         -11.0266  -29.6196   57.1845 H         1 2VU         0.0623
     33 H         -11.1070  -27.2425   57.8629 H         1 2VU         0.0629
     34 H         -10.7433  -26.0319   53.7669 H         1 2VU         0.0656
     35 H         -10.8038  -30.2231   54.7968 H         1 2VU         0.0661
     36 H         -10.5410  -24.4073   55.4775 H         1 2VU         0.0796
     37 H         -10.4044  -24.8912   57.2020 H         1 2VU         0.0796
     38 H         -13.0090  -24.1134   54.4727 H         1 2VU         0.0764
     39 H         -15.1094  -24.4596   58.2036 H         1 2VU         0.0620
     40 H         -15.5478  -23.4238   54.4733 H         1 2VU         0.2116
     41 H         -19.3568  -23.2431   57.8713 H         1 2VU         0.0584
     42 H         -21.7160  -22.6594   58.1552 H         1 2VU         0.0508
     43 H         -22.0839  -21.9036   53.9196 H         1 2VU         0.0506
     44 H         -19.5198  -22.3759   52.5660 H         1 2VU         0.2490
     45 H         -24.0163  -20.7728   54.4729 H         1 2VU         0.0674
     46 H         -26.1347  -21.5182   58.0703 H         1 2VU         0.2599
     47 H         -23.8477  -22.5893   58.3757 H         1 2VU         0.1036
@<TRIPOS>BOND
     1    1    2 ar 
     2    1    6 ar 
     3    2    3 ar 
     4    3    4 ar 
     5    3    9 1  
     6    4    5 ar 
     7    5    6 ar 
     8    5    7 1  
     9    7    8 3  
    10    9   10 1  
    11   10   11 1  
    12   10   14 1  
    13   11   12 2  
    14   12   13 1  
    15   12   15 1  
    16   13   14 2  
    17   15   16 am 
    18   16   17 2  
    19   16   18 1  
    20   18   19 1  
    21   18   26 2  
    22   19   20 ar 
    23   19   24 ar 
    24   20   21 ar 
    25   21   22 ar 
    26   22   23 ar 
    27   22   27 1  
    28   23   24 ar 
    29   24   25 1  
    30   25   26 1  
    31   27   28 1  
    32   27   31 2  
    33   28   29 2  
    34   29   30 1  
    35   30   31 1  
    36    1   32 1  
    37    2   33 1  
    38    4   34 1  
    39    6   35 1  
    40    9   36 1  
    41    9   37 1  
    42   11   38 1  
    43   13   39 1  
    44   15   40 1  
    45   20   41 1  
    46   21   42 1  
    47   23   43 1  
    48   25   44 1  
    49   28   45 1  
    50   30   46 1  
    51   31   47 1  
@<TRIPOS>SUBSTRUCTURE
     1 2VU         1

