### 
### Created by X-TOOL on Mon Sep 10 21:13:19 2018
### 

@<TRIPOS>MOLECULE
4ppb_ligand
   61    65     1     0     0
SMALL
GAST_HUCK


@<TRIPOS>ATOM
      1 C1         -7.8430  -24.0640   59.9670 C.3       1 2VV        -0.0433
      2 N2         -8.3840  -23.5740   58.6880 N.4       1 2VV         0.2311
      3 C3         -7.6970  -22.3510   58.2450 C.3       1 2VV        -0.0433
      4 C4         -8.3610  -24.5910   57.6270 C.3       1 2VV        -0.0276
      5 C5         -9.7440  -25.2390   57.5290 C.3       1 2VV         0.0292
      6 C6        -10.3320  -25.2240   56.1060 C.3       1 2VV         0.1142
      7 C8        -10.2860  -26.6040   55.4650 C.ar      1 2VV        -0.0085
      8 C9         -9.8300  -26.7310   54.1540 C.ar      1 2VV        -0.0573
      9 C10        -9.8340  -27.9770   53.5220 C.ar      1 2VV        -0.0685
     10 C11       -10.3020  -29.1030   54.1930 C.ar      1 2VV        -0.0687
     11 C12       -10.7790  -28.9840   55.4970 C.ar      1 2VV        -0.0685
     12 C13       -10.7860  -27.7400   56.1200 C.ar      1 2VV        -0.0573
     13 N14       -11.7580  -24.8920   56.2200 N.pl3     1 2VV        -0.2078
     14 C15       -12.5870  -24.4800   55.2280 C.2       1 2VV         0.0629
     15 C16       -13.8280  -24.3470   55.7660 C.2       1 2VV         0.0736
     16 C17       -13.7570  -24.7680   57.1010 C.2       1 2VV         0.0203
     17 N18       -12.5340  -25.0990   57.3680 N.2       1 2VV        -0.2228
     18 N19       -14.9970  -23.9050   55.0960 N.am      1 2VV        -0.2528
     19 C20       -16.2050  -23.7990   55.7110 C.2       1 2VV         0.2305
     20 O21       -16.3440  -24.1070   56.8910 O.2       1 2VV        -0.3799
     21 C22       -17.3960  -23.3820   54.9440 C.2       1 2VV         0.1357
     22 C23       -18.7460  -23.1740   55.4950 C.ar      1 2VV         0.0238
     23 C24       -19.3090  -23.2160   56.7760 C.ar      1 2VV        -0.0656
     24 C25       -20.6390  -22.9680   56.9500 C.ar      1 2VV        -0.0708
     25 C26       -21.4550  -22.6660   55.8440 C.ar      1 2VV        -0.0431
     26 C27       -20.8980  -22.5710   54.5570 C.ar      1 2VV        -0.0356
     27 C28       -19.5370  -22.8420   54.3700 C.ar      1 2VV         0.0871
     28 N29       -18.6860  -22.8700   53.2900 N.pl3     1 2VV        -0.2075
     29 N31       -17.4860  -23.1840   53.6430 N.2       1 2VV        -0.1791
     30 C32       -22.8870  -22.3210   56.0770 C.2       1 2VV        -0.0017
     31 C33       -23.6650  -22.7180   57.1240 C.2       1 2VV         0.0057
     32 N34       -24.8700  -22.1360   56.9790 N.2       1 2VV        -0.2157
     33 N36       -24.8580  -21.3570   55.8220 N.pl3     1 2VV        -0.2165
     34 C37       -23.6740  -21.4570   55.2830 C.2       1 2VV         0.0610
     35 H          -7.8878  -23.2598   60.7162 H         1 2VV         0.0777
     36 H          -6.7978  -24.3770   59.8272 H         1 2VV         0.0777
     37 H          -8.4393  -24.9211   60.3131 H         1 2VV         0.0777
     38 H          -9.3500  -23.3358   58.8498 H         1 2VV         0.2028
     39 H          -8.1262  -22.0150   57.2895 H         1 2VV         0.0777
     40 H          -6.6253  -22.5601   58.1122 H         1 2VV         0.0777
     41 H          -7.8259  -21.5633   59.0019 H         1 2VV         0.0777
     42 H          -7.6103  -25.3582   57.8675 H         1 2VV         0.0817
     43 H          -8.1067  -24.1173   56.6673 H         1 2VV         0.0817
     44 H         -10.4307  -24.6957   58.1948 H         1 2VV         0.0370
     45 H          -9.6625  -26.2846   57.8606 H         1 2VV         0.0370
     46 H          -9.7981  -24.4911   55.4833 H         1 2VV         0.0833
     47 H          -9.4702  -25.8579   53.6217 H         1 2VV         0.0558
     48 H          -9.4710  -28.0672   52.5046 H         1 2VV         0.0599
     49 H         -10.2955  -30.0698   53.7027 H         1 2VV         0.0559
     50 H         -11.1435  -29.8581   56.0244 H         1 2VV         0.0599
     51 H         -11.1828  -27.6470   57.1245 H         1 2VV         0.0558
     52 H         -12.3093  -24.2908   54.1921 H         1 2VV         0.0764
     53 H         -14.5923  -24.8098   57.7984 H         1 2VV         0.0620
     54 H         -14.9300  -23.6605   54.1287 H         1 2VV         0.2116
     55 H         -18.6859  -23.4464   57.6326 H         1 2VV         0.0584
     56 H         -21.0691  -23.0037   57.9444 H         1 2VV         0.0508
     57 H         -21.5186  -22.2895   53.7139 H         1 2VV         0.0506
     58 H         -18.9711  -22.6660   52.3215 H         1 2VV         0.2490
     59 H         -23.3657  -23.3850   57.9312 H         1 2VV         0.0674
     60 H         -25.6448  -20.8011   55.4575 H         1 2VV         0.2599
     61 H         -23.3467  -20.9575   54.3724 H         1 2VV         0.1036
@<TRIPOS>BOND
     1    1    2 1  
     2    2    3 1  
     3    2    4 1  
     4    4    5 1  
     5    5    6 1  
     6    6    7 1  
     7    6   13 1  
     8    7    8 ar 
     9    7   12 ar 
    10    8    9 ar 
    11    9   10 ar 
    12   10   11 ar 
    13   11   12 ar 
    14   13   14 1  
    15   13   17 1  
    16   14   15 2  
    17   15   16 1  
    18   15   18 1  
    19   16   17 2  
    20   18   19 am 
    21   19   20 2  
    22   19   21 1  
    23   21   22 1  
    24   21   29 2  
    25   22   23 ar 
    26   22   27 ar 
    27   23   24 ar 
    28   24   25 ar 
    29   25   26 ar 
    30   25   30 1  
    31   26   27 ar 
    32   27   28 1  
    33   28   29 1  
    34   30   31 1  
    35   30   34 2  
    36   31   32 2  
    37   32   33 1  
    38   33   34 1  
    39    1   35 1  
    40    1   36 1  
    41    1   37 1  
    42    2   38 1  
    43    3   39 1  
    44    3   40 1  
    45    3   41 1  
    46    4   42 1  
    47    4   43 1  
    48    5   44 1  
    49    5   45 1  
    50    6   46 1  
    51    8   47 1  
    52    9   48 1  
    53   10   49 1  
    54   11   50 1  
    55   12   51 1  
    56   14   52 1  
    57   16   53 1  
    58   18   54 1  
    59   23   55 1  
    60   24   56 1  
    61   26   57 1  
    62   28   58 1  
    63   31   59 1  
    64   33   60 1  
    65   34   61 1  
@<TRIPOS>SUBSTRUCTURE
     1 2VV         1

