### 
### Created by X-TOOL on Mon Sep 10 21:13:19 2018
### 

@<TRIPOS>MOLECULE
4ppc_ligand
   61    65     1     0     0
SMALL
GAST_HUCK


@<TRIPOS>ATOM
      1 C1          9.2410  -25.8620  -45.9980 C.3       1 2VW        -0.0433
      2 N2          9.8090  -25.9570  -47.3590 N.4       1 2VW         0.2311
      3 C3         10.7600  -24.8750  -47.6520 C.3       1 2VW        -0.0433
      4 C4         10.3170  -27.2770  -47.7900 C.3       1 2VW        -0.0276
      5 C5         10.9070  -28.1230  -46.6530 C.3       1 2VW         0.0292
      6 C6         12.3850  -28.4540  -46.9000 C.3       1 2VW         0.1142
      7 C8         12.5190  -29.9470  -47.0930 C.ar      1 2VW        -0.0085
      8 C9         12.6800  -30.4390  -48.3860 C.ar      1 2VW        -0.0573
      9 C10        12.7740  -31.8100  -48.6010 C.ar      1 2VW        -0.0685
     10 C11        12.6990  -32.6820  -47.5180 C.ar      1 2VW        -0.0687
     11 C12        12.5360  -32.2030  -46.2220 C.ar      1 2VW        -0.0685
     12 C13        12.4400  -30.8330  -46.0100 C.ar      1 2VW        -0.0573
     13 N14        13.2120  -28.0140  -45.7720 N.pl3     1 2VW        -0.2078
     14 C15        14.5670  -27.9060  -45.7710 C.2       1 2VW         0.0629
     15 C16        14.9470  -27.4970  -44.5300 C.2       1 2VW         0.0736
     16 C17        13.7790  -27.3710  -43.7630 C.2       1 2VW         0.0203
     17 N18        12.7490  -27.6830  -44.4920 N.2       1 2VW        -0.2228
     18 N19        16.2450  -27.2220  -44.0390 N.am      1 2VW        -0.2528
     19 C20        17.3400  -26.8930  -44.7720 C.2       1 2VW         0.2305
     20 O21        17.3190  -26.8220  -45.9880 O.2       1 2VW        -0.3799
     21 C22        18.6000  -26.6140  -44.0570 C.2       1 2VW         0.1357
     22 C23        19.9290  -26.3750  -44.6430 C.ar      1 2VW         0.0238
     23 C24        20.4640  -26.3370  -45.9420 C.ar      1 2VW        -0.0656
     24 C25        21.7990  -26.0600  -46.1200 C.ar      1 2VW        -0.0708
     25 C26        22.6470  -25.8290  -45.0110 C.ar      1 2VW        -0.0431
     26 C27        22.1250  -25.8760  -43.7120 C.ar      1 2VW        -0.0356
     27 C28        20.7640  -26.1380  -43.5180 C.ar      1 2VW         0.0871
     28 N29        19.9560  -26.2410  -42.4180 N.pl3     1 2VW        -0.2075
     29 N31        18.7450  -26.4970  -42.7520 N.2       1 2VW        -0.1791
     30 C32        24.0960  -25.5410  -45.2180 C.2       1 2VW        -0.0017
     31 C33        24.7720  -25.5500  -46.4070 C.2       1 2VW         0.0610
     32 N34        26.0580  -25.2310  -46.1600 N.pl3     1 2VW        -0.2165
     33 N36        26.1970  -25.0150  -44.7860 N.2       1 2VW        -0.2157
     34 C37        25.0310  -25.1920  -44.2210 C.2       1 2VW         0.0057
     35 H           8.9046  -24.8313  -45.8122 H         1 2VW         0.0777
     36 H          10.0095  -26.1355  -45.2600 H         1 2VW         0.0777
     37 H           8.3861  -26.5484  -45.9087 H         1 2VW         0.0777
     38 H           9.0222  -25.7857  -47.9653 H         1 2VW         0.2028
     39 H          11.1493  -24.9957  -48.6737 H         1 2VW         0.0777
     40 H          11.5933  -24.9151  -46.9351 H         1 2VW         0.0777
     41 H          10.2491  -23.9046  -47.5666 H         1 2VW         0.0777
     42 H          11.1018  -27.1159  -48.5437 H         1 2VW         0.0817
     43 H           9.4847  -27.8370  -48.2412 H         1 2VW         0.0817
     44 H          10.3395  -29.0621  -46.5759 H         1 2VW         0.0370
     45 H          10.8198  -27.5634  -45.7100 H         1 2VW         0.0370
     46 H          12.7231  -27.9383  -47.8109 H         1 2VW         0.0833
     47 H          12.7320  -29.7538  -49.2244 H         1 2VW         0.0558
     48 H          12.9048  -32.1971  -49.6051 H         1 2VW         0.0599
     49 H          12.7687  -33.7504  -47.6873 H         1 2VW         0.0559
     50 H          12.4844  -32.8914  -45.3862 H         1 2VW         0.0599
     51 H          12.3038  -30.4490  -45.0055 H         1 2VW         0.0558
     52 H          15.2288  -28.1099  -46.6114 H         1 2VW         0.0764
     53 H          13.7412  -27.0604  -42.7199 H         1 2VW         0.0620
     54 H          16.3693  -27.2755  -43.0482 H         1 2VW         0.2116
     55 H          19.8276  -26.5251  -46.7991 H         1 2VW         0.0584
     56 H          22.2073  -26.0180  -47.1233 H         1 2VW         0.0508
     57 H          22.7734  -25.7099  -42.8594 H         1 2VW         0.0506
     58 H          20.2794  -26.1274  -41.4467 H         1 2VW         0.2490
     59 H          24.3454  -25.7756  -47.3833 H         1 2VW         0.1036
     60 H          26.8083  -25.1589  -46.8620 H         1 2VW         0.2599
     61 H          24.8175  -25.0874  -43.1583 H         1 2VW         0.0674
@<TRIPOS>BOND
     1    1    2 1  
     2    2    3 1  
     3    2    4 1  
     4    4    5 1  
     5    5    6 1  
     6    6    7 1  
     7    6   13 1  
     8    7    8 ar 
     9    7   12 ar 
    10    8    9 ar 
    11    9   10 ar 
    12   10   11 ar 
    13   11   12 ar 
    14   13   14 1  
    15   13   17 1  
    16   14   15 2  
    17   15   16 1  
    18   15   18 1  
    19   16   17 2  
    20   18   19 am 
    21   19   20 2  
    22   19   21 1  
    23   21   22 1  
    24   21   29 2  
    25   22   23 ar 
    26   22   27 ar 
    27   23   24 ar 
    28   24   25 ar 
    29   25   26 ar 
    30   25   30 1  
    31   26   27 ar 
    32   27   28 1  
    33   28   29 1  
    34   30   31 2  
    35   30   34 1  
    36   31   32 1  
    37   32   33 1  
    38   33   34 2  
    39    1   35 1  
    40    1   36 1  
    41    1   37 1  
    42    2   38 1  
    43    3   39 1  
    44    3   40 1  
    45    3   41 1  
    46    4   42 1  
    47    4   43 1  
    48    5   44 1  
    49    5   45 1  
    50    6   46 1  
    51    8   47 1  
    52    9   48 1  
    53   10   49 1  
    54   11   50 1  
    55   12   51 1  
    56   14   52 1  
    57   16   53 1  
    58   18   54 1  
    59   23   55 1  
    60   24   56 1  
    61   26   57 1  
    62   28   58 1  
    63   31   59 1  
    64   32   60 1  
    65   34   61 1  
@<TRIPOS>SUBSTRUCTURE
     1 2VW         1

