### 
### Created by X-TOOL on Mon Sep 10 21:13:17 2018
### 

@<TRIPOS>MOLECULE
4pqa_ligand
   28    28     1     0     0
SMALL
GAST_HUCK


@<TRIPOS>ATOM
      1 O1         18.4770   21.1320   -8.3120 O.2       1 X8Z        -0.3964
      2 C4         18.2550   20.4460   -7.3280 C.2       1 X8Z         0.1838
      3 C2         19.2940   19.4970   -6.8100 C.3       1 X8Z         0.0548
      4 C1         19.1360   18.1460   -7.4970 C.3       1 X8Z         0.0101
      5 S          20.0300   16.8250   -6.6420 S.3       1 X8Z        -0.1756
      6 C3         20.6810   20.0770   -7.0600 C.3       1 X8Z        -0.0446
      7 N          17.1050   20.4890   -6.6600 N.am      1 X8Z        -0.2572
      8 C8         16.0120   21.3380   -7.1250 C.3       1 X8Z         0.0971
      9 C9         16.4830   22.7300   -7.4270 C.2       1 X8Z         0.0603
     10 O3         15.9380   23.3970   -8.2900 O.co2     1 X8Z        -0.5666
     11 O2         17.5030   23.2510   -6.7520 O.co2     1 X8Z        -0.5666
     12 C5         16.7810   19.7470   -5.4450 C.3       1 X8Z         0.0362
     13 C6         15.5010   20.3840   -4.9240 C.3       1 X8Z        -0.0288
     14 C7         15.0230   21.3750   -5.9690 C.3       1 X8Z        -0.0159
     15 H1         19.1539   19.3640   -5.7271 H         1 X8Z         0.0543
     16 H2         19.5215   18.2253   -8.5242 H         1 X8Z         0.0401
     17 H3         18.0672   17.8875   -7.5254 H         1 X8Z         0.0401
     18 H4         19.6795   16.7382   -5.7009 H         1 X8Z         0.1018
     19 H5         20.7682   21.0499   -6.5542 H         1 X8Z         0.0257
     20 H6         20.8331   20.2109   -8.1412 H         1 X8Z         0.0257
     21 H7         21.4429   19.3889   -6.6650 H         1 X8Z         0.0257
     22 H8         15.5469   20.9055   -8.0231 H         1 X8Z         0.0728
     23 H9         17.5897   19.8438   -4.7056 H         1 X8Z         0.0524
     24 H10        16.6183   18.6833   -5.6734 H         1 X8Z         0.0524
     25 H11        15.7004   20.9054   -3.9762 H         1 X8Z         0.0286
     26 H12        14.7357   19.6105   -4.7630 H         1 X8Z         0.0286
     27 H13        14.0209   21.0920   -6.3235 H         1 X8Z         0.0306
     28 H14        14.9874   22.3864   -5.5381 H         1 X8Z         0.0306
@<TRIPOS>BOND
     1    1    2 2  
     2    2    3 1  
     3    2    7 am 
     4    3    4 1  
     5    3    6 1  
     6    4    5 1  
     7    7    8 1  
     8    7   12 1  
     9    8    9 1  
    10    8   14 1  
    11    9   10 ar 
    12    9   11 ar 
    13   12   13 1  
    14   13   14 1  
    15    3   15 1  
    16    4   16 1  
    17    4   17 1  
    18    5   18 1  
    19    6   19 1  
    20    6   20 1  
    21    6   21 1  
    22    8   22 1  
    23   12   23 1  
    24   12   24 1  
    25   13   25 1  
    26   13   26 1  
    27   14   27 1  
    28   14   28 1  
@<TRIPOS>SUBSTRUCTURE
     1 X8Z         1

