### 
### Created by X-TOOL on Mon Sep 10 21:13:17 2018
### 

@<TRIPOS>MOLECULE
4pqn_ligand
   64    67     1     0     0
SMALL
GAST_HUCK


@<TRIPOS>ATOM
      1 C1        -14.6120   22.1410   33.1690 C.ar      1 2W6        -0.0685
      2 C2        -15.0530   21.9850   31.8420 C.ar      1 2W6        -0.0573
      3 C3        -14.3850   22.5940   30.8040 C.ar      1 2W6        -0.0085
      4 C4        -13.2030   23.2800   31.0650 C.ar      1 2W6        -0.0573
      5 C5        -12.7430   23.4280   32.3770 C.ar      1 2W6        -0.0685
      6 C6        -13.4640   22.8590   33.4320 C.ar      1 2W6        -0.0687
      7 C7        -14.8360   22.4380   29.3840 C.3       1 2W6         0.1142
      8 C8        -15.8750   23.4840   28.9660 C.3       1 2W6         0.0292
      9 C9        -16.0610   23.4440   27.4260 C.3       1 2W6        -0.0276
     10 N10       -17.1260   24.3630   26.9830 N.4       1 2W6         0.2311
     11 C11       -17.4490   24.1670   25.5460 C.3       1 2W6        -0.0433
     12 C12       -16.6960   25.7590   27.2080 C.3       1 2W6        -0.0433
     13 N13       -15.2140   21.0050   29.1760 N.pl3     1 2W6        -0.2078
     14 N14       -16.4980   20.5740   29.2870 N.2       1 2W6        -0.2228
     15 C15       -16.4820   19.2400   29.0860 C.2       1 2W6         0.0203
     16 C16       -15.1630   18.8190   28.8820 C.2       1 2W6         0.0733
     17 C17       -14.4100   19.9640   28.9400 C.2       1 2W6         0.0628
     18 N18       -14.6460   17.5580   28.6340 N.am      1 2W6        -0.2531
     19 C19       -15.2980   16.4110   28.6550 C.2       1 2W6         0.2386
     20 O20       -16.5070   16.3140   28.8320 O.2       1 2W6        -0.3833
     21 C21       -14.4890   15.1670   28.5370 C.2       1 2W6         0.1525
     22 C22       -15.0580   13.8400   28.3950 C.2       1 2W6        -0.0043
     23 C23       -13.9300   12.9450   28.3290 C.2       1 2W6         0.0233
     24 N24       -12.8430   13.7120   28.4780 N.2       1 2W6        -0.2231
     25 N25       -13.1550   15.0530   28.6060 N.pl3     1 2W6        -0.2205
     26 C26       -14.0500   11.4700   28.1630 C.3       1 2W6        -0.0095
     27 C27       -15.4730   11.0070   28.4320 C.3       1 2W6        -0.0251
     28 C28       -16.5150   11.9290   27.7810 C.3       1 2W6        -0.0404
     29 C29       -16.4820   13.3720   28.2450 C.3       1 2W6        -0.0276
     30 C30       -15.6200    9.6000   27.8900 C.3       1 2W6        -0.0582
     31 C31       -15.7600   10.9770   29.9420 C.3       1 2W6        -0.0582
     32 H         -15.1735   21.6976   33.9834 H         1 2W6         0.0599
     33 H         -15.9277   21.3791   31.6350 H         1 2W6         0.0558
     34 H         -12.6343   23.7030   30.2448 H         1 2W6         0.0558
     35 H         -11.8321   23.9810   32.5757 H         1 2W6         0.0599
     36 H         -13.1216   22.9819   34.4531 H         1 2W6         0.0559
     37 H         -13.9603   22.6240   28.7448 H         1 2W6         0.0833
     38 H         -15.5299   24.4840   29.2675 H         1 2W6         0.0370
     39 H         -16.8345   23.2638   29.4567 H         1 2W6         0.0370
     40 H         -16.3257   22.4196   27.1250 H         1 2W6         0.0817
     41 H         -15.1157   23.7350   26.9447 H         1 2W6         0.0817
     42 H         -17.9550   24.1825   27.5272 H         1 2W6         0.2028
     43 H         -18.2448   24.8666   25.2504 H         1 2W6         0.0777
     44 H         -17.7904   23.1339   25.3845 H         1 2W6         0.0777
     45 H         -16.5510   24.3555   24.9393 H         1 2W6         0.0777
     46 H         -16.4574   25.9021   28.2722 H         1 2W6         0.0777
     47 H         -17.5070   26.4436   26.9188 H         1 2W6         0.0777
     48 H         -15.8036   25.9703   26.6005 H         1 2W6         0.0777
     49 H         -17.3577   18.5926   29.0830 H         1 2W6         0.0620
     50 H         -13.3296   20.0164   28.8139 H         1 2W6         0.0764
     51 H         -13.6714   17.5119   28.4149 H         1 2W6         0.2112
     52 H         -12.4842   15.8244   28.7316 H         1 2W6         0.2489
     53 H         -13.3697   10.9717   28.8693 H         1 2W6         0.0411
     54 H         -13.7721   11.1998   27.1336 H         1 2W6         0.0411
     55 H         -17.5133   11.5235   28.0023 H         1 2W6         0.0288
     56 H         -16.3472   11.9175   26.6939 H         1 2W6         0.0288
     57 H         -16.9954   14.0031   27.5047 H         1 2W6         0.0371
     58 H         -16.9948   13.4532   29.2147 H         1 2W6         0.0371
     59 H         -14.8711    8.9458   28.3603 H         1 2W6         0.0236
     60 H         -15.4668    9.6088   26.8008 H         1 2W6         0.0236
     61 H         -16.6288    9.2237   28.1154 H         1 2W6         0.0236
     62 H         -15.6581   11.9915   30.3548 H         1 2W6         0.0236
     63 H         -15.0437   10.3057   30.4381 H         1 2W6         0.0236
     64 H         -16.7836   10.6125   30.1135 H         1 2W6         0.0236
@<TRIPOS>BOND
     1    1    2 ar 
     2    1    6 ar 
     3    2    3 ar 
     4    3    4 ar 
     5    3    7 1  
     6    4    5 ar 
     7    5    6 ar 
     8    7    8 1  
     9    7   13 1  
    10    8    9 1  
    11    9   10 1  
    12   10   11 1  
    13   10   12 1  
    14   13   14 1  
    15   13   17 1  
    16   14   15 2  
    17   15   16 1  
    18   16   17 2  
    19   16   18 1  
    20   18   19 am 
    21   19   20 2  
    22   19   21 1  
    23   21   22 2  
    24   21   25 1  
    25   22   23 1  
    26   22   29 1  
    27   23   24 2  
    28   23   26 1  
    29   24   25 1  
    30   26   27 1  
    31   27   28 1  
    32   27   30 1  
    33   27   31 1  
    34   28   29 1  
    35    1   32 1  
    36    2   33 1  
    37    4   34 1  
    38    5   35 1  
    39    6   36 1  
    40    7   37 1  
    41    8   38 1  
    42    8   39 1  
    43    9   40 1  
    44    9   41 1  
    45   10   42 1  
    46   11   43 1  
    47   11   44 1  
    48   11   45 1  
    49   12   46 1  
    50   12   47 1  
    51   12   48 1  
    52   15   49 1  
    53   17   50 1  
    54   18   51 1  
    55   25   52 1  
    56   26   53 1  
    57   26   54 1  
    58   28   55 1  
    59   28   56 1  
    60   29   57 1  
    61   29   58 1  
    62   30   59 1  
    63   30   60 1  
    64   30   61 1  
    65   31   62 1  
    66   31   63 1  
    67   31   64 1  
@<TRIPOS>SUBSTRUCTURE
     1 2W6         1

