### 
### Created by X-TOOL on Mon Sep 10 21:12:47 2018
### 

@<TRIPOS>MOLECULE
4prg_ligand
   89    92     1     0     0
SMALL
GAST_HUCK


@<TRIPOS>ATOM
      1 S1B        17.0450   61.3720    9.5360 S.3       1 072        -0.1055
      2 C1A        15.7050   63.5340    9.0970 C.2       1 072         0.1948
      3 C1B        15.4470   62.0290    9.3860 C.3       1 072         0.1132
      4 O1A        14.7380   64.2190    8.6530 O.2       1 072        -0.3955
      5 C1C        14.6450   61.4410   10.6070 C.3       1 072         0.0666
      6 C1D        15.1760   61.4050   12.1560 C.2       1 072         0.1855
      7 O1D        15.9240   62.3960   12.4020 O.2       1 072        -0.3964
      8 C2A        18.0200   62.8370    9.5680 C.3       1 072         0.0934
      9 C2B        19.3140   62.5280    8.6420 C.3       1 072        -0.0201
     10 C2C        20.7210   63.2050    8.9350 C.3       1 072        -0.0502
     11 C2D        21.8150   62.5170    9.9040 C.3       1 072        -0.0530
     12 C2E        23.0330   63.1800   10.7060 C.3       1 072        -0.0531
     13 C2F        23.8430   64.4340   10.1730 C.3       1 072        -0.0533
     14 C2G        25.2850   64.9060   10.6660 C.3       1 072        -0.0559
     15 C2H        25.7720   66.3580   10.3200 C.3       1 072        -0.0653
     16 N3A        17.0270   63.9800    9.2720 N.am      1 072        -0.2595
     17 C3B        17.3740   65.5280    9.4060 C.3       1 072         0.0352
     18 C3C        17.9660   66.3890    8.1850 C.3       1 072        -0.0306
     19 C3D        16.9980   67.3490    7.3670 C.3       1 072        -0.0410
     20 C3E        17.3930   68.2540    6.0950 C.3       1 072        -0.0178
     21 C3F        18.2610   69.6140    6.1620 C.ar      1 072        -0.0402
     22 C3G        17.7350   70.8900    6.7010 C.ar      1 072        -0.0566
     23 C3H        19.5480   69.6760    5.4740 C.ar      1 072        -0.0566
     24 C3I        18.4360   72.1490    6.5090 C.ar      1 072        -0.0543
     25 C3J        20.2350   70.9100    5.2810 C.ar      1 072        -0.0543
     26 C3K        19.6840   72.1790    5.7570 C.ar      1 072         0.0032
     27 C3L        20.3760   73.4420    5.4510 C.2       1 072         0.0584
     28 O3M        21.0540   73.5760    4.3740 O.co2     1 072        -0.5625
     29 O3N        20.3420   74.3690    6.2940 O.co2     1 072        -0.5625
     30 N4A        14.9190   60.4080   13.2010 N.am      1 072        -0.2505
     31 C4B        15.9560   60.2590   14.4260 C.3       1 072         0.0696
     32 C4C        17.5710   60.3240   14.4840 C.ar      1 072        -0.0206
     33 C4E        18.3010   60.3860   15.7750 C.ar      1 072        -0.0584
     34 C4D        18.3720   60.1500   13.2690 C.ar      1 072        -0.0584
     35 C4G        19.7280   60.1480   15.8290 C.ar      1 072        -0.0685
     36 C4F        19.7970   60.0440   13.3440 C.ar      1 072        -0.0685
     37 C4H        20.4600   59.9520   14.6060 C.ar      1 072        -0.0687
     38 C5B        13.7400   59.3530   13.1910 C.3       1 072         0.0696
     39 C5C        12.1820   59.7020   13.2590 C.ar      1 072        -0.0206
     40 C5D        11.4090   59.8170   11.9760 C.ar      1 072        -0.0584
     41 C5E        11.4280   59.3810   14.4740 C.ar      1 072        -0.0584
     42 C5F        10.0020   59.4530   11.8890 C.ar      1 072        -0.0685
     43 C5G        10.0210   59.0370   14.3800 C.ar      1 072        -0.0685
     44 C5H         9.3160   59.0480   13.0840 C.ar      1 072        -0.0687
     45 H1         14.9529   61.6298    8.4880 H         1 072         0.0678
     46 H2         14.4393   60.3929   10.3441 H         1 072         0.0539
     47 H3         13.7005   62.0042   10.6349 H         1 072         0.0539
     48 H4         18.4028   63.0122   10.5842 H         1 072         0.0676
     49 H5         19.0383   62.8151    7.6165 H         1 072         0.0296
     50 H6         19.4765   61.4410    8.6874 H         1 072         0.0296
     51 H7         20.5037   64.1926    9.3679 H         1 072         0.0266
     52 H8         21.2111   63.3324    7.9585 H         1 072         0.0266
     53 H9         22.2919   61.7527    9.2728 H         1 072         0.0265
     54 H10        21.2141   62.0260   10.6836 H         1 072         0.0265
     55 H11        23.7740   62.3792   10.8461 H         1 072         0.0265
     56 H12        22.6250   63.4772   11.6833 H         1 072         0.0265
     57 H13        23.1835   65.2969   10.3477 H         1 072         0.0265
     58 H14        23.9501   64.2675    9.0910 H         1 072         0.0265
     59 H15        26.0175   64.2090   10.2329 H         1 072         0.0263
     60 H16        25.2962   64.8153   11.7622 H         1 072         0.0263
     61 H17        26.7794   66.5150   10.7329 H         1 072         0.0230
     62 H18        25.0783   67.0913   10.7570 H         1 072         0.0230
     63 H19        25.7996   66.4850    9.2277 H         1 072         0.0230
     64 H20        18.1094   65.6069   10.2202 H         1 072         0.0523
     65 H21        16.4400   66.0256    9.7060 H         1 072         0.0523
     66 H22        18.3919   65.6743    7.4654 H         1 072         0.0286
     67 H23        18.7692   67.0182    8.5960 H         1 072         0.0286
     68 H24        16.6044   68.0579    8.1103 H         1 072         0.0289
     69 H25        16.1841   66.6992    7.0130 H         1 072         0.0289
     70 H26        16.4381   68.5378    5.6286 H         1 072         0.0432
     71 H27        17.9466   67.5854    5.4194 H         1 072         0.0432
     72 H28        16.8023   70.8846    7.2534 H         1 072         0.0564
     73 H29        19.9920   68.7603    5.1007 H         1 072         0.0564
     74 H30        18.0309   73.0645    6.9247 H         1 072         0.0634
     75 H31        21.1902   70.9081    4.7684 H         1 072         0.0634
     76 H32        15.7208   59.2701   14.8464 H         1 072         0.0688
     77 H33        15.6393   61.0418   15.1309 H         1 072         0.0688
     78 H34        17.7600   60.6118   16.6868 H         1 072         0.0557
     79 H35        17.8801   60.1011   12.3042 H         1 072         0.0557
     80 H36        20.2410   60.1177   16.7835 H         1 072         0.0599
     81 H37        20.3812   60.0334   12.4310 H         1 072         0.0599
     82 H38        21.5211   59.7332   14.6424 H         1 072         0.0559
     83 H39        13.9290   58.6974   14.0538 H         1 072         0.0688
     84 H40        13.8695   58.7809   12.2604 H         1 072         0.0688
     85 H41        11.9137   60.1818   11.0887 H         1 072         0.0557
     86 H42        11.9196   59.4004   15.4399 H         1 072         0.0557
     87 H43         9.4813   59.4871   10.9389 H         1 072         0.0599
     88 H44         9.4782   58.7670   15.2786 H         1 072         0.0599
     89 H45         8.2753   58.7490   13.0335 H         1 072         0.0559
@<TRIPOS>BOND
     1    1    3 1  
     2    1    8 1  
     3    3    2 1  
     4    2    4 2  
     5    2   16 am 
     6    3    5 1  
     7    5    6 1  
     8    6    7 2  
     9    6   30 am 
    10    8    9 1  
    11    8   16 1  
    12    9   10 1  
    13   10   11 1  
    14   11   12 1  
    15   12   13 1  
    16   13   14 1  
    17   14   15 1  
    18   16   17 1  
    19   17   18 1  
    20   18   19 1  
    21   19   20 1  
    22   20   21 1  
    23   21   22 ar 
    24   21   23 ar 
    25   22   24 ar 
    26   23   25 ar 
    27   24   26 ar 
    28   25   26 ar 
    29   26   27 1  
    30   27   28 ar 
    31   27   29 ar 
    32   30   31 1  
    33   30   38 1  
    34   31   32 1  
    35   32   33 ar 
    36   32   34 ar 
    37   33   35 ar 
    38   34   36 ar 
    39   35   37 ar 
    40   36   37 ar 
    41   38   39 1  
    42   39   40 ar 
    43   39   41 ar 
    44   40   42 ar 
    45   41   43 ar 
    46   42   44 ar 
    47   43   44 ar 
    48    3   45 1  
    49    5   46 1  
    50    5   47 1  
    51    8   48 1  
    52    9   49 1  
    53    9   50 1  
    54   10   51 1  
    55   10   52 1  
    56   11   53 1  
    57   11   54 1  
    58   12   55 1  
    59   12   56 1  
    60   13   57 1  
    61   13   58 1  
    62   14   59 1  
    63   14   60 1  
    64   15   61 1  
    65   15   62 1  
    66   15   63 1  
    67   17   64 1  
    68   17   65 1  
    69   18   66 1  
    70   18   67 1  
    71   19   68 1  
    72   19   69 1  
    73   20   70 1  
    74   20   71 1  
    75   22   72 1  
    76   23   73 1  
    77   24   74 1  
    78   25   75 1  
    79   31   76 1  
    80   31   77 1  
    81   33   78 1  
    82   34   79 1  
    83   35   80 1  
    84   36   81 1  
    85   37   82 1  
    86   38   83 1  
    87   38   84 1  
    88   40   85 1  
    89   41   86 1  
    90   42   87 1  
    91   43   88 1  
    92   44   89 1  
@<TRIPOS>SUBSTRUCTURE
     1 072         1

