### 
### Created by X-TOOL on Mon Sep 10 21:13:20 2018
### 

@<TRIPOS>MOLECULE
4prj_ligand
   47    51     1     0     0
SMALL
GAST_HUCK


@<TRIPOS>ATOM
      1 C1         48.3550   19.2110   25.9740 C.ar      1 2VU        -0.0572
      2 C2         48.6670   19.0550   24.6230 C.ar      1 2VU        -0.0489
      3 C3         49.9970   18.8810   24.2380 C.ar      1 2VU        -0.0007
      4 C4         51.0130   18.8700   25.1860 C.ar      1 2VU        -0.0230
      5 C5         50.7140   19.0090   26.5490 C.ar      1 2VU         0.0891
      6 C6         49.3680   19.1970   26.9350 C.ar      1 2VU        -0.0339
      7 C7         51.7960   18.9710   27.4980 C.1       1 2VU         0.0987
      8 N8         52.6780   18.9370   28.2220 N.1       1 2VU        -0.3283
      9 C9         50.3600   18.6870   22.7880 C.3       1 2VU         0.1006
     10 N10        50.7840   17.3100   22.5100 N.pl3     1 2VU        -0.2109
     11 C11        51.0220   16.8250   21.2740 C.2       1 2VU         0.0626
     12 C12        51.3920   15.5290   21.3950 C.2       1 2VU         0.0736
     13 C13        51.3710   15.2060   22.7630 C.2       1 2VU         0.0203
     14 N14        51.0050   16.2620   23.4260 N.2       1 2VU        -0.2230
     15 N15        51.7180   14.6990   20.3050 N.am      1 2VU        -0.2528
     16 C16        52.2740   13.4710   20.3990 C.2       1 2VU         0.2305
     17 O17        52.5180   12.9500   21.4750 O.2       1 2VU        -0.3799
     18 C18        52.5620   12.7310   19.1590 C.2       1 2VU         0.1357
     19 C19        52.9430   11.3170   19.0710 C.ar      1 2VU         0.0238
     20 C20        53.1740   10.2870   19.9960 C.ar      1 2VU        -0.0656
     21 C21        53.4970    9.0350   19.5490 C.ar      1 2VU        -0.0708
     22 C22        53.6430    8.7820   18.1700 C.ar      1 2VU        -0.0431
     23 C23        53.4240    9.8020   17.2420 C.ar      1 2VU        -0.0356
     24 C24        53.0660   11.0810   17.6790 C.ar      1 2VU         0.0871
     25 N25        52.7680   12.2710   17.0630 N.pl3     1 2VU        -0.2075
     26 N27        52.4730   13.1740   17.9240 N.2       1 2VU        -0.1791
     27 C28        53.9680    7.4060   17.7060 C.2       1 2VU        -0.0017
     28 C29        53.4860    6.8060   16.5740 C.2       1 2VU         0.0610
     29 N30        53.9760    5.5550   16.5250 N.pl3     1 2VU        -0.2165
     30 N32        54.7670    5.3650   17.6630 N.2       1 2VU        -0.2157
     31 C33        54.7630    6.4560   18.3770 C.2       1 2VU         0.0057
     32 H          47.3231   19.3435   26.2785 H         1 2VU         0.0623
     33 H          47.8808   19.0689   23.8768 H         1 2VU         0.0629
     34 H          52.0433   18.7532   24.8699 H         1 2VU         0.0656
     35 H          49.1205   19.3310   27.9818 H         1 2VU         0.0661
     36 H          51.1829   19.3709   22.5327 H         1 2VU         0.0796
     37 H          49.4826   18.9211   22.1672 H         1 2VU         0.0796
     38 H          50.9320   17.3798   20.3412 H         1 2VU         0.0764
     39 H          51.6190   14.2369   23.1934 H         1 2VU         0.0620
     40 H          51.5223   15.0463   19.3879 H         1 2VU         0.2116
     41 H          53.0969   10.4826   21.0594 H         1 2VU         0.0584
     42 H          53.6419    8.2308   20.2613 H         1 2VU         0.0508
     43 H          53.5316    9.6022   16.1820 H         1 2VU         0.0506
     44 H          52.7798   12.4189   16.0437 H         1 2VU         0.2490
     45 H          52.8219    7.2622   15.8413 H         1 2VU         0.1036
     46 H          53.8007    4.8618   15.7836 H         1 2VU         0.2599
     47 H          55.2815    6.6060   19.3228 H         1 2VU         0.0674
@<TRIPOS>BOND
     1    1    2 ar 
     2    1    6 ar 
     3    2    3 ar 
     4    3    4 ar 
     5    3    9 1  
     6    4    5 ar 
     7    5    6 ar 
     8    5    7 1  
     9    7    8 3  
    10    9   10 1  
    11   10   11 1  
    12   10   14 1  
    13   11   12 2  
    14   12   13 1  
    15   12   15 1  
    16   13   14 2  
    17   15   16 am 
    18   16   17 2  
    19   16   18 1  
    20   18   19 1  
    21   18   26 2  
    22   19   20 ar 
    23   19   24 ar 
    24   20   21 ar 
    25   21   22 ar 
    26   22   23 ar 
    27   22   27 1  
    28   23   24 ar 
    29   24   25 1  
    30   25   26 1  
    31   27   28 2  
    32   27   31 1  
    33   28   29 1  
    34   29   30 1  
    35   30   31 2  
    36    1   32 1  
    37    2   33 1  
    38    4   34 1  
    39    6   35 1  
    40    9   36 1  
    41    9   37 1  
    42   11   38 1  
    43   13   39 1  
    44   15   40 1  
    45   20   41 1  
    46   21   42 1  
    47   23   43 1  
    48   25   44 1  
    49   28   45 1  
    50   29   46 1  
    51   31   47 1  
@<TRIPOS>SUBSTRUCTURE
     1 2VU         1

