### 
### Created by X-TOOL on Mon Sep 10 21:13:21 2018
### 

@<TRIPOS>MOLECULE
4pry_ligand
   67    66     1     0     0
SMALL
GAST_HUCK


@<TRIPOS>ATOM
      1 C          41.0870   13.8200   75.4210 C.2       1 ACE         0.1751
      2 O          40.2120   14.5870   75.0250 O.2       1 ACE        -0.3972
      3 CH3        41.2590   13.5850   76.9030 C.3       1 ACE         0.0258
      4 N          41.6080   12.9060   74.6220 N.am      1 LEU        -0.2658
      5 CA         41.4690   13.0150   73.1810 C.3       1 LEU         0.1311
      6 C          41.0480   11.6670   72.5850 C.2       1 LEU         0.2039
      7 O          41.6500   10.6340   72.8730 O.2       1 LEU        -0.3944
      8 CB         42.7780   13.4960   72.5880 C.3       1 LEU        -0.0101
      9 CG         42.9060   14.1320   71.2180 C.3       1 LEU        -0.0425
     10 CD1        41.8790   15.2440   70.9680 C.3       1 LEU        -0.0625
     11 CD2        44.3060   14.6830   71.1540 C.3       1 LEU        -0.0625
     12 N          40.0000   11.6870   71.7690 N.am      1 GLU        -0.2636
     13 CA         39.4120   10.4800   71.1950 C.3       1 GLU         0.1325
     14 C          39.1990   10.6620   69.6890 C.2       1 GLU         0.2041
     15 O          39.2610   11.7770   69.1990 O.2       1 GLU        -0.3944
     16 CB         38.0880   10.1520   71.9030 C.3       1 GLU        -0.0008
     17 CG         38.2620    9.9880   73.4490 C.3       1 GLU         0.0044
     18 CD         36.9770    9.6560   74.2310 C.2       1 GLU         0.0350
     19 OE1        35.8480    9.7130   73.6850 O.co2     1 GLU        -0.5690
     20 OE2        37.1090    9.3520   75.4380 O.co2     1 GLU        -0.5690
     21 N          38.9790    9.5620   68.9720 N.am      1 THR        -0.2613
     22 CA         38.6580    9.6160   67.5470 C.3       1 THR         0.1564
     23 C          37.2200    9.1880   67.3200 C.2       1 THR         0.2060
     24 O          36.6510    8.4320   68.0930 O.2       1 THR        -0.3943
     25 CB         39.5650    8.7200   66.6790 C.3       1 THR         0.0924
     26 OG1        39.5710    7.3830   67.2040 O.3       1 THR        -0.3874
     27 CG2        40.9880    9.2510   66.6290 C.3       1 THR        -0.0346
     28 N          36.6420    9.7020   66.2500 N.am      1 ASA        -0.2679
     29 CA         35.3010    9.3200   65.8090 C.3       1 ASA         0.1057
     30 C          35.3640    8.3810   64.6520 C.2       1 ASA         0.0618
     31 O          34.3270    8.0030   64.0900 O.co2     1 ASA        -0.5665
     32 CB         34.6240   10.6250   65.3480 C.3       1 ASA         0.0351
     33 CG         33.9740   11.3200   66.5720 C.2       1 ASA         0.0387
     34 OD1        33.7050   10.6820   67.6300 O.co2     1 ASA        -0.5688
     35 OD2        33.6920   12.5540   66.5570 O.co2     1 ASA        -0.5688
     36 OXT        36.4540    7.9650   64.2360 O.co2     1 ASA        -0.5665
     37 H1         42.0829   12.8752   77.0685 H         1 ACE         0.0467
     38 H2         40.3289   13.1705   77.3189 H         1 ACE         0.0467
     39 H3         41.4906   14.5381   77.4010 H         1 ACE         0.0467
     40 H4         42.1034   12.1308   75.0139 H         1 LEU         0.1882
     41 H5         40.6874   13.7550   72.9541 H         1 LEU         0.0800
     42 H6         43.4385   12.6165   72.5710 H         1 LEU         0.0315
     43 H7         43.1725   14.2372   73.2986 H         1 LEU         0.0315
     44 H8         42.7738   13.3597   70.4460 H         1 LEU         0.0298
     45 H9         42.0273   15.6603   69.9607 H         1 LEU         0.0232
     46 H10        42.0103   16.0394   71.7164 H         1 LEU         0.0232
     47 H11        40.8632   14.8296   71.0476 H         1 LEU         0.0232
     48 H12        45.0275   13.8728   71.3353 H         1 LEU         0.0232
     49 H13        44.4290   15.4619   71.9210 H         1 LEU         0.0232
     50 H14        44.4842   15.1168   70.1590 H         1 LEU         0.0232
     51 H15        39.5943   12.5710   71.5367 H         1 GLU         0.1883
     52 H16        40.1073    9.6418   71.3498 H         1 GLU         0.0801
     53 H17        37.6904    9.2128   71.4909 H         1 GLU         0.0330
     54 H18        37.3744   10.9671   71.7126 H         1 GLU         0.0330
     55 H19        38.6660   10.9309   73.8462 H         1 GLU         0.0433
     56 H20        38.9841    9.1770   73.6243 H         1 GLU         0.0433
     57 H21        39.0351    8.6709   69.4224 H         1 THR         0.1884
     58 H22        38.7786   10.6569   67.2124 H         1 THR         0.0826
     59 H23        39.1617    8.7003   65.6558 H         1 THR         0.0639
     60 H24        40.1307    6.8353   66.6662 H         1 THR         0.2101
     61 H25        41.6046    8.5891   66.0031 H         1 THR         0.0257
     62 H26        41.4030    9.2842   67.6472 H         1 THR         0.0257
     63 H27        40.9865   10.2641   66.2004 H         1 THR         0.0257
     64 H28        37.1438   10.3833   65.7171 H         1 ASA         0.1876
     65 H29        34.7417    8.8578   66.6358 H         1 ASA         0.0745
     66 H30        33.8498   10.3944   64.6015 H         1 ASA         0.0471
     67 H31        35.3761   11.2924   64.9021 H         1 ASA         0.0471
@<TRIPOS>BOND
     1    1    2 2  
     2    1    3 1  
     3    1    4 am 
     4    4    5 1  
     5    5    6 1  
     6    5    8 1  
     7    6    7 2  
     8    6   12 am 
     9    8    9 1  
    10    9   10 1  
    11    9   11 1  
    12   12   13 1  
    13   13   14 1  
    14   13   16 1  
    15   14   15 2  
    16   14   21 am 
    17   16   17 1  
    18   17   18 1  
    19   18   19 ar 
    20   18   20 ar 
    21   21   22 1  
    22   22   23 1  
    23   22   25 1  
    24   23   24 2  
    25   23   28 am 
    26   25   26 1  
    27   25   27 1  
    28   28   29 1  
    29   29   30 1  
    30   29   32 1  
    31   30   31 ar 
    32   30   36 ar 
    33   32   33 1  
    34   33   34 ar 
    35   33   35 ar 
    36    3   37 1  
    37    3   38 1  
    38    3   39 1  
    39    4   40 1  
    40    5   41 1  
    41    8   42 1  
    42    8   43 1  
    43    9   44 1  
    44   10   45 1  
    45   10   46 1  
    46   10   47 1  
    47   11   48 1  
    48   11   49 1  
    49   11   50 1  
    50   12   51 1  
    51   13   52 1  
    52   16   53 1  
    53   16   54 1  
    54   17   55 1  
    55   17   56 1  
    56   21   57 1  
    57   22   58 1  
    58   25   59 1  
    59   26   60 1  
    60   27   61 1  
    61   27   62 1  
    62   27   63 1  
    63   28   64 1  
    64   29   65 1  
    65   32   66 1  
    66   32   67 1  
@<TRIPOS>SUBSTRUCTURE
     1 ACE         1

