### 
### Created by X-TOOL on Mon Sep 10 21:13:20 2018
### 

@<TRIPOS>MOLECULE
4ps0_ligand
   79    79     1     0     0
SMALL
GAST_HUCK


@<TRIPOS>ATOM
      1 N         -24.8660    7.6660  -47.8890 N.4       1 BAL         0.2202
      2 CB        -24.2200    8.8980  -47.5720 C.3       1 BAL        -0.0184
      3 CA        -22.8630    8.5700  -47.0360 C.3       1 BAL         0.0773
      4 C         -23.0620    8.1690  -45.5860 C.2       1 BAL         0.1834
      5 O         -23.1520    6.9520  -45.2900 O.2       1 BAL        -0.3967
      6 N         -23.4140    9.0910  -44.6960 N.am      1 LEU        -0.2655
      7 CA        -23.3480    8.8990  -43.2320 C.3       1 LEU         0.1311
      8 C         -24.5320    8.0730  -42.7090 C.2       1 LEU         0.2039
      9 O         -25.6960    8.4180  -42.9890 O.2       1 LEU        -0.3944
     10 CB        -23.3420   10.2740  -42.5710 C.3       1 LEU        -0.0101
     11 CG        -23.1880   10.2530  -41.0570 C.3       1 LEU        -0.0425
     12 CD1       -21.6910    9.9740  -40.7070 C.3       1 LEU        -0.0625
     13 CD2       -23.7580   11.5610  -40.4740 C.3       1 LEU        -0.0625
     14 N         -24.2410    7.0340  -41.9120 N.am      1 GLN        -0.2636
     15 CA        -25.2980    6.2740  -41.2420 C.3       1 GLN         0.1332
     16 C         -24.8060    5.8980  -39.8530 C.2       1 GLN         0.2066
     17 O         -23.6240    5.6530  -39.6930 O.2       1 GLN        -0.3942
     18 CB        -25.6400    5.0010  -42.0220 C.3       1 GLN         0.0045
     19 CG        -26.1830    5.2920  -43.4270 C.3       1 GLN         0.0412
     20 CD        -26.7060    4.0790  -44.1430 C.2       1 GLN         0.1737
     21 OE1       -26.6260    2.9390  -43.6560 O.2       1 GLN        -0.3973
     22 NE2       -27.3020    4.3250  -45.3140 N.am      1 GLN        -0.3009
     23 N         -25.6940    5.8610  -38.8670 N.am      1 HYP        -0.2473
     24 CA        -25.3050    5.4510  -37.4120 C.3       1 HYP         0.1362
     25 C         -25.4600    4.0830  -37.1490 C.2       1 HYP         0.2043
     26 O         -26.3520    3.3810  -37.7590 O.2       1 HYP        -0.3944
     27 CB        -26.3050    6.4250  -36.6760 C.3       1 HYP         0.0158
     28 CG        -27.4120    6.3100  -37.3950 C.3       1 HYP         0.0799
     29 CD        -26.9820    6.2420  -38.9150 C.3       1 HYP         0.0629
     30 OD1       -28.3240    7.4890  -37.2120 O.3       1 HYP        -0.3896
     31 N         -24.6570    3.5490  -36.2150 N.am      1 1U8        -0.2633
     32 CA        -24.8440    2.1790  -35.7630 C.3       1 1U8         0.1259
     33 C         -25.4190    2.1710  -34.3610 C.2       1 1U8         0.1289
     34 O         -25.3180    1.1680  -33.6630 O.2       1 1U8        -0.3893
     35 CB        -23.4670    1.4700  -35.7290 C.3       1 1U8         0.0395
     36 CG        -23.1450    0.9760  -37.1170 C.2       1 1U8         0.0393
     37 OD1       -21.9760    0.7330  -37.4710 O.co2     1 1U8        -0.5688
     38 OD2       -24.0760    0.7500  -37.9010 O.co2     1 1U8        -0.5688
     39 C9        -26.0470    3.4150  -33.8380 C.3       1 1U8         0.0119
     40 H1        -25.7866    7.8536  -48.2542 H         1 BAL         0.1996
     41 H2        -24.9431    7.1031  -47.0564 H         1 BAL         0.1996
     42 H3        -24.3248    7.1710  -48.5804 H         1 BAL         0.1996
     43 H4        -24.8016    9.4426  -46.8136 H         1 BAL         0.0839
     44 H5        -24.1268    9.5167  -48.4767 H         1 BAL         0.0839
     45 H6        -22.2053    9.4493  -47.1009 H         1 BAL         0.0556
     46 H7        -22.4203    7.7382  -47.6036 H         1 BAL         0.0556
     47 H8        -23.7445    9.9705  -45.0385 H         1 LEU         0.1883
     48 H9        -22.4154    8.3715  -42.9831 H         1 LEU         0.0800
     49 H10       -24.2920   10.7736  -42.8115 H         1 LEU         0.0315
     50 H11       -22.5066   10.8526  -42.9920 H         1 LEU         0.0315
     51 H12       -23.7845    9.4222  -40.6522 H         1 LEU         0.0298
     52 H13       -21.5671    9.9565  -39.6141 H         1 LEU         0.0232
     53 H14       -21.0604   10.7673  -41.1348 H         1 LEU         0.0232
     54 H15       -21.3916    9.0018  -41.1256 H         1 LEU         0.0232
     55 H16       -24.8110   11.6677  -40.7736 H         1 LEU         0.0232
     56 H17       -23.1798   12.4153  -40.8559 H         1 LEU         0.0232
     57 H18       -23.6901   11.5335  -39.3765 H         1 LEU         0.0232
     58 H19       -23.2854    6.7740  -41.7730 H         1 GLN         0.1883
     59 H20       -26.1995    6.8988  -41.1592 H         1 GLN         0.0801
     60 H21       -26.4008    4.4387  -41.4608 H         1 GLN         0.0337
     61 H22       -24.7292    4.3915  -42.1166 H         1 GLN         0.0337
     62 H23       -25.3708    5.7256  -44.0289 H         1 GLN         0.0504
     63 H24       -27.0021    6.0207  -43.3373 H         1 GLN         0.0504
     64 H25       -27.6770    3.5704  -45.8525 H         1 GLN         0.1814
     65 H26       -27.3729    5.2636  -45.6515 H         1 GLN         0.1814
     66 H27       -24.2619    5.7167  -37.1852 H         1 HYP         0.0803
     67 H28       -25.9310    7.4594  -36.6878 H         1 HYP         0.0338
     68 H29       -26.4735    6.1078  -35.6363 H         1 HYP         0.0338
     69 H30       -27.9434    5.3906  -37.1081 H         1 HYP         0.0616
     70 H31       -27.5887    5.5047  -39.4612 H         1 HYP         0.0550
     71 H32       -27.0818    7.2268  -39.3949 H         1 HYP         0.0550
     72 H33       -28.5912    7.5430  -36.3020 H         1 HYP         0.2099
     73 H34       -23.9200    4.1007  -35.8245 H         1 1U8         0.1885
     74 H35       -25.5234    1.6511  -36.4484 H         1 1U8         0.0810
     75 H36       -23.5054    0.6193  -35.0327 H         1 1U8         0.0479
     76 H37       -22.6933    2.1790  -35.3994 H         1 1U8         0.0479
     77 H38       -26.4106    3.2399  -32.8147 H         1 1U8         0.0459
     78 H39       -26.8912    3.6989  -34.4835 H         1 1U8         0.0459
     79 H40       -25.3033    4.2255  -33.8292 H         1 1U8         0.0459
@<TRIPOS>BOND
     1    1    2 1  
     2    2    3 1  
     3    3    4 1  
     4    4    5 2  
     5    4    6 am 
     6    6    7 1  
     7    7    8 1  
     8    7   10 1  
     9    8    9 2  
    10    8   14 am 
    11   10   11 1  
    12   11   12 1  
    13   11   13 1  
    14   14   15 1  
    15   15   16 1  
    16   15   18 1  
    17   16   17 2  
    18   16   23 am 
    19   18   19 1  
    20   19   20 1  
    21   20   21 2  
    22   20   22 am 
    23   23   24 1  
    24   23   29 1  
    25   24   25 1  
    26   24   27 1  
    27   25   26 2  
    28   25   31 am 
    29   27   28 1  
    30   28   29 1  
    31   28   30 1  
    32   31   32 1  
    33   32   33 1  
    34   32   35 1  
    35   33   34 2  
    36   33   39 1  
    37   35   36 1  
    38   36   37 ar 
    39   36   38 ar 
    40    1   40 1  
    41    1   41 1  
    42    1   42 1  
    43    2   43 1  
    44    2   44 1  
    45    3   45 1  
    46    3   46 1  
    47    6   47 1  
    48    7   48 1  
    49   10   49 1  
    50   10   50 1  
    51   11   51 1  
    52   12   52 1  
    53   12   53 1  
    54   12   54 1  
    55   13   55 1  
    56   13   56 1  
    57   13   57 1  
    58   14   58 1  
    59   15   59 1  
    60   18   60 1  
    61   18   61 1  
    62   19   62 1  
    63   19   63 1  
    64   22   64 1  
    65   22   65 1  
    66   24   66 1  
    67   27   67 1  
    68   27   68 1  
    69   28   69 1  
    70   29   70 1  
    71   29   71 1  
    72   30   72 1  
    73   31   73 1  
    74   32   74 1  
    75   35   75 1  
    76   35   76 1  
    77   39   77 1  
    78   39   78 1  
    79   39   79 1  
@<TRIPOS>SUBSTRUCTURE
     1 BAL         1

