### 
### Created by X-TOOL on Mon Sep 10 21:13:20 2018
### 

@<TRIPOS>MOLECULE
4ps1_ligand
   79    79     1     0     0
SMALL
GAST_HUCK


@<TRIPOS>ATOM
      1 N         -42.6660   14.8920   26.3030 N.4       1 BAL         0.2202
      2 CB        -42.3210   16.2270   26.6800 C.3       1 BAL        -0.0184
      3 CA        -43.4710   17.1710   26.3890 C.3       1 BAL         0.0773
      4 C         -43.7140   17.2320   24.8830 C.2       1 BAL         0.1834
      5 O         -42.7490   17.4880   24.0940 O.2       1 BAL        -0.3967
      6 N         -44.8980   16.8810   24.3930 N.am      1 LEU        -0.2655
      7 CA        -45.3410   17.1060   23.0260 C.3       1 LEU         0.1311
      8 C         -45.0810   18.5200   22.5680 C.2       1 LEU         0.2039
      9 O         -45.2200   19.4680   23.3500 O.2       1 LEU        -0.3944
     10 CB        -46.8340   16.8370   22.8970 C.3       1 LEU        -0.0101
     11 CG        -47.3160   15.4080   23.0840 C.3       1 LEU        -0.0425
     12 CD1       -48.8280   15.3850   22.9450 C.3       1 LEU        -0.0625
     13 CD2       -46.6590   14.5340   22.0260 C.3       1 LEU        -0.0625
     14 N         -44.7440   18.6550   21.2840 N.am      1 GLN        -0.2636
     15 CA        -44.5550   19.9340   20.6440 C.3       1 GLN         0.1332
     16 C         -45.3220   19.9240   19.3540 C.2       1 GLN         0.2066
     17 O         -45.3230   18.9280   18.6360 O.2       1 GLN        -0.3942
     18 CB        -43.0800   20.1990   20.3570 C.3       1 GLN         0.0045
     19 CG        -42.2500   20.2290   21.6370 C.3       1 GLN         0.0412
     20 CD        -40.8060   20.5810   21.4040 C.2       1 GLN         0.1737
     21 OE1       -40.4050   20.9750   20.2980 O.2       1 GLN        -0.3973
     22 NE2       -39.9970   20.4550   22.4670 N.am      1 GLN        -0.3009
     23 N         -45.9470   21.0450   19.0250 N.am      1 HYP        -0.2473
     24 CA        -46.6130   21.1740   17.6190 C.3       1 HYP         0.1362
     25 C         -45.6850   21.4480   16.6150 C.2       1 HYP         0.2043
     26 O         -44.6350   22.1070   16.8680 O.2       1 HYP        -0.3944
     27 CB        -47.6200   22.3820   17.8410 C.3       1 HYP         0.0158
     28 CG        -47.5600   22.6940   19.0950 C.3       1 HYP         0.0799
     29 CD        -46.2230   22.1200   19.7050 C.3       1 HYP         0.0629
     30 OD1       -48.6700   21.9770   19.8130 O.3       1 HYP        -0.3896
     31 N         -45.9750   20.9850   15.3800 N.am      1 1U8        -0.2633
     32 CA        -45.2310   21.3720   14.1650 C.3       1 1U8         0.1259
     33 C         -45.9930   22.4360   13.3950 C.2       1 1U8         0.1289
     34 O         -45.8260   22.6440   12.2000 O.2       1 1U8        -0.3893
     35 CB        -45.0560   20.1170   13.3100 C.3       1 1U8         0.0395
     36 CG        -43.8030   19.3580   13.7070 C.2       1 1U8         0.0393
     37 OD1       -43.7150   18.1610   13.3540 O.co2     1 1U8        -0.5688
     38 OD2       -42.8760   19.9810   14.3180 O.co2     1 1U8        -0.5688
     39 C9        -46.9830   23.2900   14.1390 C.3       1 1U8         0.0119
     40 H1        -41.8931   14.2763   26.5020 H         1 BAL         0.1996
     41 H2        -42.8725   14.8641   25.3168 H         1 BAL         0.1996
     42 H3        -43.4756   14.5942   26.8244 H         1 BAL         0.1996
     43 H4        -41.4360   16.5474   26.1108 H         1 BAL         0.0839
     44 H5        -42.0941   16.2528   27.7560 H         1 BAL         0.0839
     45 H6        -43.2229   18.1761   26.7609 H         1 BAL         0.0556
     46 H7        -44.3793   16.8077   26.8920 H         1 BAL         0.0556
     47 H8        -45.5359   16.4255   25.0140 H         1 LEU         0.1883
     48 H9        -44.7932   16.4151   22.3684 H         1 LEU         0.0800
     49 H10       -47.1390   17.1567   21.8897 H         1 LEU         0.0315
     50 H11       -47.3450   17.4564   23.6488 H         1 LEU         0.0315
     51 H12       -47.0351   15.0457   24.0839 H         1 LEU         0.0298
     52 H13       -49.1928   14.3558   23.0780 H         1 LEU         0.0232
     53 H14       -49.1099   15.7476   21.9455 H         1 LEU         0.0232
     54 H15       -49.2766   16.0348   23.7108 H         1 LEU         0.0232
     55 H16       -45.5664   14.5683   22.1489 H         1 LEU         0.0232
     56 H17       -46.9273   14.9048   21.0257 H         1 LEU         0.0232
     57 H18       -47.0082   13.4970   22.1385 H         1 LEU         0.0232
     58 H19       -44.6159   17.8274   20.7375 H         1 GLN         0.1883
     59 H20       -44.9412   20.7291   21.2987 H         1 GLN         0.0801
     60 H21       -42.9850   21.1697   19.8483 H         1 GLN         0.0337
     61 H22       -42.6960   19.4028   19.7023 H         1 GLN         0.0337
     62 H23       -42.2954   19.2348   22.1055 H         1 GLN         0.0504
     63 H24       -42.6854   20.9754   22.3177 H         1 GLN         0.0504
     64 H25       -39.0244   20.6721   22.3837 H         1 GLN         0.1814
     65 H26       -40.3666   20.1439   23.3426 H         1 GLN         0.1814
     66 H27       -47.1563   20.2537   17.3587 H         1 HYP         0.0803
     67 H28       -48.6427   22.0759   17.5757 H         1 HYP         0.0338
     68 H29       -47.3223   23.2415   17.2225 H         1 HYP         0.0338
     69 H30       -47.6281   23.7834   19.2311 H         1 HYP         0.0616
     70 H31       -45.4109   22.8549   19.6032 H         1 HYP         0.0550
     71 H32       -46.3635   21.8736   20.7678 H         1 HYP         0.0550
     72 H33       -49.5074   22.2834   19.4854 H         1 HYP         0.2099
     73 H34       -46.7364   20.3440   15.2830 H         1 1U8         0.1885
     74 H35       -44.2442   21.7685   14.4460 H         1 1U8         0.0810
     75 H36       -44.9790   20.4101   12.2526 H         1 1U8         0.0479
     76 H37       -45.9305   19.4639   13.4467 H         1 1U8         0.0479
     77 H38       -47.4459   24.0054   13.4433 H         1 1U8         0.0459
     78 H39       -46.4651   23.8394   14.9390 H         1 1U8         0.0459
     79 H40       -47.7620   22.6498   14.5787 H         1 1U8         0.0459
@<TRIPOS>BOND
     1    1    2 1  
     2    2    3 1  
     3    3    4 1  
     4    4    5 2  
     5    4    6 am 
     6    6    7 1  
     7    7    8 1  
     8    7   10 1  
     9    8    9 2  
    10    8   14 am 
    11   10   11 1  
    12   11   12 1  
    13   11   13 1  
    14   14   15 1  
    15   15   16 1  
    16   15   18 1  
    17   16   17 2  
    18   16   23 am 
    19   18   19 1  
    20   19   20 1  
    21   20   21 2  
    22   20   22 am 
    23   23   24 1  
    24   23   29 1  
    25   24   25 1  
    26   24   27 1  
    27   25   26 2  
    28   25   31 am 
    29   27   28 1  
    30   28   29 1  
    31   28   30 1  
    32   31   32 1  
    33   32   33 1  
    34   32   35 1  
    35   33   34 2  
    36   33   39 1  
    37   35   36 1  
    38   36   37 ar 
    39   36   38 ar 
    40    1   40 1  
    41    1   41 1  
    42    1   42 1  
    43    2   43 1  
    44    2   44 1  
    45    3   45 1  
    46    3   46 1  
    47    6   47 1  
    48    7   48 1  
    49   10   49 1  
    50   10   50 1  
    51   11   51 1  
    52   12   52 1  
    53   12   53 1  
    54   12   54 1  
    55   13   55 1  
    56   13   56 1  
    57   13   57 1  
    58   14   58 1  
    59   15   59 1  
    60   18   60 1  
    61   18   61 1  
    62   19   62 1  
    63   19   63 1  
    64   22   64 1  
    65   22   65 1  
    66   24   66 1  
    67   27   67 1  
    68   27   68 1  
    69   28   69 1  
    70   29   70 1  
    71   29   71 1  
    72   30   72 1  
    73   31   73 1  
    74   32   74 1  
    75   35   75 1  
    76   35   76 1  
    77   39   77 1  
    78   39   78 1  
    79   39   79 1  
@<TRIPOS>SUBSTRUCTURE
     1 BAL         1

