### 
### Created by X-TOOL on Mon Sep 10 21:13:19 2018
### 

@<TRIPOS>MOLECULE
4ps3_ligand
   55    58     1     0     0
SMALL
GAST_HUCK


@<TRIPOS>ATOM
      1 C1         12.9370   57.6560   22.1700 C.3       1 2WH        -0.0627
      2 C2         11.5550   57.8820   21.5520 C.3       1 2WH        -0.0278
      3 C3         11.3410   59.3100   21.0820 C.3       1 2WH         0.0553
      4 N4         11.3630   60.2260   22.2060 N.pl3     1 2WH        -0.2610
      5 C5         12.0760   61.3970   22.2460 C.2       1 2WH         0.0318
      6 C6         11.8110   61.9270   23.4560 C.2       1 2WH        -0.0051
      7 N7         10.9600   61.1140   24.1250 N.2       1 2WH        -0.3252
      8 C8         10.6870   60.0780   23.3700 C.2       1 2WH         0.0931
      9 C9         12.3590   63.2210   23.9780 C.3       1 2WH        -0.0060
     10 C10        13.7190   63.4840   23.3410 C.3       1 2WH         0.0381
     11 N11        14.6480   62.6160   24.0560 N.am      1 2WH        -0.2639
     12 C12        15.9320   62.5220   23.6810 C.2       1 2WH         0.3029
     13 O13        16.3280   63.2060   22.7450 O.2       1 2WH        -0.3848
     14 N14        16.7450   61.6670   24.3560 N.am      1 2WH        -0.1736
     15 C15        18.0670   61.4730   23.9830 C.2       1 2WH         0.2132
     16 N16        18.8200   60.5220   24.4200 N.2       1 2WH        -0.3075
     17 C17        20.0750   60.4590   23.9450 C.ar      1 2WH         0.0088
     18 C18        21.1010   59.5680   24.2760 C.ar      1 2WH        -0.0622
     19 C19        22.3110   59.7200   23.6710 C.ar      1 2WH        -0.0665
     20 C20        22.5830   60.7180   22.7200 C.ar      1 2WH        -0.0267
     21 C21        21.5780   61.5780   22.3740 C.ar      1 2WH        -0.0443
     22 C22        20.3470   61.4540   22.9950 C.ar      1 2WH         0.0497
     23 S23        18.9120   62.4280   22.7680 S.3       1 2WH         0.0308
     24 C24        23.8970   60.8430   22.0550 C.ar      1 2WH        -0.0069
     25 C25        24.0300   61.5360   20.8390 C.ar      1 2WH        -0.0093
     26 C26        25.3090   61.5990   20.2340 C.ar      1 2WH         0.1168
     27 C27        26.4020   60.9800   20.8460 C.ar      1 2WH         0.0377
     28 N28        26.2350   60.3390   21.9920 N.ar      1 2WH        -0.3082
     29 C29        25.0480   60.2490   22.6000 C.ar      1 2WH         0.0048
     30 O30        25.5150   62.2560   19.0570 O.3       1 2WH        -0.3141
     31 C31        24.5230   62.1230   18.0380 C.3       1 2WH         0.0611
     32 H          13.0290   56.6073   22.4889 H         1 2WH         0.0231
     33 H          13.0617   58.3163   23.0409 H         1 2WH         0.0231
     34 H          13.7135   57.8819   21.4244 H         1 2WH         0.0231
     35 H          10.7906   57.6430   22.3060 H         1 2WH         0.0290
     36 H          11.4424   57.2087   20.6895 H         1 2WH         0.0290
     37 H          10.3669   59.3820   20.5761 H         1 2WH         0.0619
     38 H          12.1409   59.5826   20.3779 H         1 2WH         0.0619
     39 H          12.7173   61.8091   21.4683 H         1 2WH         0.0731
     40 H          10.0336   59.2471   23.6318 H         1 2WH         0.1201
     41 H          12.4705   63.1590   25.0706 H         1 2WH         0.0392
     42 H          11.6701   64.0406   23.7256 H         1 2WH         0.0392
     43 H          14.0049   64.5392   23.4628 H         1 2WH         0.0534
     44 H          13.6997   63.2305   22.2708 H         1 2WH         0.0534
     45 H          14.3226   62.0833   24.8372 H         1 2WH         0.1858
     46 H          16.3811   61.1654   25.1409 H         1 2WH         0.2455
     47 H          20.9367   58.7754   24.9970 H         1 2WH         0.0535
     48 H          23.1073   59.0344   23.9372 H         1 2WH         0.0561
     49 H          21.7425   62.3446   21.6254 H         1 2WH         0.0570
     50 H          23.1732   62.0112   20.3751 H         1 2WH         0.0646
     51 H          27.3819   61.0245   20.3846 H         1 2WH         0.0735
     52 H          24.9715   59.7054   23.5347 H         1 2WH         0.0724
     53 H          24.8248   62.7045   17.1544 H         1 2WH         0.0580
     54 H          23.5596   62.4990   18.4128 H         1 2WH         0.0580
     55 H          24.4206   61.0631   17.7620 H         1 2WH         0.0580
@<TRIPOS>BOND
     1    1    2 1  
     2    2    3 1  
     3    3    4 1  
     4    4    5 1  
     5    4    8 1  
     6    5    6 2  
     7    6    7 1  
     8    6    9 1  
     9    7    8 2  
    10    9   10 1  
    11   10   11 1  
    12   11   12 am 
    13   12   13 2  
    14   12   14 am 
    15   14   15 1  
    16   15   16 2  
    17   15   23 1  
    18   16   17 1  
    19   17   18 ar 
    20   17   22 ar 
    21   18   19 ar 
    22   19   20 ar 
    23   20   21 ar 
    24   20   24 1  
    25   21   22 ar 
    26   22   23 1  
    27   24   25 ar 
    28   24   29 ar 
    29   25   26 ar 
    30   26   27 ar 
    31   26   30 1  
    32   27   28 ar 
    33   28   29 ar 
    34   30   31 1  
    35    1   32 1  
    36    1   33 1  
    37    1   34 1  
    38    2   35 1  
    39    2   36 1  
    40    3   37 1  
    41    3   38 1  
    42    5   39 1  
    43    8   40 1  
    44    9   41 1  
    45    9   42 1  
    46   10   43 1  
    47   10   44 1  
    48   11   45 1  
    49   14   46 1  
    50   18   47 1  
    51   19   48 1  
    52   21   49 1  
    53   25   50 1  
    54   27   51 1  
    55   29   52 1  
    56   31   53 1  
    57   31   54 1  
    58   31   55 1  
@<TRIPOS>SUBSTRUCTURE
     1 2WH         1

