### 
### Created by X-TOOL on Mon Sep 10 21:13:16 2018
### 

@<TRIPOS>MOLECULE
4ps5_ligand
   74    77     1     0     0
SMALL
GAST_HUCK


@<TRIPOS>ATOM
      1 CAQ        29.9340   12.0330   29.8400 C.3       1 2TA        -0.0316
      2 CAR        29.2680   11.1820   28.7470 C.3       1 2TA        -0.0077
      3 CAS        28.0980   10.5050   29.4710 C.3       1 2TA        -0.0077
      4 CAT        27.6290   11.5970   30.4400 C.3       1 2TA        -0.0316
      5 NAP        28.8720   12.3000   30.8400 N.4       1 2TA         0.2371
      6 CAO        28.7540   13.6970   31.3550 C.3       1 2TA        -0.0038
      7 CAN        27.6930   13.9360   32.4510 C.3       1 2TA         0.1077
      8 OAM        27.7560   12.8700   33.4200 O.3       1 2TA        -0.3201
      9 CAJ        26.6190   12.7240   34.1840 C.ar      1 2TA         0.0798
     10 CAK        26.2280   11.4390   34.6090 C.ar      1 2TA        -0.0421
     11 CAL        25.0690   11.2480   35.3880 C.ar      1 2TA        -0.0465
     12 CAI        25.8350   13.8330   34.5600 C.ar      1 2TA        -0.0421
     13 CAH        24.6860   13.6460   35.3450 C.ar      1 2TA        -0.0465
     14 CAG        24.2790   12.3570   35.7670 C.ar      1 2TA         0.0534
     15 NAF        23.1540   12.1850   36.5310 N.pl3     1 2TA        -0.2540
     16 C2         22.4650   11.1200   37.0070 C.ar      1 2TA         0.1860
     17 N3         22.7440    9.8670   36.5610 N.ar      1 2TA        -0.2417
     18 N1         21.4910   11.2700   37.9340 N.ar      1 2TA        -0.2781
     19 C6         20.7810   10.2300   38.4190 C.ar      1 2TA         0.0018
     20 C5         21.0430    8.9180   37.9700 C.ar      1 2TA         0.0148
     21 CAA        20.2570    7.7750   38.5080 C.3       1 2TA        -0.0289
     22 C4         22.0760    8.7690   37.0010 C.ar      1 2TA         0.1373
     23 NAW        22.3710    7.5230   36.5420 N.pl3     1 2TA        -0.2584
     24 CAX        23.1410    7.1280   35.4760 C.ar      1 2TA         0.0646
     25 CBC        23.5320    7.9300   34.3820 C.ar      1 2TA        -0.0120
     26 CAY        23.5660    5.7790   35.5010 C.ar      1 2TA        -0.0384
     27 CAZ        24.3410    5.2230   34.4660 C.ar      1 2TA        -0.0697
     28 CBA        24.7160    6.0290   33.3800 C.ar      1 2TA        -0.0469
     29 CBB        24.3030    7.3750   33.3410 C.ar      1 2TA         0.0987
     30 SBD        24.7670    8.3900   31.9810 S.o2      1 2TA         0.0661
     31 OBJ        25.9480    9.3430   32.4380 O.2       1 2TA        -0.1505
     32 OBK        25.1760    7.4570   30.7800 O.2       1 2TA        -0.1505
     33 NBE        23.4200    9.4280   31.5040 N.am      1 2TA        -0.2423
     34 CBF        22.4040    8.9850   30.5020 C.3       1 2TA         0.0405
     35 CBH        21.2490   10.0200   30.6030 C.3       1 2TA        -0.0430
     36 CBI        21.8160    7.5730   30.8010 C.3       1 2TA        -0.0430
     37 CBG        22.9930    9.0550   29.0630 C.3       1 2TA        -0.0430
     38 H          30.3089   12.9766   29.4169 H         1 2TA         0.0814
     39 H          30.7664   11.4819   30.3019 H         1 2TA         0.0814
     40 H          29.9699   10.4331   28.3516 H         1 2TA         0.0319
     41 H          28.9055   11.8154   27.9240 H         1 2TA         0.0319
     42 H          28.4320    9.6087   30.0141 H         1 2TA         0.0319
     43 H          27.2998   10.2302   28.7657 H         1 2TA         0.0319
     44 H          27.1349   11.1525   31.3165 H         1 2TA         0.0814
     45 H          26.9354   12.2887   29.9396 H         1 2TA         0.0814
     46 H          29.1783   11.7965   31.6577 H         1 2TA         0.2034
     47 H          28.5082   14.3483   30.5033 H         1 2TA         0.0841
     48 H          29.7321   13.9858   31.7672 H         1 2TA         0.0841
     49 H          26.6925   13.9581   31.9945 H         1 2TA         0.0663
     50 H          27.8901   14.8967   32.9492 H         1 2TA         0.0663
     51 H          26.8298   10.5811   34.3317 H         1 2TA         0.0515
     52 H          24.7831   10.2490   35.6969 H         1 2TA         0.0510
     53 H          26.1189   14.8301   34.2433 H         1 2TA         0.0515
     54 H          24.0967   14.5085   35.6348 H         1 2TA         0.0510
     55 H          22.7304   13.0813   36.8105 H         1 2TA         0.2129
     56 H          20.0059   10.4031   39.1568 H         1 2TA         0.0776
     57 H          19.5231    8.1462   39.2385 H         1 2TA         0.0368
     58 H          20.9356    7.0625   38.9997 H         1 2TA         0.0368
     59 H          19.7311    7.2713   37.6836 H         1 2TA         0.0368
     60 H          21.9493    6.7526   37.0802 H         1 2TA         0.2145
     61 H          23.2391    8.9730   34.3427 H         1 2TA         0.0554
     62 H          23.2865    5.1550   36.3422 H         1 2TA         0.0535
     63 H          24.6450    4.1833   34.5072 H         1 2TA         0.0588
     64 H          25.3186    5.6189   32.5777 H         1 2TA         0.0537
     65 H          23.3351   10.3356   31.9151 H         1 2TA         0.1678
     66 H          20.4565    9.7561   29.8872 H         1 2TA         0.0250
     67 H          21.6344   11.0235   30.3697 H         1 2TA         0.0250
     68 H          20.8385   10.0130   31.6235 H         1 2TA         0.0250
     69 H          21.0785    7.3117   30.0278 H         1 2TA         0.0250
     70 H          21.3271    7.5805   31.7864 H         1 2TA         0.0250
     71 H          22.6273    6.8302   30.7998 H         1 2TA         0.0250
     72 H          22.2328    8.7259   28.3393 H         1 2TA         0.0250
     73 H          23.8729    8.3984   28.9946 H         1 2TA         0.0250
     74 H          23.2895   10.0901   28.8381 H         1 2TA         0.0250
@<TRIPOS>BOND
     1    1    2 1  
     2    1    5 1  
     3    2    3 1  
     4    3    4 1  
     5    4    5 1  
     6    5    6 1  
     7    6    7 1  
     8    7    8 1  
     9    8    9 1  
    10    9   10 ar 
    11    9   12 ar 
    12   10   11 ar 
    13   11   14 ar 
    14   12   13 ar 
    15   13   14 ar 
    16   14   15 1  
    17   15   16 1  
    18   16   17 ar 
    19   16   18 ar 
    20   17   22 ar 
    21   18   19 ar 
    22   19   20 ar 
    23   20   21 1  
    24   20   22 ar 
    25   22   23 1  
    26   23   24 1  
    27   24   25 ar 
    28   24   26 ar 
    29   25   29 ar 
    30   26   27 ar 
    31   27   28 ar 
    32   28   29 ar 
    33   29   30 1  
    34   30   31 2  
    35   30   32 2  
    36   30   33 am 
    37   33   34 1  
    38   34   35 1  
    39   34   36 1  
    40   34   37 1  
    41    1   38 1  
    42    1   39 1  
    43    2   40 1  
    44    2   41 1  
    45    3   42 1  
    46    3   43 1  
    47    4   44 1  
    48    4   45 1  
    49    5   46 1  
    50    6   47 1  
    51    6   48 1  
    52    7   49 1  
    53    7   50 1  
    54   10   51 1  
    55   11   52 1  
    56   12   53 1  
    57   13   54 1  
    58   15   55 1  
    59   19   56 1  
    60   21   57 1  
    61   21   58 1  
    62   21   59 1  
    63   23   60 1  
    64   25   61 1  
    65   26   62 1  
    66   27   63 1  
    67   28   64 1  
    68   33   65 1  
    69   35   66 1  
    70   35   67 1  
    71   35   68 1  
    72   36   69 1  
    73   36   70 1  
    74   36   71 1  
    75   37   72 1  
    76   37   73 1  
    77   37   74 1  
@<TRIPOS>SUBSTRUCTURE
     1 2TA         1

