### 
### Created by X-TOOL on Mon Sep 10 21:13:19 2018
### 

@<TRIPOS>MOLECULE
4ps7_ligand
   30    32     1     0     0
SMALL
GAST_HUCK


@<TRIPOS>ATOM
      1 C1         14.3590   62.7310   23.4250 C.3       1 2WJ         0.0345
      2 C2         15.8190   62.7030   23.0420 C.2       1 2WJ         0.2153
      3 O3         16.2100   63.4750   22.1950 O.2       1 2WJ        -0.3786
      4 N4         16.6580   61.8250   23.6610 N.am      1 2WJ        -0.1886
      5 C5         18.0160   61.6340   23.4120 C.2       1 2WJ         0.2131
      6 N6         18.7410   60.7780   24.0690 N.2       1 2WJ        -0.3070
      7 C7         20.0280   60.6600   23.7270 C.ar      1 2WJ         0.0091
      8 C8         21.0090   59.8160   24.2630 C.ar      1 2WJ        -0.0621
      9 C9         22.2890   59.8330   23.7650 C.ar      1 2WJ        -0.0663
     10 C10        22.6370   60.6940   22.7180 C.ar      1 2WJ        -0.0238
     11 C11        21.6770   61.5380   22.1850 C.ar      1 2WJ        -0.0440
     12 C12        20.3880   61.5290   22.6800 C.ar      1 2WJ         0.0498
     13 S13        18.9800   62.4730   22.1900 S.3       1 2WJ         0.0311
     14 C14        23.9970   60.7100   22.1300 C.ar      1 2WJ         0.0024
     15 C15        24.1820   61.2290   20.8230 C.ar      1 2WJ        -0.0374
     16 C16        25.4580   61.2200   20.2480 C.ar      1 2WJ        -0.0354
     17 C17        26.5150   60.6910   20.9660 C.ar      1 2WJ         0.0094
     18 N18        26.2900   60.1910   22.1760 N.ar      1 2WJ        -0.2981
     19 C19        25.1020   60.1660   22.7740 C.ar      1 2WJ         0.0163
     20 H          14.1689   61.9746   24.2007 H         1 2WJ         0.0475
     21 H          13.7435   62.5114   22.5402 H         1 2WJ         0.0475
     22 H          14.1008   63.7273   23.8133 H         1 2WJ         0.0475
     23 H          16.2534   61.2531   24.3746 H         1 2WJ         0.2455
     24 H          20.7564   59.1451   25.0761 H         1 2WJ         0.0535
     25 H          23.0376   59.1725   24.1874 H         1 2WJ         0.0561
     26 H          21.9389   62.2091   21.3750 H         1 2WJ         0.0570
     27 H          23.3392   61.6307   20.2721 H         1 2WJ         0.0728
     28 H          25.6156   61.6221   19.2537 H         1 2WJ         0.0705
     29 H          27.5146   60.6844   20.5467 H         1 2WJ         0.0808
     30 H          24.9963   59.7238   23.7581 H         1 2WJ         0.0818
@<TRIPOS>BOND
     1    1    2 1  
     2    2    3 2  
     3    2    4 am 
     4    4    5 1  
     5    5    6 2  
     6    5   13 1  
     7    6    7 1  
     8    7    8 ar 
     9    7   12 ar 
    10    8    9 ar 
    11    9   10 ar 
    12   10   11 ar 
    13   10   14 1  
    14   11   12 ar 
    15   12   13 1  
    16   14   15 ar 
    17   14   19 ar 
    18   15   16 ar 
    19   16   17 ar 
    20   17   18 ar 
    21   18   19 ar 
    22    1   20 1  
    23    1   21 1  
    24    1   22 1  
    25    4   23 1  
    26    8   24 1  
    27    9   25 1  
    28   11   26 1  
    29   15   27 1  
    30   16   28 1  
    31   17   29 1  
    32   19   30 1  
@<TRIPOS>SUBSTRUCTURE
     1 2WJ         1

