### 
### Created by X-TOOL on Mon Sep 10 21:13:18 2018
### 

@<TRIPOS>MOLECULE
4ps8_ligand
   38    40     1     0     0
SMALL
GAST_HUCK


@<TRIPOS>ATOM
      1 C1         14.1620   62.8420   23.6670 C.3       1 2WK         0.0344
      2 C2         15.6100   62.8520   23.3040 C.2       1 2WK         0.2151
      3 O3         15.9800   63.7080   22.5170 O.2       1 2WK        -0.3787
      4 N4         16.4130   61.9230   23.8960 N.am      1 2WK        -0.1890
      5 C5         17.7700   61.7140   23.6550 C.2       1 2WK         0.2124
      6 N6         18.4850   60.7760   24.1930 N.2       1 2WK        -0.3082
      7 C7         19.7690   60.6840   23.7820 C.ar      1 2WK         0.0076
      8 C8         20.7790   59.7770   24.1830 C.ar      1 2WK        -0.0635
      9 C9         22.0330   59.8460   23.6590 C.ar      1 2WK        -0.0688
     10 C10        22.3790   60.8190   22.7030 C.ar      1 2WK        -0.0334
     11 C11        21.4110   61.7120   22.2750 C.ar      1 2WK        -0.0468
     12 C12        20.1270   61.6460   22.8180 C.ar      1 2WK         0.0482
     13 S13        18.7210   62.6410   22.4930 S.3       1 2WK         0.0303
     14 C14        23.7290   60.8170   22.0890 C.ar      1 2WK        -0.0183
     15 C15        23.8420   61.2770   20.7660 C.ar      1 2WK        -0.0168
     16 C16        25.0830   61.2440   20.1370 C.ar      1 2WK         0.1478
     17 C17        26.1940   60.6950   20.8270 C.ar      1 2WK         0.1953
     18 N18        26.0370   60.2310   22.0740 N.ar      1 2WK        -0.2845
     19 C19        24.8640   60.2610   22.7030 C.ar      1 2WK        -0.0062
     20 O20        27.4320   60.6480   20.2400 O.3       1 2WK        -0.3066
     21 C21        28.1360   59.4060   20.2550 C.3       1 2WK         0.0607
     22 O22        25.1750   61.7160   18.8640 O.3       1 2WK        -0.3172
     23 C23        25.1480   63.1230   18.6240 C.3       1 2WK         0.0587
     24 H          13.9680   62.0258   24.3785 H         1 2WK         0.0475
     25 H          13.5578   62.6896   22.7606 H         1 2WK         0.0475
     26 H          13.8933   63.8032   24.1295 H         1 2WK         0.0475
     27 H          15.9829   61.3283   24.5753 H         1 2WK         0.2452
     28 H          20.5499   59.0152   24.9193 H         1 2WK         0.0532
     29 H          22.7830   59.1348   23.9857 H         1 2WK         0.0549
     30 H          21.6487   62.4566   21.5239 H         1 2WK         0.0556
     31 H          22.9717   61.6536   20.2409 H         1 2WK         0.0610
     32 H          24.7834   59.8506   23.7031 H         1 2WK         0.0687
     33 H          29.1055   59.5280   19.7498 H         1 2WK         0.0579
     34 H          27.5430   58.6420   19.7309 H         1 2WK         0.0579
     35 H          28.3020   59.0912   21.2958 H         1 2WK         0.0579
     36 H          25.2332   63.3124   17.5438 H         1 2WK         0.0576
     37 H          25.9895   63.6005   19.1474 H         1 2WK         0.0576
     38 H          24.2006   63.5403   18.9958 H         1 2WK         0.0576
@<TRIPOS>BOND
     1    1    2 1  
     2    2    3 2  
     3    2    4 am 
     4    4    5 1  
     5    5    6 2  
     6    5   13 1  
     7    6    7 1  
     8    7    8 ar 
     9    7   12 ar 
    10    8    9 ar 
    11    9   10 ar 
    12   10   11 ar 
    13   10   14 1  
    14   11   12 ar 
    15   12   13 1  
    16   14   15 ar 
    17   14   19 ar 
    18   15   16 ar 
    19   16   17 ar 
    20   16   22 1  
    21   17   18 ar 
    22   17   20 1  
    23   18   19 ar 
    24   20   21 1  
    25   22   23 1  
    26    1   24 1  
    27    1   25 1  
    28    1   26 1  
    29    4   27 1  
    30    8   28 1  
    31    9   29 1  
    32   11   30 1  
    33   15   31 1  
    34   19   32 1  
    35   21   33 1  
    36   21   34 1  
    37   21   35 1  
    38   23   36 1  
    39   23   37 1  
    40   23   38 1  
@<TRIPOS>SUBSTRUCTURE
     1 2WK         1

