### 
### Created by X-TOOL on Mon Sep 10 21:13:16 2018
### 

@<TRIPOS>MOLECULE
4psb_ligand
   46    50     1     0     0
SMALL
GAST_HUCK


@<TRIPOS>ATOM
      1 O71         8.3730    0.3100   20.6800 O.co2     1 GA3        -0.5687
      2 C7          9.1680    0.5860   19.7500 C.2       1 GA3         0.0376
      3 O72         8.8090    0.8830   18.5920 O.co2     1 GA3        -0.5687
      4 C6         10.6670    0.6050   20.0080 C.3       1 GA3         0.0118
      5 C5         11.5730    0.2580   18.8180 C.3       1 GA3        -0.0138
      6 C8         11.0670    2.0580   20.3640 C.3       1 GA3        -0.0191
      7 C15        10.1960    3.2130   19.8430 C.3       1 GA3        -0.0139
      8 C16        10.5780    4.3280   20.7710 C.2       1 GA3        -0.0329
      9 C17        10.4490    5.6250   20.5620 C.2       1 GA3        -0.0406
     10 C13        11.3450    3.7790   21.9620 C.3       1 GA3         0.0482
     11 C14        11.0300    2.2750   21.8780 C.3       1 GA3        -0.0471
     12 O13        11.0740    4.4120   23.2290 O.3       1 GA3        -0.4347
     13 C12        12.8550    3.9470   21.7240 C.3       1 GA3        -0.0563
     14 C11        13.4190    2.6910   21.0560 C.3       1 GA3        -0.0653
     15 C9         12.5240    2.2820   19.8850 C.3       1 GA3        -0.0412
     16 C10        12.8810    0.9480   19.2520 C.3       1 GA3         0.0629
     17 O92        13.3750   -0.0620   20.2330 O.3       1 GA3        -0.3321
     18 C1         13.9170    0.9280   18.1690 C.2       1 GA3        -0.0529
     19 C2         13.9880   -0.1540   17.3950 C.2       1 GA3         0.0140
     20 C3         13.0150   -1.3060   17.4570 C.3       1 GA3         0.1431
     21 O31        12.3110   -1.2980   16.2220 O.3       1 GA3        -0.3589
     22 C4         12.0640   -1.2080   18.6800 C.3       1 GA3         0.1066
     23 C18        10.9890   -2.2950   18.6980 C.3       1 GA3        -0.0456
     24 C19        12.9440   -1.3110   19.9060 C.2       1 GA3         0.2557
     25 O91        13.2400   -2.2680   20.5490 O.2       1 GA3        -0.3128
     26 H          10.8854   -0.0798   20.8407 H         1 GA3         0.0463
     27 H          11.1458    0.6249   17.8731 H         1 GA3         0.0198
     28 H           9.1251    2.9747   19.9228 H         1 GA3         0.0432
     29 H          10.4400    3.4594   18.7991 H         1 GA3         0.0432
     30 H           9.8923    5.9846   19.6979 H         1 GA3         0.1257
     31 H          10.8993    6.3354   21.2537 H         1 GA3         0.1257
     32 H          11.7932    1.6723   22.3920 H         1 GA3         0.0175
     33 H          10.0387    2.0452   22.2957 H         1 GA3         0.0175
     34 H          10.1509    4.3234   23.4349 H         1 GA3         0.1919
     35 H          13.3608    4.1061   22.6877 H         1 GA3         0.0167
     36 H          13.0272    4.8158   21.0717 H         1 GA3         0.0167
     37 H          13.4571    1.8726   21.7899 H         1 GA3         0.0249
     38 H          14.4336    2.8986   20.6852 H         1 GA3         0.0249
     39 H          12.5642    3.0769   19.1257 H         1 GA3         0.0189
     40 H          14.5901    1.7709   18.0196 H         1 GA3         0.0491
     41 H          14.7999   -0.2108   16.6714 H         1 GA3         0.1556
     42 H          13.5780   -2.2471   17.5427 H         1 GA3         0.1020
     43 H          12.9267   -1.4084   15.5071 H         1 GA3         0.2177
     44 H          10.3532   -2.1672   19.5865 H         1 GA3         0.0225
     45 H          11.4685   -3.2845   18.7295 H         1 GA3         0.0225
     46 H          10.3718   -2.2154   17.7910 H         1 GA3         0.0225
@<TRIPOS>BOND
     1    1    2 ar 
     2    2    3 ar 
     3    2    4 1  
     4    4    5 1  
     5    4    6 1  
     6    5   16 1  
     7    5   22 1  
     8    6    7 1  
     9    6   11 1  
    10    6   15 1  
    11    7    8 1  
    12    8    9 2  
    13    8   10 1  
    14   10   11 1  
    15   10   12 1  
    16   10   13 1  
    17   13   14 1  
    18   14   15 1  
    19   15   16 1  
    20   16   17 1  
    21   16   18 1  
    22   17   24 1  
    23   18   19 2  
    24   19   20 1  
    25   20   21 1  
    26   20   22 1  
    27   22   23 1  
    28   22   24 1  
    29   24   25 2  
    30    4   26 1  
    31    5   27 1  
    32    7   28 1  
    33    7   29 1  
    34    9   30 1  
    35    9   31 1  
    36   11   32 1  
    37   11   33 1  
    38   12   34 1  
    39   13   35 1  
    40   13   36 1  
    41   14   37 1  
    42   14   38 1  
    43   15   39 1  
    44   18   40 1  
    45   19   41 1  
    46   20   42 1  
    47   21   43 1  
    48   23   44 1  
    49   23   45 1  
    50   23   46 1  
@<TRIPOS>SUBSTRUCTURE
     1 GA3         1

