### 
### Created by X-TOOL on Mon Sep 10 21:13:17 2018
### 

@<TRIPOS>MOLECULE
4psh_ligand
   27    26     1     0     0
SMALL
GAST_HUCK


@<TRIPOS>ATOM
      1 N          19.1590   14.3200   81.2860 N.4       1 ARG         0.2327
      2 CA         19.2320   14.8310   79.9200 C.3       1 ARG         0.0284
      3 C          18.5390   13.8740   78.9940 C.2       1 ARG         0.0844
      4 O          18.2190   12.7170   79.3310 O.co2     1 ARG        -0.5643
      5 CB         20.6670   14.9650   79.3860 C.3       1 ARG         0.0055
      6 CG         21.7110   14.3210   80.2330 C.3       1 ARG        -0.0131
      7 CD         22.6360   13.3000   79.5950 C.3       1 ARG         0.0628
      8 NE         23.7530   13.8430   78.8370 N.pl3     1 ARG        -0.2723
      9 CZ         24.9760   13.3060   78.7280 C.cat     1 ARG         0.2882
     10 NH1        25.3500   12.2110   79.3760 N.pl3     1 ARG        -0.2849
     11 NH2        25.8670   13.9180   77.9430 N.pl3     1 ARG        -0.2849
     12 OXT        18.2960   14.2600   77.8520 O.co2     1 ARG        -0.5643
     13 H          19.6238   14.9610   81.9098 H         1 ARG         0.2010
     14 H          19.6098   13.4196   81.3325 H         1 ARG         0.2010
     15 H          18.1931   14.2267   81.5587 H         1 ARG         0.2010
     16 H          18.7395   15.8140   79.8870 H         1 ARG         0.1024
     17 H          20.9039   16.0362   79.3060 H         1 ARG         0.0340
     18 H          20.7050   14.5055   78.3873 H         1 ARG         0.0340
     19 H          21.1912   13.8154   81.0601 H         1 ARG         0.0302
     20 H          22.3442   15.1256   80.6351 H         1 ARG         0.0302
     21 H          22.0353   12.6801   78.9132 H         1 ARG         0.0689
     22 H          23.0474   12.6697   80.3972 H         1 ARG         0.0689
     23 H          23.5875   14.7270   78.3349 H         1 ARG         0.2642
     24 H          26.3038   11.8414   79.2550 H         1 ARG         0.2615
     25 H          24.6867   11.7302   80.0003 H         1 ARG         0.2615
     26 H          25.6011   14.7701   77.4291 H         1 ARG         0.2615
     27 H          26.8199   13.5378   77.8517 H         1 ARG         0.2615
@<TRIPOS>BOND
     1    1    2 1  
     2    2    3 1  
     3    2    5 1  
     4    3    4 ar 
     5    3   12 ar 
     6    5    6 1  
     7    6    7 1  
     8    7    8 1  
     9    8    9 ar 
    10    9   10 ar 
    11    9   11 ar 
    12    1   13 1  
    13    1   14 1  
    14    1   15 1  
    15    2   16 1  
    16    5   17 1  
    17    5   18 1  
    18    6   19 1  
    19    6   20 1  
    20    7   21 1  
    21    7   22 1  
    22    8   23 1  
    23   10   24 1  
    24   10   25 1  
    25   11   26 1  
    26   11   27 1  
@<TRIPOS>SUBSTRUCTURE
     1 ARG         1

