### 
### Created by X-TOOL on Mon Sep 10 21:13:20 2018
### 

@<TRIPOS>MOLECULE
4psq_ligand
   48    51     1     0     0
SMALL
GAST_HUCK


@<TRIPOS>ATOM
      1 CL1        30.1700    0.1160   -4.5260 Cl        1 2WL        -0.0817
      2 C2         30.6710   -0.7720   -6.0080 C.ar      1 2WL         0.0565
      3 C3         31.9980   -1.1650   -6.1510 C.ar      1 2WL        -0.0597
      4 C4         32.4080   -1.8500   -7.2890 C.ar      1 2WL        -0.0745
      5 C5         31.4830   -2.1430   -8.2860 C.ar      1 2WL        -0.0735
      6 C6         30.1540   -1.7530   -8.1410 C.ar      1 2WL        -0.0436
      7 C1         29.7360   -1.0550   -7.0000 C.ar      1 2WL         0.0547
      8 N1         28.3920   -0.6400   -6.7920 N.pl3     1 2WL        -0.3043
      9 C10        27.7000   -1.6690   -5.9940 C.3       1 2WL         0.0473
     10 C9         26.2570   -1.2740   -5.7000 C.3       1 2WL         0.0525
     11 C7         27.6270   -0.3930   -8.0330 C.3       1 2WL         0.0473
     12 C8         26.2640    0.1820   -7.6690 C.3       1 2WL         0.0525
     13 N4         25.5900   -0.8980   -6.9490 N.am      1 2WL        -0.2725
     14 C21        24.4650   -1.5090   -7.3570 C.2       1 2WL         0.1943
     15 O1         23.9620   -2.3970   -6.6900 O.2       1 2WL        -0.3977
     16 C11        23.7490   -1.1090   -8.6090 C.2       1 2WL         0.0908
     17 C20        23.3940   -1.8900   -9.7010 C.2       1 2WL         0.0660
     18 N2         23.2770    0.1320   -8.8490 N.2       1 2WL        -0.3094
     19 C12        22.6730    0.1330  -10.0550 C.2       1 2WL         0.1051
     20 N3         22.7470   -1.0960  -10.5710 N.pl3     1 2WL        -0.2307
     21 C13        22.1950   -1.4710  -11.8710 C.3       1 2WL         0.0948
     22 C14        23.1730   -1.1890  -12.9920 C.ar      1 2WL        -0.0117
     23 C15        23.1000    0.0040  -13.7100 C.ar      1 2WL        -0.0576
     24 C19        24.1480   -2.1330  -13.3170 C.ar      1 2WL        -0.0576
     25 C18        25.0520   -1.8840  -14.3490 C.ar      1 2WL        -0.0685
     26 C17        24.9830   -0.6880  -15.0610 C.ar      1 2WL        -0.0687
     27 C16        24.0070    0.2550  -14.7400 C.ar      1 2WL        -0.0685
     28 H          32.7155   -0.9360   -5.3714 H         1 2WL         0.0588
     29 H          33.4426   -2.1542   -7.3990 H         1 2WL         0.0505
     30 H          31.7970   -2.6754   -9.1765 H         1 2WL         0.0585
     31 H          29.4364   -1.9915   -8.9177 H         1 2WL         0.0515
     32 H          28.2348   -1.8021   -5.0420 H         1 2WL         0.0534
     33 H          27.7041   -2.6166   -6.5525 H         1 2WL         0.0534
     34 H          26.2444   -0.4205   -5.0062 H         1 2WL         0.0540
     35 H          25.7294   -2.1248   -5.2442 H         1 2WL         0.0540
     36 H          27.4944   -1.3387   -8.5790 H         1 2WL         0.0534
     37 H          28.1720    0.3226   -8.6660 H         1 2WL         0.0534
     38 H          25.7027    0.4545   -8.5749 H         1 2WL         0.0540
     39 H          26.3749    1.0676   -7.0260 H         1 2WL         0.0540
     40 H          23.6018   -2.9513   -9.8289 H         1 2WL         0.0991
     41 H          22.2030    0.9934  -10.5290 H         1 2WL         0.1239
     42 H          21.2739   -0.8961  -12.0474 H         1 2WL         0.0795
     43 H          21.9607   -2.5457  -11.8632 H         1 2WL         0.0795
     44 H          22.3385    0.7365  -13.4679 H         1 2WL         0.0558
     45 H          24.2028   -3.0641  -12.7646 H         1 2WL         0.0558
     46 H          25.8079   -2.6202  -14.5973 H         1 2WL         0.0599
     47 H          25.6861   -0.4912  -15.8622 H         1 2WL         0.0559
     48 H          23.9529    1.1860  -15.2926 H         1 2WL         0.0599
@<TRIPOS>BOND
     1    1    2 1  
     2    2    3 ar 
     3    2    7 ar 
     4    3    4 ar 
     5    4    5 ar 
     6    5    6 ar 
     7    6    7 ar 
     8    7    8 1  
     9    8    9 1  
    10    8   11 1  
    11    9   10 1  
    12   10   13 1  
    13   11   12 1  
    14   12   13 1  
    15   13   14 am 
    16   14   15 2  
    17   14   16 1  
    18   16   17 2  
    19   16   18 1  
    20   17   20 1  
    21   18   19 2  
    22   19   20 1  
    23   20   21 1  
    24   21   22 1  
    25   22   23 ar 
    26   22   24 ar 
    27   23   27 ar 
    28   24   25 ar 
    29   25   26 ar 
    30   26   27 ar 
    31    3   28 1  
    32    4   29 1  
    33    5   30 1  
    34    6   31 1  
    35    9   32 1  
    36    9   33 1  
    37   10   34 1  
    38   10   35 1  
    39   11   36 1  
    40   11   37 1  
    41   12   38 1  
    42   12   39 1  
    43   17   40 1  
    44   19   41 1  
    45   21   42 1  
    46   21   43 1  
    47   23   44 1  
    48   24   45 1  
    49   25   46 1  
    50   26   47 1  
    51   27   48 1  
@<TRIPOS>SUBSTRUCTURE
     1 2WL         1

