### 
### Created by X-TOOL on Mon Sep 10 21:13:25 2018
### 

@<TRIPOS>MOLECULE
4ptc_ligand
   33    35     1     0     0
SMALL
GAST_HUCK


@<TRIPOS>ATOM
      1 O2         -5.4800   -1.2690  -32.2410 O.3       1 2WE        -0.3221
      2 C3         -5.2490   -1.5970  -33.5010 C.2       1 2WE         0.1644
      3 C4         -5.8240   -2.7140  -34.1070 C.2       1 2WE         0.1391
      4 S5         -5.1820   -2.6600  -35.7120 S.3       1 2WE        -0.0021
      5 C6         -4.2360   -1.2380  -35.5500 C.2       1 2WE         0.1206
      6 N7         -4.4480   -0.8710  -34.2760 N.2       1 2WE        -0.2559
      7 C8         -3.4030   -0.5850  -36.5710 C.ar      1 2WE         0.0275
      8 C9         -3.1260   -1.1590  -37.7980 C.ar      1 2WE        -0.0355
      9 C10        -2.3310   -0.4670  -38.6980 C.ar      1 2WE        -0.0037
     10 N11        -1.8460    0.7490  -38.3680 N.ar      1 2WE        -0.2827
     11 C12        -2.1150    1.3260  -37.1760 C.ar      1 2WE         0.1424
     12 C13        -2.8970    0.6590  -36.2590 C.ar      1 2WE         0.0017
     13 N14        -1.6050    2.5370  -36.8750 N.am      1 2WE        -0.2176
     14 C15        -1.9970    3.4390  -35.9520 C.2       1 2WE         0.2107
     15 O16        -2.4470    3.1280  -34.8480 O.2       1 2WE        -0.3826
     16 C17        -1.8390    4.9000  -36.2930 C.3       1 2WE         0.0556
     17 C18        -2.1510    5.8820  -35.1660 C.3       1 2WE        -0.0303
     18 C19        -0.6990    5.6280  -35.5700 C.3       1 2WE        -0.0303
     19 C20        -6.7490   -3.7570  -33.6120 C.2       1 2WE         0.1936
     20 O21        -6.9780   -4.7320  -34.3150 O.2       1 2WE        -0.4023
     21 N22        -7.3270   -3.6330  -32.4130 N.am      1 2WE        -0.3051
     22 H1         -5.8724   -0.4045  -32.2068 H         1 2WE         0.2502
     23 H2         -3.5243   -2.1347  -38.0520 H         1 2WE         0.0617
     24 H3         -2.0993   -0.9008  -39.6640 H         1 2WE         0.0777
     25 H4         -3.1134    1.1097  -35.2972 H         1 2WE         0.0636
     26 H5         -0.8126    2.8089  -37.4211 H         1 2WE         0.2309
     27 H6         -2.0976    5.1110  -37.3411 H         1 2WE         0.0544
     28 H7         -2.5258    5.5097  -34.2012 H         1 2WE         0.0294
     29 H8         -2.6237    6.8485  -35.3948 H         1 2WE         0.0294
     30 H9         -0.1277    6.4104  -36.0909 H         1 2WE         0.0294
     31 H10        -0.0297    5.0716  -34.8973 H         1 2WE         0.0294
     32 H11        -7.9515   -4.3411  -32.0833 H         1 2WE         0.1792
     33 H12        -7.1349   -2.8322  -31.8457 H         1 2WE         0.1792
@<TRIPOS>BOND
     1    1    2 1  
     2    2    3 2  
     3    2    6 1  
     4    3    4 1  
     5    3   19 1  
     6    4    5 1  
     7    5    6 2  
     8    5    7 1  
     9    7    8 ar 
    10    7   12 ar 
    11    8    9 ar 
    12    9   10 ar 
    13   10   11 ar 
    14   11   12 ar 
    15   11   13 1  
    16   13   14 am 
    17   14   15 2  
    18   14   16 1  
    19   16   17 1  
    20   16   18 1  
    21   17   18 1  
    22   19   20 2  
    23   19   21 am 
    24    1   22 1  
    25    8   23 1  
    26    9   24 1  
    27   12   25 1  
    28   13   26 1  
    29   16   27 1  
    30   17   28 1  
    31   17   29 1  
    32   18   30 1  
    33   18   31 1  
    34   21   32 1  
    35   21   33 1  
@<TRIPOS>SUBSTRUCTURE
     1 2WE         1

