### 
### Created by X-TOOL on Mon Sep 10 21:13:22 2018
### 

@<TRIPOS>MOLECULE
4pte_ligand
   37    40     1     0     0
SMALL
GAST_HUCK


@<TRIPOS>ATOM
      1 C1         -5.0540   -0.8530  -33.1150 C.ar      1 2WF        -0.0449
      2 C2         -4.2550   -0.2890  -34.1070 C.ar      1 2WF        -0.0460
      3 C3         -4.1110   -0.9070  -35.3500 C.ar      1 2WF        -0.0068
      4 C4         -4.7790   -2.1050  -35.5770 C.ar      1 2WF        -0.0347
      5 C5         -5.5930   -2.6710  -34.5930 C.ar      1 2WF         0.0115
      6 C6         -5.7310   -2.0450  -33.3560 C.ar      1 2WF        -0.0015
      7 C7         -6.5350   -2.6270  -32.3740 C.ar      1 2WF        -0.0308
      8 C8         -7.1950   -3.8210  -32.6650 C.ar      1 2WF         0.0080
      9 N9         -7.0490   -4.4140  -33.8700 N.ar      1 2WF        -0.2969
     10 C10        -6.2700   -3.8670  -34.8310 C.ar      1 2WF         0.0205
     11 C11        -3.2750   -0.2820  -36.4170 C.ar      1 2WF        -0.0116
     12 C12        -2.9310   -1.0000  -37.5610 C.ar      1 2WF        -0.0434
     13 C13        -2.1620   -0.3910  -38.5520 C.ar      1 2WF        -0.0076
     14 N14        -1.7770    0.9000  -38.4160 N.ar      1 2WF        -0.2867
     15 C15        -2.1090    1.6330  -37.3160 C.ar      1 2WF         0.1380
     16 C16        -2.8750    1.0490  -36.3150 C.ar      1 2WF        -0.0067
     17 N17        -1.7030    2.9210  -37.2160 N.am      1 2WF        -0.2183
     18 C18        -1.7830    3.8100  -36.2020 C.2       1 2WF         0.2107
     19 O19        -2.2220    3.5140  -35.1010 O.2       1 2WF        -0.3826
     20 C20        -1.2760    5.2130  -36.4330 C.3       1 2WF         0.0556
     21 C21        -2.0090    6.3440  -35.7090 C.3       1 2WF        -0.0303
     22 C22        -0.6170    5.9060  -35.2350 C.3       1 2WF        -0.0303
     23 H1         -5.1487   -0.3623  -32.1530 H         1 2WF         0.0648
     24 H2         -3.7377    0.6432  -33.9107 H         1 2WF         0.0669
     25 H3         -4.6665   -2.6070  -36.5312 H         1 2WF         0.0685
     26 H4         -6.6444   -2.1591  -31.4023 H         1 2WF         0.0716
     27 H5         -7.8319   -4.2779  -31.9162 H         1 2WF         0.0779
     28 H6         -6.1714   -4.3607  -35.7910 H         1 2WF         0.0874
     29 H7         -3.2595   -2.0262  -37.6797 H         1 2WF         0.0583
     30 H8         -1.8719   -0.9521  -39.4329 H         1 2WF         0.0769
     31 H9         -3.1636    1.6328  -35.4484 H         1 2WF         0.0596
     32 H10        -1.2653    3.2783  -38.0411 H         1 2WF         0.2309
     33 H11        -0.8924    5.3390  -37.4562 H         1 2WF         0.0544
     34 H12        -2.8942    6.1212  -35.0952 H         1 2WF         0.0294
     35 H13        -2.1405    7.3184  -36.2022 H         1 2WF         0.0294
     36 H14         0.2497    6.5656  -35.3890 H         1 2WF         0.0294
     37 H15        -0.5040    5.3685  -34.2819 H         1 2WF         0.0294
@<TRIPOS>BOND
     1    1    2 ar 
     2    1    6 ar 
     3    2    3 ar 
     4    3    4 ar 
     5    3   11 1  
     6    4    5 ar 
     7    5    6 ar 
     8    5   10 ar 
     9    6    7 ar 
    10    7    8 ar 
    11    8    9 ar 
    12    9   10 ar 
    13   11   12 ar 
    14   11   16 ar 
    15   12   13 ar 
    16   13   14 ar 
    17   14   15 ar 
    18   15   16 ar 
    19   15   17 1  
    20   17   18 am 
    21   18   19 2  
    22   18   20 1  
    23   20   21 1  
    24   20   22 1  
    25   21   22 1  
    26    1   23 1  
    27    2   24 1  
    28    4   25 1  
    29    7   26 1  
    30    8   27 1  
    31   10   28 1  
    32   12   29 1  
    33   13   30 1  
    34   16   31 1  
    35   17   32 1  
    36   20   33 1  
    37   21   34 1  
    38   21   35 1  
    39   22   36 1  
    40   22   37 1  
@<TRIPOS>SUBSTRUCTURE
     1 2WF         1

