### 
### Created by X-TOOL on Mon Sep 10 21:13:22 2018
### 

@<TRIPOS>MOLECULE
4ptg_ligand
   38    40     1     0     0
SMALL
GAST_HUCK


@<TRIPOS>ATOM
      1 C1          5.0160    0.0620   32.4410 C.3       1 2WG         0.0676
      2 O2          5.6500   -1.1860   32.8400 O.3       1 2WG        -0.2883
      3 C3          5.4060   -1.7040   34.0440 C.ar      1 2WG         0.2032
      4 C4          5.9850   -2.9060   34.4670 C.ar      1 2WG         0.1304
      5 C5          5.6870   -3.4020   35.7160 C.ar      1 2WG         0.0382
      6 N6          4.8410   -2.7250   36.5050 N.ar      1 2WG        -0.2665
      7 C7          4.2750   -1.5810   36.0950 C.ar      1 2WG         0.1236
      8 N8          4.5600   -1.0670   34.8810 N.ar      1 2WG        -0.2277
      9 C9          3.3750   -0.8610   37.0320 C.ar      1 2WG         0.0251
     10 C10         2.9930   -1.4530   38.2320 C.ar      1 2WG        -0.0356
     11 C11         2.1730   -0.7320   39.0970 C.ar      1 2WG        -0.0031
     12 N12         1.7790    0.5270   38.7880 N.ar      1 2WG        -0.2819
     13 C13         2.1690    1.1310   37.6390 C.ar      1 2WG         0.1431
     14 C14         2.9830    0.4390   36.7500 C.ar      1 2WG         0.0018
     15 N15         1.7590    2.3890   37.3840 N.am      1 2WG        -0.2173
     16 C16         1.9370    3.2270   36.3430 C.2       1 2WG         0.2108
     17 O17         2.4970    2.8870   35.3020 O.2       1 2WG        -0.3825
     18 C18         1.4200    4.6470   36.4560 C.3       1 2WG         0.0556
     19 C19         0.9710    5.3260   35.1550 C.3       1 2WG        -0.0303
     20 C20         2.2850    5.7440   35.8230 C.3       1 2WG        -0.0303
     21 C21         6.9510   -3.6890   33.6500 C.2       1 2WG         0.2105
     22 O22         7.4530   -4.6940   34.1270 O.2       1 2WG        -0.3863
     23 N23         7.3190   -3.2660   32.4360 N.am      1 2WG        -0.3002
     24 H1          5.3371    0.3272   31.4229 H         1 2WG         0.0592
     25 H2          5.3089    0.8612   33.1377 H         1 2WG         0.0592
     26 H3          3.9229   -0.0593   32.4608 H         1 2WG         0.0592
     27 H4          6.1316   -4.3297   36.0577 H         1 2WG         0.0950
     28 H5          3.3259   -2.4524   38.4878 H         1 2WG         0.0616
     29 H6          1.8467   -1.1830   40.0272 H         1 2WG         0.0780
     30 H7          3.3122    0.9165   35.8342 H         1 2WG         0.0638
     31 H8          1.2082    2.7829   38.1199 H         1 2WG         0.2310
     32 H9          0.8859    4.8072   37.4042 H         1 2WG         0.0544
     33 H10         0.1094    6.0099   35.1605 H         1 2WG         0.0294
     34 H11         0.9891    4.7666   34.2080 H         1 2WG         0.0294
     35 H12         3.2463    5.4848   35.3553 H         1 2WG         0.0294
     36 H13         2.3666    6.7281   36.3077 H         1 2WG         0.0294
     37 H14         7.9690   -3.8007   31.8960 H         1 2WG         0.1806
     38 H15         6.9442   -2.4150   32.0681 H         1 2WG         0.1806
@<TRIPOS>BOND
     1    1    2 1  
     2    2    3 1  
     3    3    4 ar 
     4    3    8 ar 
     5    4    5 ar 
     6    4   21 1  
     7    5    6 ar 
     8    6    7 ar 
     9    7    8 ar 
    10    7    9 1  
    11    9   10 ar 
    12    9   14 ar 
    13   10   11 ar 
    14   11   12 ar 
    15   12   13 ar 
    16   13   14 ar 
    17   13   15 1  
    18   15   16 am 
    19   16   17 2  
    20   16   18 1  
    21   18   19 1  
    22   18   20 1  
    23   19   20 1  
    24   21   22 2  
    25   21   23 am 
    26    1   24 1  
    27    1   25 1  
    28    1   26 1  
    29    5   27 1  
    30   10   28 1  
    31   11   29 1  
    32   14   30 1  
    33   15   31 1  
    34   18   32 1  
    35   19   33 1  
    36   19   34 1  
    37   20   35 1  
    38   20   36 1  
    39   23   37 1  
    40   23   38 1  
@<TRIPOS>SUBSTRUCTURE
     1 2WG         1

