### 
### Created by X-TOOL on Mon Sep 10 21:13:16 2018
### 

@<TRIPOS>MOLECULE
4puj_ligand
   45    48     1     0     0
SMALL
GAST_HUCK


@<TRIPOS>ATOM
      1 N2        -18.9810   18.6740  -18.4690 N.2       1 CKR        -0.1918
      2 C3        -18.2790   18.2980  -19.5960 C.ar      1 CKR         0.1175
      3 C4        -18.5670   18.3190  -20.9460 C.ar      1 CKR         0.0129
      4 C5        -17.6040   17.9340  -21.8730 C.ar      1 CKR         0.1178
      5 C6        -17.8170   18.1070  -23.3170 C.2       1 CKR         0.2089
      6 O1        -18.8810   18.4800  -23.8040 O.2       1 CKR        -0.3882
      7 N7        -16.7310   17.8200  -24.1130 N.am      1 CKR        -0.2586
      8 C8        -15.5360   17.3760  -23.6730 C.cat     1 CKR         0.1874
      9 N22       -14.5650   17.1240  -24.5300 N.pl3     1 CKR        -0.3362
     10 N9        -15.3420   17.2100  -22.3540 N.pl3     1 CKR        -0.2480
     11 C10       -16.3450   17.5050  -21.4180 C.ar      1 CKR         0.1328
     12 C11       -16.0560   17.4700  -20.0560 C.ar      1 CKR         0.0491
     13 C12       -17.0270   17.8860  -19.1390 C.ar      1 CKR         0.1433
     14 N13       -16.9630   18.0240  -17.7530 N.pl3     1 CKR        -0.1846
     15 C1        -18.1490   18.4990  -17.4170 C.2       1 CKR         0.2969
     16 N14       -18.5430   18.8170  -16.1790 N.pl3     1 CKR        -0.2343
     17 C2        -17.6410   18.8390  -15.0370 C.3       1 CKR         0.0882
     18 C7        -16.6700   20.0010  -15.0940 C.3       1 CKR        -0.0071
     19 N71       -15.6300   19.9570  -14.0150 N.4       1 CKR         0.2402
     20 C121      -16.1950   20.3130  -12.6800 C.3       1 CKR        -0.0077
     21 C13       -15.1080   20.2700  -11.6350 C.3       1 CKR         0.0878
     22 O2        -14.0340   21.1490  -11.9650 O.3       1 CKR        -0.3693
     23 C14       -13.4540   20.7640  -13.2040 C.3       1 CKR         0.0878
     24 C15       -14.4600   20.8330  -14.3270 C.3       1 CKR        -0.0077
     25 H         -19.5466   18.6365  -21.2847 H         1 CKR         0.0890
     26 H         -16.8370   17.9516  -25.0986 H         1 CKR         0.1811
     27 H         -13.6536   16.7850  -24.1905 H         1 CKR         0.1758
     28 H         -14.7184   17.2663  -25.5385 H         1 CKR         0.1758
     29 H         -14.4334   16.8570  -22.0211 H         1 CKR         0.2306
     30 H         -15.0887   17.1240  -19.7101 H         1 CKR         0.0743
     31 H         -16.1708   17.8052  -17.1321 H         1 CKR         0.2433
     32 H         -19.5327   19.0580  -16.0264 H         1 CKR         0.2173
     33 H         -17.0684   17.9000  -15.0202 H         1 CKR         0.0623
     34 H         -18.2375   18.9213  -14.1165 H         1 CKR         0.0623
     35 H         -17.2389   20.9370  -14.9928 H         1 CKR         0.0838
     36 H         -16.1621   19.9843  -16.0696 H         1 CKR         0.0838
     37 H         -15.2948   19.0079  -13.9615 H         1 CKR         0.2036
     38 H         -16.9847   19.5947  -12.4147 H         1 CKR         0.0837
     39 H         -16.6204   21.3265  -12.7224 H         1 CKR         0.0837
     40 H         -14.7208   19.2429  -11.5634 H         1 CKR         0.0613
     41 H         -15.5315   20.5707  -10.6654 H         1 CKR         0.0613
     42 H         -13.0816   19.7324  -13.1198 H         1 CKR         0.0613
     43 H         -12.6159   21.4389  -13.4321 H         1 CKR         0.0613
     44 H         -14.8030   21.8713  -14.4463 H         1 CKR         0.0837
     45 H         -13.9883   20.4931  -15.2608 H         1 CKR         0.0837
@<TRIPOS>BOND
     1    1    2 1  
     2    1   15 2  
     3    2    3 ar 
     4    2   13 ar 
     5    3    4 ar 
     6    4    5 1  
     7    4   11 ar 
     8    5    6 2  
     9    5    7 am 
    10    7    8 ar 
    11    8    9 ar 
    12    8   10 ar 
    13   10   11 1  
    14   11   12 ar 
    15   12   13 ar 
    16   13   14 1  
    17   14   15 1  
    18   15   16 1  
    19   16   17 1  
    20   17   18 1  
    21   18   19 1  
    22   19   20 1  
    23   19   24 1  
    24   20   21 1  
    25   21   22 1  
    26   22   23 1  
    27   23   24 1  
    28    3   25 1  
    29    7   26 1  
    30    9   27 1  
    31    9   28 1  
    32   10   29 1  
    33   12   30 1  
    34   14   31 1  
    35   16   32 1  
    36   17   33 1  
    37   17   34 1  
    38   18   35 1  
    39   18   36 1  
    40   19   37 1  
    41   20   38 1  
    42   20   39 1  
    43   21   40 1  
    44   21   41 1  
    45   23   42 1  
    46   23   43 1  
    47   24   44 1  
    48   24   45 1  
@<TRIPOS>SUBSTRUCTURE
     1 CKR         1

