### 
### Created by X-TOOL on Mon Sep 10 21:13:16 2018
### 

@<TRIPOS>MOLECULE
4puk_ligand
   28    30     1     0     0
SMALL
GAST_HUCK


@<TRIPOS>ATOM
      1 N1        -16.9220   18.0620  -17.8130 N.pl3     1 2WU        -0.1846
      2 N3        -18.9750   18.6410  -18.4950 N.2       1 2WU        -0.1918
      3 C4        -18.1170   18.5000  -17.4600 C.2       1 2WU         0.2965
      4 C5        -17.5360   18.7190  -15.0930 C.3       1 2WU         0.0372
      5 C6        -18.2740   18.2920  -19.6380 C.ar      1 2WU         0.1175
      6 C7        -18.5840   18.3270  -20.9790 C.ar      1 2WU         0.0129
      7 C8        -17.6240   17.9730  -21.9150 C.ar      1 2WU         0.1178
      8 C10       -15.6250   17.4010  -23.7160 C.cat     1 2WU         0.1874
      9 C1        -16.3590   17.5340  -21.5030 C.ar      1 2WU         0.1328
     10 C2        -16.0420   17.4940  -20.1280 C.ar      1 2WU         0.0491
     11 C3        -17.0050   17.9150  -19.2030 C.ar      1 2WU         0.1433
     12 N2        -18.4570   18.8110  -16.2110 N.pl3     1 2WU        -0.2425
     13 C9        -17.8970   18.1150  -23.3500 C.2       1 2WU         0.2089
     14 O1        -18.9790   18.4690  -23.8010 O.2       1 2WU        -0.3882
     15 N4        -16.8420   17.8330  -24.1710 N.am      1 2WU        -0.2586
     16 N5        -14.6810   17.1410  -24.6370 N.pl3     1 2WU        -0.3362
     17 N6        -15.3590   17.2300  -22.4210 N.pl3     1 2WU        -0.2480
     18 H         -16.1131   17.8718  -17.2043 H         1 2WU         0.2433
     19 H         -18.0481   19.0277  -14.1697 H         1 2WU         0.0533
     20 H         -16.6743   19.3788  -15.2725 H         1 2WU         0.0533
     21 H         -17.1876   17.6808  -14.9894 H         1 2WU         0.0533
     22 H         -19.5736   18.6298  -21.3015 H         1 2WU         0.0890
     23 H         -15.0717   17.1441  -19.7947 H         1 2WU         0.0743
     24 H         -19.4188   19.1320  -16.0295 H         1 2WU         0.2168
     25 H         -16.9652   17.9482  -25.1567 H         1 2WU         0.1811
     26 H         -13.7500   16.8137  -24.3420 H         1 2WU         0.1758
     27 H         -14.8887   17.2691  -25.6377 H         1 2WU         0.1758
     28 H         -14.4406   16.8832  -22.1094 H         1 2WU         0.2306
@<TRIPOS>BOND
     1    1    3 1  
     2   11    1 1  
     3    2    3 2  
     4    5    2 1  
     5    3   12 1  
     6   12    4 1  
     7    6    5 ar 
     8    5   11 ar 
     9    7    6 ar 
    10    9    7 ar 
    11    7   13 1  
    12    8   15 ar 
    13    8   16 ar 
    14   17    8 ar 
    15    9   10 ar 
    16    9   17 1  
    17   10   11 ar 
    18   13   14 2  
    19   13   15 am 
    20    1   18 1  
    21    4   19 1  
    22    4   20 1  
    23    4   21 1  
    24    6   22 1  
    25   10   23 1  
    26   12   24 1  
    27   15   25 1  
    28   16   26 1  
    29   16   27 1  
    30   17   28 1  
@<TRIPOS>SUBSTRUCTURE
     1 2WU         1

