### 
### Created by X-TOOL on Mon Sep 10 21:13:17 2018
### 

@<TRIPOS>MOLECULE
4pul_ligand
   28    30     1     0     0
SMALL
GAST_HUCK


@<TRIPOS>ATOM
      1 N1        106.7350   18.4330   17.6340 N.pl3     1 2WU        -0.1846
      2 N3        108.7790   18.8950   18.4180 N.2       1 2WU        -0.1918
      3 C4        107.9600   18.8330   17.3440 C.2       1 2WU         0.2965
      4 C5        107.4990   19.1360   14.9580 C.3       1 2WU         0.0372
      5 C6        108.0260   18.5240   19.5150 C.ar      1 2WU         0.1175
      6 C7        108.2880   18.4610   20.8700 C.ar      1 2WU         0.0129
      7 C8        107.2820   18.0990   21.7610 C.ar      1 2WU         0.1178
      8 C10       105.1820   17.4680   23.4290 C.cat     1 2WU         0.1874
      9 C1        106.0090   17.7640   21.2700 C.ar      1 2WU         0.1328
     10 C2        105.7500   17.8210   19.8920 C.ar      1 2WU         0.0491
     11 C3        106.7590   18.2220   19.0150 C.ar      1 2WU         0.1433
     12 N2        108.3620   19.1770   16.1230 N.pl3     1 2WU        -0.2425
     13 C9        107.5000   18.1150   23.2150 C.2       1 2WU         0.2089
     14 O1        108.5620   18.4140   23.7520 O.2       1 2WU        -0.3882
     15 N4        106.3990   17.7870   23.9620 N.am      1 2WU        -0.2586
     16 N5        104.1870   17.2270   24.2830 N.pl3     1 2WU        -0.3362
     17 N6        104.9570   17.4320   22.1180 N.pl3     1 2WU        -0.2480
     18 H         105.9423   18.3056   16.9888 H         1 2WU         0.2433
     19 H         108.0623   19.4659   14.0727 H         1 2WU         0.0533
     20 H         106.6389   19.8035   15.1151 H         1 2WU         0.0533
     21 H         107.1413   18.1075   14.8026 H         1 2WU         0.0533
     22 H         109.2798   18.6941   21.2402 H         1 2WU         0.0890
     23 H         104.7709   17.5548   19.5105 H         1 2WU         0.0743
     24 H         109.3359   19.4883   15.9989 H         1 2WU         0.2168
     25 H         106.4919   17.7807   24.9577 H         1 2WU         0.1811
     26 H         103.2515   16.9826   23.9280 H         1 2WU         0.1758
     27 H         104.3538   17.2852   25.2977 H         1 2WU         0.1758
     28 H         104.0348   17.1672   21.7434 H         1 2WU         0.2306
@<TRIPOS>BOND
     1    1    3 1  
     2   11    1 1  
     3    2    3 2  
     4    5    2 1  
     5    3   12 1  
     6   12    4 1  
     7    6    5 ar 
     8    5   11 ar 
     9    7    6 ar 
    10    9    7 ar 
    11    7   13 1  
    12    8   15 ar 
    13    8   16 ar 
    14   17    8 ar 
    15    9   10 ar 
    16    9   17 1  
    17   10   11 ar 
    18   13   14 2  
    19   13   15 am 
    20    1   18 1  
    21    4   19 1  
    22    4   20 1  
    23    4   21 1  
    24    6   22 1  
    25   10   23 1  
    26   12   24 1  
    27   15   25 1  
    28   16   26 1  
    29   16   27 1  
    30   17   28 1  
@<TRIPOS>SUBSTRUCTURE
     1 2WU         1

