### 
### Created by X-TOOL on Mon Sep 10 21:13:17 2018
### 

@<TRIPOS>MOLECULE
4pum_ligand
   28    30     1     0     0
SMALL
GAST_HUCK


@<TRIPOS>ATOM
      1 N1        106.3700   18.0110   18.1270 N.pl3     1 2WU        -0.1846
      2 N3        108.3740   18.6750   18.8690 N.2       1 2WU        -0.1918
      3 C4        107.5470   18.5190   17.8110 C.2       1 2WU         0.2965
      4 C5        107.1110   18.7890   15.4080 C.3       1 2WU         0.0372
      5 C6        107.6750   18.2560   19.9830 C.ar      1 2WU         0.1175
      6 C7        107.9620   18.2580   21.3320 C.ar      1 2WU         0.0129
      7 C8        106.9970   17.8670   22.2500 C.ar      1 2WU         0.1178
      8 C10       104.9420   17.2700   23.9900 C.cat     1 2WU         0.1874
      9 C1        105.7420   17.4260   21.8000 C.ar      1 2WU         0.1328
     10 C2        105.4660   17.3960   20.4230 C.ar      1 2WU         0.0491
     11 C3        106.4310   17.8370   19.5120 C.ar      1 2WU         0.1433
     12 N2        107.9360   18.9040   16.5960 N.pl3     1 2WU        -0.2425
     13 C9        107.2260   18.0050   23.6940 C.2       1 2WU         0.2089
     14 O1        108.2960   18.3480   24.1860 O.2       1 2WU        -0.3882
     15 N4        106.1440   17.6990   24.4810 N.am      1 2WU        -0.2586
     16 N5        103.9600   17.0640   24.8720 N.pl3     1 2WU        -0.3362
     17 N6        104.7150   17.1060   22.6880 N.pl3     1 2WU        -0.2480
     18 H         105.5855   17.7927   17.4962 H         1 2WU         0.2433
     19 H         107.6634   19.1761   14.5391 H         1 2WU         0.0533
     20 H         106.1879   19.3714   15.5448 H         1 2WU         0.0533
     21 H         106.8562   17.7323   15.2393 H         1 2WU         0.0533
     22 H         108.9429   18.5655   21.6760 H         1 2WU         0.0890
     23 H         104.5086   17.0324   20.0679 H         1 2WU         0.0743
     24 H         108.8783   19.3072   16.4942 H         1 2WU         0.2168
     25 H         106.2403   17.7954   25.4717 H         1 2WU         0.1811
     26 H         103.0370   16.7406   24.5489 H         1 2WU         0.1758
     27 H         104.1259   17.2285   25.8752 H         1 2WU         0.1758
     28 H         103.8091   16.7537   22.3473 H         1 2WU         0.2306
@<TRIPOS>BOND
     1    1    3 1  
     2   11    1 1  
     3    2    3 2  
     4    5    2 1  
     5    3   12 1  
     6   12    4 1  
     7    6    5 ar 
     8    5   11 ar 
     9    7    6 ar 
    10    9    7 ar 
    11    7   13 1  
    12    8   15 ar 
    13    8   16 ar 
    14   17    8 ar 
    15    9   10 ar 
    16    9   17 1  
    17   10   11 ar 
    18   13   14 2  
    19   13   15 am 
    20    1   18 1  
    21    4   19 1  
    22    4   20 1  
    23    4   21 1  
    24    6   22 1  
    25   10   23 1  
    26   12   24 1  
    27   15   25 1  
    28   16   26 1  
    29   16   27 1  
    30   17   28 1  
@<TRIPOS>SUBSTRUCTURE
     1 2WU         1

