### 
### Created by X-TOOL on Mon Sep 10 21:13:19 2018
### 

@<TRIPOS>MOLECULE
4puz_ligand
   52    57     1     0     0
SMALL
GAST_HUCK


@<TRIPOS>ATOM
      1 C01       -31.6410   18.9300    4.2980 C.3       1 CG9         0.0670
      2 C02       -30.1510   19.0130    3.9480 C.3       1 CG9         0.0482
      3 N03       -29.6220   17.6540    3.7330 N.pl3     1 CG9        -0.3103
      4 C04       -30.3820   16.8140    2.7950 C.3       1 CG9         0.0482
      5 C05       -31.8720   16.8560    3.1510 C.3       1 CG9         0.0670
      6 O06       -32.3610   18.1990    3.3000 O.3       1 CG9        -0.3759
      7 C07       -28.2580   17.4240    3.9550 C.ar      1 CG9         0.0294
      8 C08       -27.5070   16.5190    3.1870 C.ar      1 CG9        -0.0529
      9 C09       -26.1560   16.2880    3.4260 C.ar      1 CG9        -0.0491
     10 C10       -25.4970   16.9560    4.4550 C.ar      1 CG9         0.0518
     11 N11       -24.1350   16.7140    4.6410 N.pl3     1 CG9        -0.2565
     12 C12       -23.2980   17.3130    5.5550 C.2       1 CG9         0.1832
     13 N13       -23.8100   18.2190    6.3820 N.2       1 CG9        -0.2882
     14 C14       -22.9770   18.8390    7.3180 C.2       1 CG9         0.0556
     15 C15       -21.6650   18.5530    7.4790 C.2       1 CG9         0.0891
     16 N16       -21.1110   17.6090    6.6310 N.pl3     1 CG9        -0.2042
     17 C17       -19.8460   17.0980    6.5270 C.2       1 CG9         0.0564
     18 C18       -19.9390   16.1850    5.4940 C.2       1 CG9        -0.0212
     19 N19       -21.2130   16.1100    4.9760 N.2       1 CG9        -0.3242
     20 C20       -21.8890   16.9780    5.6880 C.2       1 CG9         0.2027
     21 C21       -23.5990   19.8300    8.2100 C.ar      1 CG9        -0.0140
     22 C22       -24.8050   20.4470    7.8230 C.ar      1 CG9        -0.0557
     23 C23       -25.4380   21.3760    8.6720 C.ar      1 CG9        -0.0487
     24 C24       -24.8320   21.6830    9.9010 C.ar      1 CG9         0.0305
     25 C25       -25.1170   22.5310   10.9940 C.2       1 CG9         0.1080
     26 N26       -24.2050   22.4580   11.9700 N.pl3     1 CG9        -0.2450
     27 N27       -23.3170   21.5640   11.4980 N.2       1 CG9        -0.3349
     28 C28       -23.6360   21.0620   10.2600 C.ar      1 CG9        -0.0158
     29 C29       -22.9920   20.1240    9.4510 C.ar      1 CG9        -0.0537
     30 C30       -26.2230   17.8610    5.2300 C.ar      1 CG9        -0.0491
     31 C31       -27.5820   18.0940    4.9860 C.ar      1 CG9        -0.0529
     32 H         -32.0523   19.9480    4.3653 H         1 CG9         0.0579
     33 H         -31.7553   18.4235    5.2677 H         1 CG9         0.0579
     34 H         -29.6060   19.4924    4.7745 H         1 CG9         0.0532
     35 H         -30.0220   19.6063    3.0308 H         1 CG9         0.0532
     36 H         -30.0206   15.7770    2.8581 H         1 CG9         0.0532
     37 H         -30.2405   17.1900    1.7710 H         1 CG9         0.0532
     38 H         -32.0245   16.3173    4.0978 H         1 CG9         0.0579
     39 H         -32.4407   16.3596    2.3509 H         1 CG9         0.0579
     40 H         -27.9961   15.9830    2.3817 H         1 CG9         0.0490
     41 H         -25.6126   15.5832    2.8070 H         1 CG9         0.0506
     42 H         -23.7081   16.0076    4.0249 H         1 CG9         0.2130
     43 H         -21.0680   19.0456    8.2451 H         1 CG9         0.1098
     44 H         -18.9691   17.3520    7.1207 H         1 CG9         0.0851
     45 H         -19.1006   15.5924    5.1309 H         1 CG9         0.0510
     46 H         -25.2494   20.2050    6.8643 H         1 CG9         0.0603
     47 H         -26.3723   21.8436    8.3829 H         1 CG9         0.0622
     48 H         -25.9911   23.1790   11.0378 H         1 CG9         0.1366
     49 H         -24.1869   22.9642   12.8668 H         1 CG9         0.2935
     50 H         -22.0704   19.6444    9.7604 H         1 CG9         0.0603
     51 H         -25.7269   18.3924    6.0341 H         1 CG9         0.0506
     52 H         -28.1206   18.8035    5.6037 H         1 CG9         0.0490
@<TRIPOS>BOND
     1    1    2 1  
     2    1    6 1  
     3    2    3 1  
     4    3    4 1  
     5    3    7 1  
     6    4    5 1  
     7    5    6 1  
     8    7    8 ar 
     9    7   31 ar 
    10    8    9 ar 
    11    9   10 ar 
    12   10   11 1  
    13   10   30 ar 
    14   11   12 1  
    15   12   13 2  
    16   12   20 1  
    17   13   14 1  
    18   14   15 2  
    19   14   21 1  
    20   15   16 1  
    21   16   17 1  
    22   16   20 1  
    23   17   18 2  
    24   18   19 1  
    25   19   20 2  
    26   21   22 ar 
    27   21   29 ar 
    28   22   23 ar 
    29   23   24 ar 
    30   24   25 2  
    31   24   28 ar 
    32   25   26 1  
    33   26   27 1  
    34   27   28 2  
    35   28   29 ar 
    36   30   31 ar 
    37    1   32 1  
    38    1   33 1  
    39    2   34 1  
    40    2   35 1  
    41    4   36 1  
    42    4   37 1  
    43    5   38 1  
    44    5   39 1  
    45    8   40 1  
    46    9   41 1  
    47   11   42 1  
    48   15   43 1  
    49   17   44 1  
    50   18   45 1  
    51   22   46 1  
    52   23   47 1  
    53   25   48 1  
    54   26   49 1  
    55   29   50 1  
    56   30   51 1  
    57   31   52 1  
@<TRIPOS>SUBSTRUCTURE
     1 CG9         1

