### 
### Created by X-TOOL on Mon Sep 10 21:13:20 2018
### 

@<TRIPOS>MOLECULE
4pv0_ligand
   61    65     1     0     0
SMALL
GAST_HUCK


@<TRIPOS>ATOM
      1 O18        -6.7710    6.8090   13.4730 O.co2     1 CG4        -0.5648
      2 C16        -6.5350    5.8600   12.7290 C.2       1 CG4         0.0528
      3 O17        -7.5620    5.2750   12.0290 O.co2     1 CG4        -0.5648
      4 C7         -5.1470    5.3670   12.5470 C.ar      1 CG4        -0.0055
      5 C5         -4.1580    5.7820   13.4360 C.ar      1 CG4        -0.0611
      6 C3         -2.8620    5.3520   13.2820 C.ar      1 CG4        -0.0372
      7 C6         -4.8310    4.5110   11.4840 C.ar      1 CG4        -0.0611
      8 C4         -3.5200    4.0700   11.3320 C.ar      1 CG4        -0.0372
      9 C2         -2.5250    4.4950   12.2370 C.ar      1 CG4         0.0694
     10 N1         -1.1780    4.1150   12.1520 N.am      1 CG4        -0.2310
     11 C8         -0.5120    3.6910   10.9940 C.2       1 CG4         0.2351
     12 O9         -1.0300    3.5640    9.8950 O.2       1 CG4        -0.3721
     13 C15         0.8930    3.3350   11.1120 C.ar      1 CG4         0.0630
     14 C13         1.7690    3.8320   10.1700 C.ar      1 CG4        -0.0358
     15 C11         3.0970    3.4980   10.2470 C.ar      1 CG4        -0.0497
     16 C14         1.3210    2.5140   12.1340 C.ar      1 CG4        -0.0246
     17 C12         2.6530    2.1700   12.2010 C.ar      1 CG4         0.0173
     18 C10         3.5390    2.6730   11.2600 C.ar      1 CG4        -0.0410
     19 C24         3.1090    1.2860   13.3080 C.ar      1 CG4         0.0840
     20 C22         4.3940    1.3420   13.7970 C.ar      1 CG4         0.0373
     21 N23         2.1880    0.4030   13.8570 N.ar      1 CG4        -0.2309
     22 C21         2.5010   -0.4480   14.8820 C.ar      1 CG4         0.2438
     23 C19         3.8060   -0.3620   15.3230 C.ar      1 CG4         0.2369
     24 N27         4.3970   -1.0370   16.3290 N.pl3     1 CG4        -0.2234
     25 C26         5.6610   -0.5880   16.3800 C.2       1 CG4         0.0746
     26 C25         5.8300    0.3700   15.4190 C.2       1 CG4         0.0270
     27 N20         4.6920    0.5000   14.7710 N.ar      1 CG4        -0.2887
     28 N28         1.5850   -1.3660   15.4920 N.pl3     1 CG4        -0.2225
     29 C33         0.2230   -1.6780   15.3370 C.ar      1 CG4         0.0941
     30 C31        -0.5050   -1.0030   14.3540 C.ar      1 CG4         0.0138
     31 C29        -1.8400   -1.2140   14.1320 C.ar      1 CG4         0.1438
     32 O36        -2.5620   -0.5510   13.1460 O.3       1 CG4        -0.3150
     33 C37        -2.2190    0.5890   12.3620 C.3       1 CG4         0.0602
     34 C34        -0.4370   -2.6320   16.1160 C.ar      1 CG4        -0.0202
     35 C32        -1.7980   -2.8680   15.8950 C.ar      1 CG4        -0.0146
     36 C30        -2.4820   -2.1640   14.9040 C.ar      1 CG4         0.1491
     37 O35        -3.8140   -2.3790   14.7050 O.3       1 CG4        -0.3049
     38 C38        -4.3600   -2.7250   13.4190 C.3       1 CG4         0.0650
     39 H          -4.4120    6.4474   14.2532 H         1 CG4         0.0611
     40 H          -2.0982    5.6813   13.9772 H         1 CG4         0.0512
     41 H          -5.5994    4.1956   10.7875 H         1 CG4         0.0611
     42 H          -3.2636    3.4005   10.5189 H         1 CG4         0.0512
     43 H          -0.6428    4.1497   12.9960 H         1 CG4         0.2268
     44 H           1.4119    4.4795    9.3774 H         1 CG4         0.0716
     45 H           3.7973    3.8814    9.5137 H         1 CG4         0.0645
     46 H           0.6196    2.1449   12.8735 H         1 CG4         0.0724
     47 H           4.5901    2.4150   11.3214 H         1 CG4         0.0703
     48 H           5.1238    2.0404   13.4038 H         1 CG4         0.0970
     49 H           6.4272   -0.9309   17.0738 H         1 CG4         0.1164
     50 H           6.7451    0.9272   15.2242 H         1 CG4         0.0674
     51 H           2.0343   -1.9366   16.2224 H         1 CG4         0.2502
     52 H           0.0119   -0.2769   13.7370 H         1 CG4         0.0535
     53 H          -3.0481    0.8276   11.6797 H         1 CG4         0.0580
     54 H          -1.3132    0.3724   11.7767 H         1 CG4         0.0580
     55 H          -2.0311    1.4467   13.0246 H         1 CG4         0.0580
     56 H           0.0985   -3.1819   16.8814 H         1 CG4         0.0624
     57 H          -2.3233   -3.6011   16.4964 H         1 CG4         0.0597
     58 H          -5.4498   -2.8478   13.5044 H         1 CG4         0.0592
     59 H          -3.9110   -3.6671   13.0715 H         1 CG4         0.0592
     60 H          -4.1366   -1.9245   12.6984 H         1 CG4         0.0592
     61 H1          3.9670   -1.7508   16.9343 H         1 CG4         0.2506
@<TRIPOS>BOND
     1    1    2 ar 
     2    2    3 ar 
     3    2    4 1  
     4    4    5 ar 
     5    4    7 ar 
     6    5    6 ar 
     7    6    9 ar 
     8    7    8 ar 
     9    8    9 ar 
    10    9   10 1  
    11   10   11 am 
    12   11   12 2  
    13   11   13 1  
    14   13   14 ar 
    15   13   16 ar 
    16   14   15 ar 
    17   15   18 ar 
    18   16   17 ar 
    19   17   18 ar 
    20   17   19 1  
    21   19   20 ar 
    22   19   21 ar 
    23   20   27 ar 
    24   21   22 ar 
    25   22   23 ar 
    26   22   28 1  
    27   23   24 1  
    28   23   27 ar 
    29   24   25 1  
    30   25   26 2  
    31   26   27 1  
    32   28   29 1  
    33   29   30 ar 
    34   29   34 ar 
    35   30   31 ar 
    36   31   32 1  
    37   31   36 ar 
    38   32   33 1  
    39   34   35 ar 
    40   35   36 ar 
    41   36   37 1  
    42   37   38 1  
    43    5   39 1  
    44    6   40 1  
    45    7   41 1  
    46    8   42 1  
    47   10   43 1  
    48   14   44 1  
    49   15   45 1  
    50   16   46 1  
    51   18   47 1  
    52   20   48 1  
    53   25   49 1  
    54   26   50 1  
    55   28   51 1  
    56   30   52 1  
    57   33   53 1  
    58   33   54 1  
    59   33   55 1  
    60   34   56 1  
    61   35   57 1  
    62   38   58 1  
    63   38   59 1  
    64   38   60 1  
    65   24   61 1  
@<TRIPOS>SUBSTRUCTURE
     1 CG4         1

