### 
### Created by X-TOOL on Mon Sep 10 21:13:23 2018
### 

@<TRIPOS>MOLECULE
4pv5_ligand
   79    83     1     0     0
SMALL
GAST_HUCK


@<TRIPOS>ATOM
      1 C1         15.7620    3.0170   23.5270 C.3       1 CBW        -0.0427
      2 C2         16.7300    2.6540   24.6520 C.3       1 CBW        -0.0257
      3 C3         16.7250    1.1640   24.9150 C.3       1 CBW         0.0606
      4 C4         15.3500    0.6260   25.3530 C.3       1 CBW        -0.0055
      5 C5         14.2890    1.7550   25.1290 C.3       1 CBW        -0.0259
      6 C6         12.8600    1.3740   25.5180 C.3       1 CBW        -0.0493
      7 C7         12.0690    2.6470   25.8190 C.3       1 CBW        -0.0540
      8 C8         11.9860    3.6010   24.6170 C.3       1 CBW        -0.0366
      9 C9         13.4060    3.8080   23.9900 C.3       1 CBW         0.0467
     10 C10        14.3190    2.5370   23.7720 C.3       1 CBW        -0.0102
     11 C11        13.3100    4.7610   22.8020 C.2       1 CBW         0.1805
     12 C12        12.2860    5.8090   22.8740 C.2       1 CBW         0.0482
     13 C13        11.3990    5.9500   23.8660 C.2       1 CBW        -0.0376
     14 C14        11.4570    5.0190   25.0820 C.3       1 CBW        -0.0349
     15 C15        10.0820    4.8500   25.7600 C.3       1 CBW        -0.0762
     16 C16         9.2360    6.1080   25.7740 C.3       1 CBW        -0.0542
     17 C17         8.9890    6.6670   24.3690 C.3       1 CBW        -0.0192
     18 C18        10.3510    7.0580   23.7400 C.3       1 CBW        -0.0000
     19 C19        13.8940    1.6890   22.5590 C.3       1 CBW        -0.0570
     20 C20        10.8820    8.4200   24.2260 C.3       1 CBW        -0.0285
     21 C21         9.9100    9.6000   24.0110 C.3       1 CBW         0.0156
     22 C22         8.5230    9.0740   23.6150 C.3       1 CBW        -0.0423
     23 C23         8.0820    7.9020   24.4710 C.3       1 CBW        -0.0454
     24 C24        15.0670   -0.6890   24.6290 C.3       1 CBW        -0.0572
     25 C25        15.4050    0.3150   26.8480 C.3       1 CBW        -0.0572
     26 C26        11.0060    2.9820   23.6020 C.3       1 CBW        -0.0663
     27 C27        12.3890    5.6790   26.0950 C.3       1 CBW        -0.0887
     28 C28         8.2880    5.6090   23.5070 C.3       1 CBW        -0.0573
     29 C33        10.2980   10.5240   22.8630 C.2       1 CBW         0.0509
     30 C34         9.8110   10.4230   25.3020 C.3       1 CBW        -0.0549
     31 O3         17.2100    0.4730   23.7580 O.3       1 CBW        -0.3912
     32 O11        14.0260    4.6760   21.8160 O.2       1 CBW        -0.3437
     33 O34        11.4000   10.2120   22.2200 O.co2     1 CBW        -0.5475
     34 O35         9.5820   11.4650   22.5630 O.co2     1 CBW        -0.5475
     35 H1         16.1261    2.5604   22.5948 H         1 CBW         0.0273
     36 H2         15.7501    4.1116   23.4189 H         1 CBW         0.0273
     37 H3         16.4292    3.1817   25.5691 H         1 CBW         0.0290
     38 H4         17.7457    2.9650   24.3664 H         1 CBW         0.0290
     39 H5         17.4256    0.9722   25.7410 H         1 CBW         0.0599
     40 H6         14.5778    2.5144   25.8705 H         1 CBW         0.0314
     41 H7         12.8797    0.7324   26.4113 H         1 CBW         0.0268
     42 H8         12.3840    0.8319   24.6876 H         1 CBW         0.0268
     43 H9         12.5572    3.1743   26.6518 H         1 CBW         0.0263
     44 H10        11.0475    2.3637   26.1128 H         1 CBW         0.0263
     45 H11        13.9548    4.3759   24.7557 H         1 CBW         0.0529
     46 H12        12.2445    6.5278   22.0570 H         1 CBW         0.1318
     47 H13        10.2472    4.5341   26.8006 H         1 CBW         0.0149
     48 H14         9.5266    4.0671   25.2229 H         1 CBW         0.0149
     49 H15         9.7524    6.8733   26.3719 H         1 CBW         0.0263
     50 H16         8.2654    5.8748   26.2361 H         1 CBW         0.0263
     51 H17        10.1609    7.1757   22.6630 H         1 CBW         0.0490
     52 H18        14.5663    0.8237   22.4630 H         1 CBW         0.0237
     53 H19        13.9506    2.3003   21.6463 H         1 CBW         0.0237
     54 H20        12.8616    1.3371   22.7012 H         1 CBW         0.0237
     55 H21        11.8135    8.6390   23.6834 H         1 CBW         0.0290
     56 H22        11.0944    8.3417   25.3024 H         1 CBW         0.0290
     57 H23         8.5546    8.7513   22.5639 H         1 CBW         0.0263
     58 H24         7.7915    9.8879   23.7269 H         1 CBW         0.0263
     59 H25         8.0638    8.2301   25.5208 H         1 CBW         0.0272
     60 H26         7.0678    7.6110   24.1601 H         1 CBW         0.0272
     61 H27        15.8675   -1.4098   24.8518 H         1 CBW         0.0236
     62 H28        15.0269   -0.5093   23.5445 H         1 CBW         0.0236
     63 H29        14.1029   -1.0949   24.9693 H         1 CBW         0.0236
     64 H30        15.6078    1.2400   27.4077 H         1 CBW         0.0236
     65 H31        16.2059   -0.4137   27.0417 H         1 CBW         0.0236
     66 H32        14.4410   -0.1050   27.1709 H         1 CBW         0.0236
     67 H33        11.3805    1.9978   23.2841 H         1 CBW         0.0227
     68 H34        10.9199    3.6418   22.7261 H         1 CBW         0.0227
     69 H35        10.0180    2.8644   24.0710 H         1 CBW         0.0227
     70 H36        13.3829    5.8157   25.6440 H         1 CBW         0.0112
     71 H37        12.4753    5.0388   26.9853 H         1 CBW         0.0112
     72 H38        11.9805    6.6581   26.3855 H         1 CBW         0.0112
     73 H39         8.9287    4.7185   23.4265 H         1 CBW         0.0237
     74 H40         8.1016    6.0185   22.5033 H         1 CBW         0.0237
     75 H41         7.3312    5.3313   23.9732 H         1 CBW         0.0237
     76 H42        10.8090   10.7950   25.5771 H         1 CBW         0.0227
     77 H43         9.4199    9.7894   26.1117 H         1 CBW         0.0227
     78 H44         9.1333   11.2747   25.1429 H         1 CBW         0.0227
     79 H45        18.0572    0.8255   23.5120 H         1 CBW         0.2098
@<TRIPOS>BOND
     1    1    2 1  
     2    1   10 1  
     3    2    3 1  
     4    3    4 1  
     5    3   31 1  
     6    4    5 1  
     7    4   24 1  
     8    4   25 1  
     9    5    6 1  
    10    5   10 1  
    11    6    7 1  
    12    7    8 1  
    13    8    9 1  
    14    8   14 1  
    15    8   26 1  
    16    9   10 1  
    17    9   11 1  
    18   10   19 1  
    19   11   12 1  
    20   11   32 2  
    21   12   13 2  
    22   13   14 1  
    23   13   18 1  
    24   14   15 1  
    25   14   27 1  
    26   15   16 1  
    27   16   17 1  
    28   17   18 1  
    29   17   23 1  
    30   17   28 1  
    31   18   20 1  
    32   20   21 1  
    33   21   22 1  
    34   21   29 1  
    35   21   30 1  
    36   22   23 1  
    37   29   33 ar 
    38   29   34 ar 
    39    1   35 1  
    40    1   36 1  
    41    2   37 1  
    42    2   38 1  
    43    3   39 1  
    44    5   40 1  
    45    6   41 1  
    46    6   42 1  
    47    7   43 1  
    48    7   44 1  
    49    9   45 1  
    50   12   46 1  
    51   15   47 1  
    52   15   48 1  
    53   16   49 1  
    54   16   50 1  
    55   18   51 1  
    56   19   52 1  
    57   19   53 1  
    58   19   54 1  
    59   20   55 1  
    60   20   56 1  
    61   22   57 1  
    62   22   58 1  
    63   23   59 1  
    64   23   60 1  
    65   24   61 1  
    66   24   62 1  
    67   24   63 1  
    68   25   64 1  
    69   25   65 1  
    70   25   66 1  
    71   26   67 1  
    72   26   68 1  
    73   26   69 1  
    74   27   70 1  
    75   27   71 1  
    76   27   72 1  
    77   28   73 1  
    78   28   74 1  
    79   28   75 1  
    80   30   76 1  
    81   30   77 1  
    82   30   78 1  
    83   31   79 1  
@<TRIPOS>SUBSTRUCTURE
     1 CBW         1

