### 
### Created by X-TOOL on Mon Sep 10 21:13:25 2018
### 

@<TRIPOS>MOLECULE
4pv7_ligand
   38    40     1     0     0
SMALL
GAST_HUCK


@<TRIPOS>ATOM
      1 O23        -8.6470   41.2770   29.8440 O.2       1 CJP        -0.1425
      2 S20        -9.0800   40.0700   30.5200 S.o2      1 CJP         0.0823
      3 O22        -8.4270   40.0670   31.8150 O.2       1 CJP        -0.1425
      4 C21        -8.5190   38.7800   29.6060 C.3       1 CJP         0.0863
      5 N9        -10.7010   40.0160   30.7270 N.am      1 CJP        -0.1278
      6 C4        -11.3580   38.8560   30.9850 C.ar      1 CJP         0.0965
      7 C5        -11.0210   37.5110   31.1440 C.ar      1 CJP        -0.0421
      8 C6        -12.0110   36.5610   31.4050 C.ar      1 CJP        -0.0792
      9 C1        -13.3540   36.9220   31.5180 C.ar      1 CJP        -0.0818
     10 C8        -11.4910   41.1180   30.6820 C.2       1 CJP         0.1025
     11 C7        -12.8800   40.6760   30.9070 C.2       1 CJP         0.0090
     12 C16       -14.0890   41.5690   30.9180 C.3       1 CJP        -0.0169
     13 N17       -14.4910   41.8160   32.2880 N.4       1 CJP         0.2262
     14 C3        -12.7920   39.2140   31.1150 C.ar      1 CJP        -0.0139
     15 C2        -13.7620   38.2520   31.3770 C.ar      1 CJP        -0.0772
     16 C10       -11.2130   42.5470   30.4310 C.ar      1 CJP         0.0123
     17 C15       -11.2090   43.4650   31.4630 C.ar      1 CJP        -0.0565
     18 C14       -10.9680   44.8000   31.1690 C.ar      1 CJP        -0.0514
     19 C13       -10.7530   45.2070   29.8590 C.ar      1 CJP         0.0368
     20 CL1       -10.4570   46.9220   29.5080 Cl        1 CJP        -0.0739
     21 C12       -10.7640   44.3300   28.7940 C.ar      1 CJP        -0.0377
     22 C11       -11.0000   42.9980   29.0490 C.ar      1 CJP         0.0450
     23 CL2       -11.0240   41.7830   27.7340 Cl        1 CJP        -0.0731
     24 H1         -9.0149   38.7833   28.6241 H         1 CJP         0.0495
     25 H2         -8.7426   37.8371   30.1265 H         1 CJP         0.0495
     26 H3         -7.4317   38.8738   29.4679 H         1 CJP         0.0495
     27 H4         -9.9850   37.2019   31.0645 H         1 CJP         0.0527
     28 H5        -11.7299   35.5207   31.5223 H         1 CJP         0.0519
     29 H6        -14.0952   36.1569   31.7189 H         1 CJP         0.0491
     30 H7        -14.9119   41.0797   30.3764 H         1 CJP         0.0907
     31 H8        -13.8448   42.5237   30.4292 H         1 CJP         0.0907
     32 H9        -15.3018   42.4148   32.2975 H         1 CJP         0.2002
     33 H10       -13.7366   42.2642   32.7840 H         1 CJP         0.2002
     34 H11       -14.7144   40.9409   32.7356 H         1 CJP         0.2002
     35 H12       -14.8067   38.5262   31.4694 H         1 CJP         0.0532
     36 H13       -11.3907   43.1487   32.4838 H         1 CJP         0.0589
     37 H14       -10.9475   45.5311   31.9690 H         1 CJP         0.0614
     38 H15       -10.5913   44.6807   27.7829 H         1 CJP         0.0618
@<TRIPOS>BOND
     1    1    2 2  
     2    2    3 2  
     3    2    4 1  
     4    2    5 am 
     5    5    6 1  
     6    5   10 1  
     7    6    7 ar 
     8    6   14 ar 
     9    7    8 ar 
    10    8    9 ar 
    11    9   15 ar 
    12   10   11 2  
    13   10   16 1  
    14   11   12 1  
    15   11   14 1  
    16   12   13 1  
    17   14   15 ar 
    18   16   17 ar 
    19   16   22 ar 
    20   17   18 ar 
    21   18   19 ar 
    22   19   20 1  
    23   19   21 ar 
    24   21   22 ar 
    25   22   23 1  
    26    4   24 1  
    27    4   25 1  
    28    4   26 1  
    29    7   27 1  
    30    8   28 1  
    31    9   29 1  
    32   12   30 1  
    33   12   31 1  
    34   13   32 1  
    35   13   33 1  
    36   13   34 1  
    37   15   35 1  
    38   17   36 1  
    39   18   37 1  
    40   21   38 1  
@<TRIPOS>SUBSTRUCTURE
     1 CJP         1

