### 
### Created by X-TOOL on Mon Sep 10 21:13:16 2018
### 

@<TRIPOS>MOLECULE
4pvo_ligand
   26    27     1     0     0
SMALL
GAST_HUCK


@<TRIPOS>ATOM
      1 CL1       -25.3700   -1.4860   64.4650 Cl        1 SVB        -0.0772
      2 C1        -25.7660   -1.5810   62.7800 C.ar      1 SVB         0.0422
      3 C2        -25.7210   -2.7730   62.1510 C.ar      1 SVB        -0.0122
      4 C3        -25.2730   -4.0070   62.8890 C.3       1 SVB         0.0009
      5 C4        -26.3050   -5.0450   63.2680 C.2       1 SVB         0.0457
      6 S5        -27.7960   -5.3830   62.7980 S.3       1 SVB        -0.0277
      7 C6        -28.1500   -6.6820   63.6890 C.2       1 SVB         0.1407
      8 N7        -27.0630   -7.0690   64.5550 N.am      1 SVB        -0.2146
      9 C8        -27.0450   -8.1660   65.4740 C.3       1 SVB         0.0505
     10 C9        -25.8950   -6.0290   64.2830 C.2       1 SVB         0.1884
     11 O10       -24.6790   -6.0930   64.9400 O.3       1 SVB        -0.3255
     12 S11       -29.5790   -7.6630   63.7780 S.2       1 SVB        -0.2885
     13 C12       -26.0430   -2.8760   60.6870 C.ar      1 SVB         0.0558
     14 CL2       -25.9530   -4.4540   59.9180 Cl        1 SVB        -0.0768
     15 C13       -26.4100   -1.7370   60.0520 C.ar      1 SVB         0.0475
     16 CL3       -26.8270   -1.7050   58.3750 Cl        1 SVB        -0.0718
     17 C14       -26.4850   -0.4030   60.7610 C.ar      1 SVB        -0.0542
     18 C15       -26.1800   -0.3230   62.0580 C.ar      1 SVB        -0.0544
     19 H         -24.7957   -3.6706   63.8212 H         1 SVB         0.0486
     20 H         -24.5270   -4.5093   62.2556 H         1 SVB         0.0486
     21 H         -28.0068   -8.6979   65.4289 H         1 SVB         0.0580
     22 H         -26.8830   -7.7873   66.4940 H         1 SVB         0.0580
     23 H         -26.2315   -8.8560   65.2055 H         1 SVB         0.0580
     24 H         -24.1199   -5.3865   64.6387 H         1 SVB         0.2433
     25 H         -26.7855    0.4854   60.2174 H         1 SVB         0.0562
     26 H         -26.2288    0.6252   62.5810 H         1 SVB         0.0605
@<TRIPOS>BOND
     1    1    2 1  
     2    2    3 ar 
     3    2   18 ar 
     4    3    4 1  
     5    3   13 ar 
     6    4    5 1  
     7    5    6 1  
     8    5   10 2  
     9    6    7 1  
    10    7    8 am 
    11    7   12 2  
    12    8    9 1  
    13    8   10 1  
    14   10   11 1  
    15   13   14 1  
    16   13   15 ar 
    17   15   16 1  
    18   15   17 ar 
    19   17   18 ar 
    20    4   19 1  
    21    4   20 1  
    22    9   21 1  
    23    9   22 1  
    24    9   23 1  
    25   11   24 1  
    26   17   25 1  
    27   18   26 1  
@<TRIPOS>SUBSTRUCTURE
     1 SVB         1

