### 
### Created by X-TOOL on Mon Sep 10 21:13:17 2018
### 

@<TRIPOS>MOLECULE
4pvt_ligand
   21    21     1     0     0
SMALL
GAST_HUCK


@<TRIPOS>ATOM
      1 C10       -28.6320    7.3030   59.0670 C.ar      1 S3C         0.0557
      2 C15       -30.6150    8.5660   57.6060 C.ar      1 S3C        -0.0539
      3 CL1       -30.8910    6.5230   55.8410 Cl        1 S3C        -0.0770
      4 C2        -30.1730    7.3010   57.2290 C.ar      1 S3C         0.0421
      5 C3        -29.1740    6.6690   57.9600 C.ar      1 S3C        -0.0118
      6 C4        -28.6620    5.2950   57.6060 C.3       1 S3C         0.0054
      7 C5        -27.2650    5.2990   57.0240 C.3       1 S3C         0.0643
      8 C6        -26.7290    4.0110   56.4530 C.2       1 S3C         0.0495
      9 O7        -27.4470    2.9700   56.3470 O.co2     1 S3C        -0.5677
     10 O8        -25.5380    4.0090   56.0720 O.co2     1 S3C        -0.5677
     11 S9        -26.3770    6.7040   56.8100 S.3       1 S3C        -0.1576
     12 CL2       -27.3790    6.5350   60.0070 Cl        1 S3C        -0.0766
     13 C12       -29.0680    8.5580   59.4320 C.ar      1 S3C         0.0479
     14 CL3       -28.3400    9.3090   60.8150 Cl        1 S3C        -0.0716
     15 C14       -30.0610    9.1920   58.7070 C.ar      1 S3C        -0.0538
     16 H         -31.3936    9.0602   57.0362 H         1 S3C         0.0607
     17 H         -29.3447    4.8493   56.8676 H         1 S3C         0.0458
     18 H         -28.6566    4.6804   58.5183 H         1 S3C         0.0458
     19 H         -26.8107    5.1165   58.0090 H         1 S3C         0.0600
     20 H         -25.4689    6.5939   57.2334 H         1 S3C         0.1040
     21 H         -30.4039   10.1773   59.0015 H         1 S3C         0.0565
@<TRIPOS>BOND
     1    5    1 ar 
     2    1   12 1  
     3    1   13 ar 
     4    4    2 ar 
     5    2   15 ar 
     6    4    3 1  
     7    4    5 ar 
     8    5    6 1  
     9    6    7 1  
    10    7    8 1  
    11    7   11 1  
    12    8    9 ar 
    13    8   10 ar 
    14   13   14 1  
    15   13   15 ar 
    16    2   16 1  
    17    6   17 1  
    18    6   18 1  
    19    7   19 1  
    20   11   20 1  
    21   15   21 1  
@<TRIPOS>SUBSTRUCTURE
     1 S3C         1

