### 
### Created by X-TOOL on Mon Sep 10 21:13:20 2018
### 

@<TRIPOS>MOLECULE
4pvv_ligand
   39    41     1     0     0
SMALL
GAST_HUCK


@<TRIPOS>ATOM
      1 C11         9.8810   -2.8110    8.5070 C.3       1 HO4        -0.0605
      2 C10        10.2290   -2.0650    9.7610 C.3       1 HO4        -0.0379
      3 C7         11.4530   -1.6470   10.3310 C.2       1 HO4        -0.0368
      4 C8         11.4870   -0.4580   10.8750 C.2       1 HO4         0.0255
      5 C5         12.4590   -2.4030   10.8200 C.ar      1 HO4         0.0492
      6 C6         12.8900   -3.6520   10.6010 C.ar      1 HO4         0.1163
      7 N6         12.2470   -4.3710    9.7490 N.pl3     1 HO4        -0.3155
      8 N1         13.9520   -4.1460   11.1790 N.ar      1 HO4        -0.2738
      9 C2         14.6440   -3.3640   12.1040 C.ar      1 HO4         0.0493
     10 N3         14.2230   -2.0510   12.3390 N.ar      1 HO4        -0.2783
     11 C4         13.1310   -1.6080   11.7030 C.ar      1 HO4         0.1364
     12 N9         12.5190   -0.4300   11.7260 N.pl3     1 HO4        -0.2331
     13 C1'        12.9290    0.6750   12.5410 C.3       1 HO4         0.1931
     14 O4'        11.9520    0.8620   13.5790 O.3       1 HO4        -0.3376
     15 C4'        12.1980    2.1340   14.0850 C.3       1 HO4         0.1135
     16 C5'        10.9920    2.5450   14.9300 C.3       1 HO4         0.0730
     17 O5'        10.7780    1.5060   15.9320 O.3       1 HO4        -0.3924
     18 C3'        12.3400    2.9940   12.8280 C.3       1 HO4         0.1145
     19 O3'        13.2560    4.0260   13.0190 O.3       1 HO4        -0.3864
     20 C2'        12.8360    1.9950   11.7740 C.3       1 HO4         0.1376
     21 O2'        14.0690    2.3870   11.1790 O.3       1 HO4        -0.3837
     22 H           8.7893   -2.9293    8.4418 H         1 HO4         0.0244
     23 H          10.3567   -3.8026    8.5262 H         1 HO4         0.0244
     24 H          10.2416   -2.2481    7.6334 H         1 HO4         0.0244
     25 H           9.7792   -2.6809   10.5537 H         1 HO4         0.0352
     26 H           9.6642   -1.1264    9.6609 H         1 HO4         0.0352
     27 H          10.7992    0.3615   10.6718 H         1 HO4         0.0789
     28 H          12.5509   -5.3360    9.5561 H         1 HO4         0.1828
     29 H          11.4285   -3.9814    9.2600 H         1 HO4         0.1828
     30 H          15.4981   -3.7692   12.6345 H         1 HO4         0.0974
     31 H          13.9393    0.5054   12.9416 H         1 HO4         0.0985
     32 H          13.1152    2.1653   14.6915 H         1 HO4         0.0647
     33 H          10.1014    2.6387   14.2913 H         1 HO4         0.0584
     34 H          11.1914    3.5071   15.4246 H         1 HO4         0.0584
     35 H          11.5526    1.4283   16.4764 H         1 HO4         0.2095
     36 H          11.3696    3.4213   12.5353 H         1 HO4         0.0648
     37 H          13.3219    4.5407   12.2233 H         1 HO4         0.2100
     38 H          12.0896    1.9029   10.9713 H         1 HO4         0.0676
     39 H          13.9601    3.2290   10.7529 H         1 HO4         0.2101
@<TRIPOS>BOND
     1    1    2 1  
     2    2    3 1  
     3    3    4 2  
     4    3    5 1  
     5    4   12 1  
     6    5    6 ar 
     7    5   11 ar 
     8    6    7 1  
     9    6    8 ar 
    10    8    9 ar 
    11    9   10 ar 
    12   10   11 ar 
    13   11   12 1  
    14   12   13 1  
    15   13   14 1  
    16   13   20 1  
    17   14   15 1  
    18   15   16 1  
    19   15   18 1  
    20   16   17 1  
    21   18   19 1  
    22   18   20 1  
    23   20   21 1  
    24    1   22 1  
    25    1   23 1  
    26    1   24 1  
    27    2   25 1  
    28    2   26 1  
    29    4   27 1  
    30    7   28 1  
    31    7   29 1  
    32    9   30 1  
    33   13   31 1  
    34   15   32 1  
    35   16   33 1  
    36   16   34 1  
    37   17   35 1  
    38   18   36 1  
    39   19   37 1  
    40   20   38 1  
    41   21   39 1  
@<TRIPOS>SUBSTRUCTURE
     1 HO4         1

