### 
### Created by X-TOOL on Mon Sep 10 21:13:17 2018
### 

@<TRIPOS>MOLECULE
4px6_ligand
   53    57     1     0     0
SMALL
GAST_HUCK


@<TRIPOS>ATOM
      1 C1         -0.9810    4.7510   12.4490 C.3       1 2X6        -0.0076
      2 C2         -1.0480    5.6860   11.2470 C.3       1 2X6        -0.0478
      3 C3         -0.1230    5.2270   10.1380 C.3       1 2X6        -0.0506
      4 C11         6.7290    0.7840   15.3760 C.2       1 2X6         0.1304
      5 C12         2.7170    0.9000   14.1860 C.ar      1 2X6         0.1290
      6 C13         0.4720   -0.2240   14.2590 C.ar      1 2X6         0.0839
      7 C14        -0.2720    0.6600   13.5030 C.ar      1 2X6        -0.0537
      8 C15        -1.6450    0.4370   13.2580 C.ar      1 2X6        -0.0908
      9 C16        -2.3080   -0.6570   13.7530 C.ar      1 2X6        -0.0885
     10 C17        -1.5830   -1.5720   14.5240 C.ar      1 2X6        -0.0370
     11 C18        -0.2050   -1.3600   14.7760 C.ar      1 2X6         0.0906
     12 C19        -0.8290   -3.2840   15.7980 C.2       1 2X6         0.0193
     13 C20        -1.9570   -2.7890   15.1760 C.2       1 2X6        -0.0676
     14 O           3.8660   -1.2410   15.8370 O.2       1 2X6        -0.3934
     15 C10         4.5500   -0.2890   15.4360 C.2       1 2X6         0.2312
     16 N2          5.9160   -0.2660   15.8030 N.am      1 2X6        -0.1983
     17 N3          6.3340    1.7940   14.6390 N.2       1 2X6        -0.2935
     18 C8          4.9760    1.8230   14.2420 C.ar      1 2X6         0.0187
     19 C7          4.5500    2.8830   13.4650 C.ar      1 2X6        -0.0226
     20 C9          4.0780    0.8010   14.6270 C.ar      1 2X6         0.0977
     21 N6          2.2670    1.9360   13.4170 N.ar      1 2X6        -0.2731
     22 C6          3.1850    2.9040   13.0710 C.ar      1 2X6         0.0905
     23 N1          2.7430    3.9510   12.2980 N.pl3     1 2X6        -0.3028
     24 C5          1.3540    4.0790   11.8310 C.3       1 2X6         0.0805
     25 C4          1.3020    5.0390   10.6450 C.3       1 2X6        -0.0248
     26 C           0.4380    4.6100   12.9830 C.3       1 2X6        -0.0011
     27 N           0.9560    5.9130   13.4250 N.4       1 2X6         0.2224
     28 N4          1.8460   -0.1000   14.5650 N.pl3     1 2X6        -0.2632
     29 N5          0.2480   -2.4220   15.5620 N.pl3     1 2X6        -0.2822
     30 H          -1.3474    3.7585   12.1479 H         1 2X6         0.0320
     31 H          -1.6227    5.1521   13.2473 H         1 2X6         0.0320
     32 H          -0.7532    6.6974   11.5633 H         1 2X6         0.0267
     33 H          -2.0800    5.7069   10.8667 H         1 2X6         0.0267
     34 H          -0.1215    5.9817    9.3377 H         1 2X6         0.0266
     35 H          -0.4900    4.2700    9.7388 H         1 2X6         0.0266
     36 H           7.7749    0.7632   15.6788 H         1 2X6         0.1551
     37 H           0.2062    1.5409   13.0902 H         1 2X6         0.0426
     38 H          -2.1933    1.1547   12.6585 H         1 2X6         0.0482
     39 H          -3.3626   -0.8081   13.5527 H         1 2X6         0.0421
     40 H          -0.7839   -4.2023   16.3816 H         1 2X6         0.0925
     41 H          -2.9478   -3.2409   15.1807 H         1 2X6         0.0277
     42 H           6.2971   -0.9993   16.3661 H         1 2X6         0.2568
     43 H           5.2327    3.6704   13.1666 H         1 2X6         0.0433
     44 H           3.4179    4.6824   12.0325 H         1 2X6         0.1814
     45 H           0.9905    3.0911   11.5118 H         1 2X6         0.0611
     46 H           1.7014    6.0150   10.9579 H         1 2X6         0.0289
     47 H           1.9203    4.6339    9.8304 H         1 2X6         0.0289
     48 H           0.4461    3.9040   13.8265 H         1 2X6         0.0873
     49 H           0.3765    6.2703   14.1684 H         1 2X6         0.1998
     50 H           0.9458    6.5587   12.6511 H         1 2X6         0.1998
     51 H           1.9008    5.8034   13.7587 H         1 2X6         0.1998
     52 H           2.2477   -0.8511   15.1441 H         1 2X6         0.2131
     53 H           1.2096   -2.5490   15.9085 H         1 2X6         0.2254
@<TRIPOS>BOND
     1    2    1 1  
     2    1   26 1  
     3    3    2 1  
     4   25    3 1  
     5    4   16 1  
     6   17    4 2  
     7    5   20 ar 
     8   21    5 ar 
     9    5   28 1  
    10    6    7 ar 
    11    6   11 ar 
    12   28    6 1  
    13    7    8 ar 
    14    8    9 ar 
    15   10    9 ar 
    16   11   10 ar 
    17   10   13 1  
    18   11   29 1  
    19   12   13 2  
    20   29   12 1  
    21   15   14 2  
    22   15   16 am 
    23   20   15 1  
    24   18   17 1  
    25   19   18 ar 
    26   18   20 ar 
    27   22   19 ar 
    28   22   21 ar 
    29   23   22 1  
    30   24   23 1  
    31   24   25 1  
    32   24   26 1  
    33   26   27 1  
    34    1   30 1  
    35    1   31 1  
    36    2   32 1  
    37    2   33 1  
    38    3   34 1  
    39    3   35 1  
    40    4   36 1  
    41    7   37 1  
    42    8   38 1  
    43    9   39 1  
    44   12   40 1  
    45   13   41 1  
    46   16   42 1  
    47   19   43 1  
    48   23   44 1  
    49   24   45 1  
    50   25   46 1  
    51   25   47 1  
    52   26   48 1  
    53   27   49 1  
    54   27   50 1  
    55   27   51 1  
    56   28   52 1  
    57   29   53 1  
@<TRIPOS>SUBSTRUCTURE
     1 2X6         1

