### 
### Created by X-TOOL on Mon Sep 10 21:13:23 2018
### 

@<TRIPOS>MOLECULE
4pxm_ligand
   44    47     1     0     0
SMALL
GAST_HUCK


@<TRIPOS>ATOM
      1 C1         23.7790   -2.5250    4.0500 C.ar      1 EST        -0.0749
      2 C2         22.9890   -2.3190    2.7030 C.ar      1 EST        -0.0468
      3 C3         21.5740   -2.4230    2.8150 C.ar      1 EST         0.0739
      4 O3         20.8290   -2.0930    1.7670 O.3       1 EST        -0.3393
      5 C4         20.9270   -2.8240    3.9940 C.ar      1 EST        -0.0385
      6 C5         21.7090   -3.0020    5.1800 C.ar      1 EST        -0.0491
      7 C6         21.0490   -3.3620    6.6640 C.3       1 EST        -0.0236
      8 C7         22.0530   -3.9120    7.6600 C.3       1 EST        -0.0396
      9 C8         23.3040   -3.0540    7.7430 C.3       1 EST        -0.0259
     10 C9         24.1290   -3.1960    6.4340 C.3       1 EST        -0.0116
     11 C10        23.2590   -2.8850    5.2690 C.ar      1 EST        -0.0484
     12 C11        25.3640   -2.2630    6.5370 C.3       1 EST        -0.0421
     13 C12        26.2710   -2.7930    7.7310 C.3       1 EST        -0.0433
     14 C13        25.4680   -2.8130    9.0490 C.3       1 EST        -0.0028
     15 C14        24.1810   -3.6280    8.8520 C.3       1 EST        -0.0285
     16 C15        23.6110   -3.7240   10.2850 C.3       1 EST        -0.0469
     17 C16        24.8940   -3.7820   11.1890 C.3       1 EST        -0.0261
     18 C17        26.0830   -3.5400   10.2480 C.3       1 EST         0.0609
     19 O17        27.1200   -2.7800   10.8660 O.3       1 EST        -0.3912
     20 C18        25.1410   -1.3760    9.4960 C.3       1 EST        -0.0569
     21 H1         24.8504   -2.3651    4.0105 H         1 EST         0.0511
     22 H2         23.4856   -2.1135    1.7616 H         1 EST         0.0468
     23 H3         20.9885   -1.1844    1.5400 H         1 EST         0.2457
     24 H4         19.8567   -2.9955    4.0065 H         1 EST         0.0462
     25 H5         20.2569   -4.1114    6.5194 H         1 EST         0.0410
     26 H6         20.6125   -2.4431    7.0823 H         1 EST         0.0410
     27 H7         22.3396   -4.9279    7.3506 H         1 EST         0.0290
     28 H8         21.5826   -3.9502    8.6536 H         1 EST         0.0290
     29 H9         23.0442   -2.0026    7.9356 H         1 EST         0.0326
     30 H10        24.4811   -4.2335    6.3361 H         1 EST         0.0429
     31 H11        25.0390   -1.2323    6.7422 H         1 EST         0.0286
     32 H12        25.9320   -2.2878    5.5954 H         1 EST         0.0286
     33 H13        27.1412   -2.1302    7.8469 H         1 EST         0.0273
     34 H14        26.6144   -3.8122    7.5004 H         1 EST         0.0273
     35 H15        24.4459   -4.6460    8.5304 H         1 EST         0.0311
     36 H16        23.0037   -4.6331   10.4062 H         1 EST         0.0269
     37 H17        23.0009   -2.8408   10.5251 H         1 EST         0.0269
     38 H18        24.9801   -4.7683   11.6684 H         1 EST         0.0290
     39 H19        24.8529   -3.0008   11.9623 H         1 EST         0.0290
     40 H20        26.5063   -4.5027    9.9254 H         1 EST         0.0599
     41 H21        27.4399   -3.2454   11.6299 H         1 EST         0.2098
     42 H22        24.6958   -0.8230    8.6557 H         1 EST         0.0236
     43 H23        26.0648   -0.8729    9.8177 H         1 EST         0.0236
     44 H24        24.4288   -1.4057   10.3338 H         1 EST         0.0236
@<TRIPOS>BOND
     1    1    2 ar 
     2    1   11 ar 
     3    2    3 ar 
     4    3    4 1  
     5    3    5 ar 
     6    5    6 ar 
     7    6    7 1  
     8    6   11 ar 
     9    7    8 1  
    10    8    9 1  
    11    9   10 1  
    12    9   15 1  
    13   10   11 1  
    14   10   12 1  
    15   12   13 1  
    16   13   14 1  
    17   14   15 1  
    18   14   18 1  
    19   14   20 1  
    20   15   16 1  
    21   16   17 1  
    22   17   18 1  
    23   18   19 1  
    24    1   21 1  
    25    2   22 1  
    26    4   23 1  
    27    5   24 1  
    28    7   25 1  
    29    7   26 1  
    30    8   27 1  
    31    8   28 1  
    32    9   29 1  
    33   10   30 1  
    34   12   31 1  
    35   12   32 1  
    36   13   33 1  
    37   13   34 1  
    38   15   35 1  
    39   16   36 1  
    40   16   37 1  
    41   17   38 1  
    42   17   39 1  
    43   18   40 1  
    44   19   41 1  
    45   20   42 1  
    46   20   43 1  
    47   20   44 1  
@<TRIPOS>SUBSTRUCTURE
     1 EST         1

