### 
### Created by X-TOOL on Mon Sep 10 21:13:18 2018
### 

@<TRIPOS>MOLECULE
4py1_ligand
   42    45     1     0     0
SMALL
GAST_HUCK


@<TRIPOS>ATOM
      1 N3          9.3650  -11.3980   16.2790 N.2       1 2YK        -0.2693
      2 C4          7.2510   -9.8080   17.8420 C.2       1 2YK         0.0113
      3 N2          6.2390   -8.9960   18.1820 N.2       1 2YK        -0.2128
      4 C7          9.6320   -8.6280   12.8070 C.2       1 2YK         0.1414
      5 C6         10.3350  -10.8180   14.3980 C.2       1 2YK         0.1773
      6 C9         11.0960  -10.5910   13.2140 C.2       1 2YK         0.0084
      7 C13         5.5160   -5.2170   14.1660 C.ar      1 2YK        -0.0482
      8 C8         10.7480   -9.5050   12.4260 C.2       1 2YK        -0.0045
      9 N5          9.2800   -9.8760   14.6670 N.pl3     1 2YK        -0.1118
     10 C16         8.9430   -5.4880   16.1500 C.3       1 2YK         0.0555
     11 C17         3.3430   -5.8420   11.3760 C.3       1 2YK         0.0568
     12 O2          3.9810   -5.4660   12.5470 O.3       1 2YK        -0.3300
     13 C12         5.3310   -5.6790   12.8590 C.ar      1 2YK         0.0741
     14 C11         6.4330   -6.2490   12.1250 C.ar      1 2YK        -0.0268
     15 C14         6.7390   -5.2650   14.7660 C.ar      1 2YK        -0.0466
     16 C15         7.8550   -5.8200   14.0890 C.ar      1 2YK         0.0941
     17 O1          9.0540   -5.7630   14.7540 O.3       1 2YK        -0.3309
     18 C10         7.7320   -6.3570   12.7470 C.ar      1 2YK         0.0542
     19 S           9.0850   -7.1660   11.8550 S.3       1 2YK        -0.0234
     20 N4         10.3410  -11.7330   15.4010 N.2       1 2YK        -0.2737
     21 N6          8.9420   -8.8410   13.8970 N.2       1 2YK        -0.1339
     22 C5          8.7080  -10.2540   15.8680 C.2       1 2YK         0.1731
     23 C3          7.6530   -9.5600   16.5040 C.2       1 2YK         0.0510
     24 C2          6.8290   -8.4980   16.0210 C.2       1 2YK         0.0693
     25 N1          5.9870   -8.2170   17.0710 N.pl3     1 2YK        -0.2049
     26 C1          4.8980   -7.2490   17.0970 C.3       1 2YK         0.0617
     27 H           7.7000  -10.5514   18.4990 H         1 2YK         0.0680
     28 H          11.9206  -11.2469   12.9387 H         1 2YK         0.0761
     29 H           4.6711   -4.8132   14.7121 H         1 2YK         0.0461
     30 H          11.3077   -9.2994   11.5147 H         1 2YK         0.0721
     31 H           9.9467   -5.4609   16.5993 H         1 2YK         0.0570
     32 H           8.3464   -6.2761   16.6327 H         1 2YK         0.0570
     33 H           8.4505   -4.5150   16.2941 H         1 2YK         0.0570
     34 H           2.2861   -5.5404   11.4212 H         1 2YK         0.0573
     35 H           3.4080   -6.9336   11.2572 H         1 2YK         0.0573
     36 H           3.8282   -5.3504   10.5199 H         1 2YK         0.0573
     37 H           6.2870   -6.5958   11.1084 H         1 2YK         0.0466
     38 H           6.8599   -4.8752   15.7703 H         1 2YK         0.0497
     39 H           6.8605   -8.0196   15.0432 H         1 2YK         0.1048
     40 H           4.8497   -6.7254   16.1308 H         1 2YK         0.0608
     41 H           5.0750   -6.5194   17.9009 H         1 2YK         0.0608
     42 H           3.9472   -7.7715   17.2788 H         1 2YK         0.0608
@<TRIPOS>BOND
     1    1   20 1  
     2   22    1 2  
     3    2    3 2  
     4   23    2 1  
     5    3   25 1  
     6    4    8 1  
     7    4   19 1  
     8   21    4 2  
     9    5    6 1  
    10    9    5 1  
    11    5   20 2  
    12    6    8 2  
    13   13    7 ar 
    14   15    7 ar 
    15    9   21 1  
    16   22    9 1  
    17   17   10 1  
    18   12   11 1  
    19   13   12 1  
    20   14   13 ar 
    21   18   14 ar 
    22   16   15 ar 
    23   16   17 1  
    24   18   16 ar 
    25   19   18 1  
    26   22   23 1  
    27   23   24 2  
    28   24   25 1  
    29   25   26 1  
    30    2   27 1  
    31    6   28 1  
    32    7   29 1  
    33    8   30 1  
    34   10   31 1  
    35   10   32 1  
    36   10   33 1  
    37   11   34 1  
    38   11   35 1  
    39   11   36 1  
    40   14   37 1  
    41   15   38 1  
    42   24   39 1  
    43   26   40 1  
    44   26   41 1  
    45   26   42 1  
@<TRIPOS>SUBSTRUCTURE
     1 2YK         1

