### 
### Created by X-TOOL on Mon Sep 10 21:13:23 2018
### 

@<TRIPOS>MOLECULE
4py2_ligand
   40    41     1     0     0
SMALL
GAST_HUCK


@<TRIPOS>ATOM
      1 CAH        29.2100   10.1610   11.3400 C.ar      1 43E        -0.0413
      2 CAS        28.0730   10.6210   10.6760 C.ar      1 43E         0.0345
      3 CLB        27.9960   10.5410    8.9770 Cl        1 43E        -0.0725
      4 CAG        26.9640   11.1640   11.3400 C.ar      1 43E        -0.0409
      5 CAT        26.9420   11.2550   12.7420 C.ar      1 43E         0.0345
      6 CLC        25.4560   11.9760   13.4590 Cl        1 43E        -0.0725
      7 CAI        28.1110   10.7770   13.4300 C.ar      1 43E        -0.0413
      8 CAU        29.2260   10.2470   12.7390 C.ar      1 43E         0.0022
      9 CAM        30.5320    9.7260   13.4270 C.3       1 43E         0.0001
     10 NAN        30.4350    8.3640   13.9220 N.4       1 43E         0.2391
     11 CAK        30.5350    7.3270   12.8840 C.3       1 43E        -0.0305
     12 CAJ        30.7850    5.9300   13.5430 C.3       1 43E         0.0074
     13 CAL        30.6890    4.7270   12.5720 C.3       1 43E         0.0364
     14 NAO        29.3190    4.5200   12.2400 N.am      1 43E        -0.2689
     15 CAR        28.9360    3.6960   11.1580 C.2       1 43E         0.2802
     16 OAA        29.7820    3.1350   10.4930 O.2       1 43E        -0.3932
     17 NAP        27.5280    3.5470   10.9450 N.am      1 43E        -0.2361
     18 CAV        26.9660    2.7970    9.8900 C.2       1 43E         0.0428
     19 CAE        25.4530    2.8810    9.5500 C.2       1 43E        -0.0496
     20 CAD        25.2010    2.0470    8.3930 C.2       1 43E        -0.0130
     21 SAQ        26.5860    1.3340    7.8870 S.3       1 43E        -0.0723
     22 CAF        27.6640    1.9220    8.9470 C.2       1 43E        -0.0054
     23 H1         30.0517    9.7514   10.7934 H         1 43E         0.0565
     24 H2         26.1150   11.5172   10.7660 H         1 43E         0.0571
     25 H3         28.1387   10.8243   14.5126 H         1 43E         0.0565
     26 H4         30.7635   10.3868   14.2754 H         1 43E         0.0979
     27 H5         31.3507    9.7702   12.6937 H         1 43E         0.0979
     28 H6         29.5458    8.2604   14.3853 H         1 43E         0.2028
     29 H7         31.1790    8.2170   14.5860 H         1 43E         0.2028
     30 H8         31.3707    7.5662   12.2099 H         1 43E         0.0814
     31 H9         29.5976    7.2957   12.3092 H         1 43E         0.0814
     32 H10        30.0383    5.7882   14.3382 H         1 43E         0.0336
     33 H11        31.7931    5.9348   13.9832 H         1 43E         0.0336
     34 H12        31.0931    3.8261   13.0568 H         1 43E         0.0519
     35 H13        31.2635    4.9410   11.6587 H         1 43E         0.0519
     36 H14        28.6114    4.9687   12.7859 H         1 43E         0.1850
     37 H15        26.9055    4.0017   11.5820 H         1 43E         0.2167
     38 H16        24.7094    3.4663   10.0889 H         1 43E         0.0399
     39 H17        24.2269    1.9128    7.9250 H         1 43E         0.0719
     40 H18        28.7305    1.7021    8.9555 H         1 43E         0.0411
@<TRIPOS>BOND
     1    1    2 ar 
     2    1    8 ar 
     3    2    3 1  
     4    2    4 ar 
     5    4    5 ar 
     6    5    6 1  
     7    5    7 ar 
     8    7    8 ar 
     9    8    9 1  
    10    9   10 1  
    11   10   11 1  
    12   11   12 1  
    13   12   13 1  
    14   13   14 1  
    15   14   15 am 
    16   15   16 2  
    17   15   17 am 
    18   17   18 1  
    19   18   19 1  
    20   18   22 2  
    21   19   20 2  
    22   20   21 1  
    23   21   22 1  
    24    1   23 1  
    25    4   24 1  
    26    7   25 1  
    27    9   26 1  
    28    9   27 1  
    29   10   28 1  
    30   10   29 1  
    31   11   30 1  
    32   11   31 1  
    33   12   32 1  
    34   12   33 1  
    35   13   34 1  
    36   13   35 1  
    37   14   36 1  
    38   17   37 1  
    39   19   38 1  
    40   20   39 1  
    41   22   40 1  
@<TRIPOS>SUBSTRUCTURE
     1 43E         1

