### 
### Created by X-TOOL on Mon Sep 10 21:13:24 2018
### 

@<TRIPOS>MOLECULE
4py4_ligand
   45    47     1     0     0
SMALL
GAST_HUCK


@<TRIPOS>ATOM
      1 C01       -24.2510   -7.1500   10.8830 C.ar      1 XL2        -0.0213
      2 C02       -24.6600   -7.6430    9.6000 C.ar      1 XL2         0.1255
      3 C03       -24.6270   -9.0380    9.3590 C.ar      1 XL2        -0.0146
      4 C04       -24.1970   -9.9270   10.3770 C.ar      1 XL2         0.0541
      5 C05       -23.7770   -9.4570   11.6650 C.ar      1 XL2         0.0286
      6 C06       -23.8150   -8.0550   11.9040 C.ar      1 XL2         0.0467
      7 S07       -24.0270  -11.6330   10.4510 S.3       1 XL2         0.0317
      8 C08       -23.4420  -11.7740   12.0440 C.2       1 XL2         0.2038
      9 N09       -23.3780  -10.4770   12.5530 N.2       1 XL2        -0.3003
     10 C10       -23.3870   -7.5050   13.2360 C.2       1 XL2         0.1942
     11 O11       -23.0050   -8.2620   14.0830 O.2       1 XL2        -0.3897
     12 N12       -23.4230   -6.1230   13.4550 N.am      1 XL2        -0.3017
     13 F13       -25.0680   -6.8280    8.6200 F         1 XL2        -0.1901
     14 N14       -23.1180  -13.0600   12.6580 N.pl3     1 XL2        -0.2357
     15 C15       -22.3690  -13.2050   13.8350 C.ar      1 XL2         0.0637
     16 C16       -21.2390  -14.0710   13.8310 C.ar      1 XL2        -0.0431
     17 C17       -20.4980  -14.2390   15.0030 C.ar      1 XL2        -0.0636
     18 C18       -20.8710  -13.5530   16.2010 C.ar      1 XL2        -0.0064
     19 C19       -21.9740  -12.7180   16.1890 C.ar      1 XL2        -0.0636
     20 C20       -22.7490  -12.5410   14.9800 C.ar      1 XL2        -0.0431
     21 C21       -20.0560  -13.7360   17.4650 C.3       1 XL2         0.0047
     22 C22       -20.8420  -13.1380   18.5840 C.3       1 XL2        -0.0130
     23 N23       -19.6300  -15.1140   17.6700 N.4       1 XL2         0.2434
     24 C24       -19.6180  -15.5060   19.0400 C.3       1 XL2        -0.0419
     25 C25       -18.2580  -15.3470   17.1710 C.3       1 XL2        -0.0419
     26 H1        -24.2720   -6.0846   11.0816 H         1 XL2         0.0592
     27 H2        -24.9311   -9.4274    8.3941 H         1 XL2         0.0581
     28 H3        -23.1399   -5.7492   14.3383 H         1 XL2         0.1804
     29 H4        -23.7318   -5.5095   12.7282 H         1 XL2         0.1804
     30 H5        -23.4616  -13.9145   12.1969 H         1 XL2         0.2228
     31 H6        -20.9560  -14.5958   12.9257 H         1 XL2         0.0524
     32 H7        -19.6342  -14.8939   15.0045 H         1 XL2         0.0532
     33 H8        -22.2600  -12.1921   17.0927 H         1 XL2         0.0532
     34 H9        -23.6183  -11.8935   14.9756 H         1 XL2         0.0524
     35 H10       -19.1353  -13.1435   17.3594 H         1 XL2         0.0992
     36 H11       -21.1123  -12.1025   18.3298 H         1 XL2         0.0304
     37 H12       -20.2359  -13.1439   19.5020 H         1 XL2         0.0304
     38 H13       -21.7571  -13.7268   18.7450 H         1 XL2         0.0304
     39 H14       -20.2696  -15.7093   17.1674 H         1 XL2         0.2043
     40 H15       -19.2881  -16.5524   19.1191 H         1 XL2         0.0778
     41 H16       -20.6306  -15.4082   19.4583 H         1 XL2         0.0778
     42 H17       -18.9259  -14.8601   19.6002 H         1 XL2         0.0778
     43 H18       -18.2003  -15.0618   16.1102 H         1 XL2         0.0778
     44 H19       -18.0046  -16.4120   17.2786 H         1 XL2         0.0778
     45 H20       -17.5483  -14.7406   17.7528 H         1 XL2         0.0778
@<TRIPOS>BOND
     1    1    2 ar 
     2    1    6 ar 
     3    2    3 ar 
     4    2   13 1  
     5    3    4 ar 
     6    4    5 ar 
     7    4    7 1  
     8    5    6 ar 
     9    5    9 1  
    10    6   10 1  
    11    7    8 1  
    12    8    9 2  
    13    8   14 1  
    14   10   11 2  
    15   10   12 am 
    16   14   15 1  
    17   15   16 ar 
    18   15   20 ar 
    19   16   17 ar 
    20   17   18 ar 
    21   18   19 ar 
    22   18   21 1  
    23   19   20 ar 
    24   21   22 1  
    25   21   23 1  
    26   23   24 1  
    27   23   25 1  
    28    1   26 1  
    29    3   27 1  
    30   12   28 1  
    31   12   29 1  
    32   14   30 1  
    33   16   31 1  
    34   17   32 1  
    35   19   33 1  
    36   20   34 1  
    37   21   35 1  
    38   22   36 1  
    39   22   37 1  
    40   22   38 1  
    41   23   39 1  
    42   24   40 1  
    43   24   41 1  
    44   24   42 1  
    45   25   43 1  
    46   25   44 1  
    47   25   45 1  
@<TRIPOS>SUBSTRUCTURE
     1 XL2         1

