### 
### Created by X-TOOL on Mon Sep 10 21:13:16 2018
### 

@<TRIPOS>MOLECULE
4pyn_ligand
   46    48     1     0     0
SMALL
GAST_HUCK


@<TRIPOS>ATOM
      1 N         -10.3550  -11.2210   15.7120 N.4       1 SAH         0.2327
      2 CA        -10.8820  -10.3010   14.6820 C.3       1 SAH         0.0291
      3 CB        -12.2070   -9.6430   15.1200 C.3       1 SAH         0.0114
      4 CG        -13.2660  -10.6360   15.5450 C.3       1 SAH         0.0005
      5 SD        -14.8390   -9.7880   15.7240 S.3       1 SAH        -0.1578
      6 C          -9.8470   -9.2270   14.3870 C.2       1 SAH         0.0844
      7 O          -9.9000   -8.6930   13.2810 O.co2     1 SAH        -0.5643
      8 OXT        -9.0190   -8.9020   15.2560 O.co2     1 SAH        -0.5643
      9 C5'       -15.8040  -11.0750   16.5320 C.3       1 SAH         0.0226
     10 C4'       -16.1070  -12.2820   15.6210 C.3       1 SAH         0.0995
     11 O4'       -16.5710  -13.3420   16.4690 O.3       1 SAH        -0.3383
     12 C3'       -17.2010  -12.0300   14.5790 C.3       1 SAH         0.1132
     13 O3'       -16.7820  -12.2660   13.2290 O.3       1 SAH        -0.3864
     14 C2'       -18.3220  -13.0010   15.0410 C.3       1 SAH         0.1385
     15 O2'       -19.1340  -13.5240   13.9780 O.3       1 SAH        -0.3836
     16 C1'       -17.5480  -14.0850   15.7570 C.3       1 SAH         0.2009
     17 N9        -18.3090  -14.8500   16.7520 N.pl3     1 SAH        -0.1919
     18 C8        -19.2100  -14.3390   17.6400 C.2       1 SAH         0.1123
     19 N7        -19.6190  -15.3030   18.5030 N.2       1 SAH        -0.2958
     20 C5        -18.9560  -16.4440   18.1050 C.ar      1 SAH         0.1045
     21 C6        -18.9450  -17.7730   18.5920 C.ar      1 SAH         0.1298
     22 N6        -19.7040  -18.1610   19.6540 N.pl3     1 SAH        -0.3152
     23 N1        -18.1670  -18.6540   17.9670 N.ar      1 SAH        -0.2698
     24 C2        -17.4360  -18.2640   16.9070 C.ar      1 SAH         0.0533
     25 N3        -17.3680  -17.0400   16.3650 N.ar      1 SAH        -0.2714
     26 C4        -18.1360  -16.1560   16.9920 C.ar      1 SAH         0.1613
     27 H         -11.0404  -11.9335   15.9084 H         1 SAH         0.2010
     28 H         -10.1568  -10.7042   16.5544 H         1 SAH         0.2010
     29 H          -9.5085  -11.6527   15.3756 H         1 SAH         0.2010
     30 H         -11.0683  -10.8771   13.7636 H         1 SAH         0.1024
     31 H         -12.5993   -9.0564   14.2762 H         1 SAH         0.0347
     32 H         -11.9989   -8.9730   15.9672 H         1 SAH         0.0347
     33 H         -12.9810  -11.0879   16.5065 H         1 SAH         0.0379
     34 H         -13.3581  -11.4236   14.7826 H         1 SAH         0.0379
     35 H         -16.7588  -10.6392   16.8611 H         1 SAH         0.0402
     36 H         -15.2429  -11.4325   17.4080 H         1 SAH         0.0402
     37 H         -15.1831  -12.5800   15.1038 H         1 SAH         0.0632
     38 H         -17.5502  -10.9891   14.6465 H         1 SAH         0.0647
     39 H         -16.5084  -13.1711   13.1372 H         1 SAH         0.2100
     40 H         -18.9882  -12.4845   15.7477 H         1 SAH         0.0676
     41 H         -18.5855  -14.0047   13.3692 H         1 SAH         0.2101
     42 H         -17.0957  -14.7758   15.0302 H         1 SAH         0.0996
     43 H         -19.5521  -13.3052   17.6542 H         1 SAH         0.1349
     44 H         -19.6709  -19.1370   19.9815 H         1 SAH         0.1820
     45 H         -20.3112  -17.4785   20.1298 H         1 SAH         0.1820
     46 H         -16.8307  -19.0299   16.4358 H         1 SAH         0.0996
@<TRIPOS>BOND
     1    1    2 1  
     2    2    3 1  
     3    2    6 1  
     4    3    4 1  
     5    4    5 1  
     6    5    9 1  
     7    6    7 ar 
     8    6    8 ar 
     9    9   10 1  
    10   10   11 1  
    11   10   12 1  
    12   11   16 1  
    13   12   13 1  
    14   12   14 1  
    15   14   15 1  
    16   14   16 1  
    17   16   17 1  
    18   17   18 1  
    19   17   26 1  
    20   18   19 2  
    21   19   20 1  
    22   20   21 ar 
    23   20   26 ar 
    24   21   22 1  
    25   21   23 ar 
    26   23   24 ar 
    27   24   25 ar 
    28   25   26 ar 
    29    1   27 1  
    30    1   28 1  
    31    1   29 1  
    32    2   30 1  
    33    3   31 1  
    34    3   32 1  
    35    4   33 1  
    36    4   34 1  
    37    9   35 1  
    38    9   36 1  
    39   10   37 1  
    40   12   38 1  
    41   13   39 1  
    42   14   40 1  
    43   15   41 1  
    44   16   42 1  
    45   18   43 1  
    46   22   44 1  
    47   22   45 1  
    48   24   46 1  
@<TRIPOS>SUBSTRUCTURE
     1 SAH         1

