### 
### Created by X-TOOL on Mon Sep 10 21:13:18 2018
### 

@<TRIPOS>MOLECULE
4pyo_ligand
   46    48     1     0     0
SMALL
GAST_HUCK


@<TRIPOS>ATOM
      1 N          10.5970    0.5840  -31.7590 N.4       1 SAH         0.2327
      2 CA         11.6500    1.3370  -32.4040 C.3       1 SAH         0.0291
      3 CB         11.1380    2.0200  -33.6660 C.3       1 SAH         0.0114
      4 CG         10.4490    1.0600  -34.6240 C.3       1 SAH         0.0005
      5 SD         10.2770    1.7700  -36.2250 S.3       1 SAH        -0.1578
      6 C          12.1450    2.3840  -31.4550 C.2       1 SAH         0.0844
      7 O          11.4170    2.7160  -30.5030 O.co2     1 SAH        -0.5643
      8 OXT        13.2620    2.8920  -31.6530 O.co2     1 SAH        -0.5643
      9 C5'         9.5010    0.4090  -37.0190 C.3       1 SAH         0.0226
     10 C4'        10.5440   -0.6040  -37.4700 C.3       1 SAH         0.0995
     11 O4'         9.9310   -1.8560  -37.7260 O.3       1 SAH        -0.3383
     12 C3'        11.2470   -0.2040  -38.7490 C.3       1 SAH         0.1132
     13 O3'        12.6390   -0.2710  -38.4940 O.3       1 SAH        -0.3864
     14 C2'        10.8510   -1.2460  -39.7740 C.3       1 SAH         0.1385
     15 O2'        11.9470   -1.5970  -40.6030 O.3       1 SAH        -0.3836
     16 C1'        10.4400   -2.4220  -38.9170 C.3       1 SAH         0.2009
     17 N9          9.3780   -3.2550  -39.5080 N.pl3     1 SAH        -0.1919
     18 C8          8.3300   -2.8500  -40.2230 C.2       1 SAH         0.1123
     19 N7          7.5610   -3.8920  -40.5830 N.2       1 SAH        -0.2958
     20 C5          8.1210   -4.9980  -40.0890 C.ar      1 SAH         0.1045
     21 C6          7.8310   -6.4440  -40.0900 C.ar      1 SAH         0.1298
     22 N6          6.7570   -6.9500  -40.7120 N.pl3     1 SAH        -0.3152
     23 N1          8.6830   -7.2500  -39.4500 N.ar      1 SAH        -0.2698
     24 C2          9.7600   -6.7790  -38.8260 C.ar      1 SAH         0.0533
     25 N3         10.0770   -5.4870  -38.7800 N.ar      1 SAH        -0.2714
     26 C4          9.3170   -4.5660  -39.3820 C.ar      1 SAH         0.1613
     27 H          10.2559   -0.1245  -32.3896 H         1 SAH         0.2010
     28 H           9.8426    1.2052  -31.5119 H         1 SAH         0.2010
     29 H          10.9586    0.1465  -30.9260 H         1 SAH         0.2010
     30 H          12.4732    0.6569  -32.6680 H         1 SAH         0.1024
     31 H          11.9908    2.4815  -34.1854 H         1 SAH         0.0347
     32 H          10.4197    2.8006  -33.3752 H         1 SAH         0.0347
     33 H           9.4510    0.8159  -34.2310 H         1 SAH         0.0379
     34 H          11.0474    0.1403  -34.7021 H         1 SAH         0.0379
     35 H           8.9431    0.7701  -37.8955 H         1 SAH         0.0402
     36 H           8.8066   -0.0738  -36.3157 H         1 SAH         0.0402
     37 H          11.2897   -0.7133  -36.6688 H         1 SAH         0.0632
     38 H          10.9568    0.8051  -39.0767 H         1 SAH         0.0647
     39 H          12.8719   -1.1577  -38.2452 H         1 SAH         0.2100
     40 H          10.0152   -0.8929  -40.3959 H         1 SAH         0.0676
     41 H          12.6473   -1.9505  -40.0673 H         1 SAH         0.2101
     42 H          11.3178   -3.0514  -38.7087 H         1 SAH         0.0996
     43 H           8.1235   -1.8125  -40.4816 H         1 SAH         0.1349
     44 H           6.5822   -7.9649  -40.6943 H         1 SAH         0.1820
     45 H           6.1064   -6.3239  -41.2077 H         1 SAH         0.1820
     46 H          10.4144   -7.4856  -38.3284 H         1 SAH         0.0996
@<TRIPOS>BOND
     1    1    2 1  
     2    2    3 1  
     3    2    6 1  
     4    3    4 1  
     5    4    5 1  
     6    5    9 1  
     7    6    7 ar 
     8    6    8 ar 
     9    9   10 1  
    10   10   11 1  
    11   10   12 1  
    12   11   16 1  
    13   12   13 1  
    14   12   14 1  
    15   14   15 1  
    16   14   16 1  
    17   16   17 1  
    18   17   18 1  
    19   17   26 1  
    20   18   19 2  
    21   19   20 1  
    22   20   21 ar 
    23   20   26 ar 
    24   21   22 1  
    25   21   23 ar 
    26   23   24 ar 
    27   24   25 ar 
    28   25   26 ar 
    29    1   27 1  
    30    1   28 1  
    31    1   29 1  
    32    2   30 1  
    33    3   31 1  
    34    3   32 1  
    35    4   33 1  
    36    4   34 1  
    37    9   35 1  
    38    9   36 1  
    39   10   37 1  
    40   12   38 1  
    41   13   39 1  
    42   14   40 1  
    43   15   41 1  
    44   16   42 1  
    45   18   43 1  
    46   22   44 1  
    47   22   45 1  
    48   24   46 1  
@<TRIPOS>SUBSTRUCTURE
     1 SAH         1

