### 
### Created by X-TOOL on Mon Sep 10 21:13:16 2018
### 

@<TRIPOS>MOLECULE
4pyq_ligand
   40    41     1     0     0
SMALL
GAST_HUCK


@<TRIPOS>ATOM
      1 C1          2.6760  -32.6790  -34.1180 C.2       1 2X1         0.3170
      2 C2          8.4890  -32.4080  -30.9730 C.cat     1 2X1         0.2271
      3 N3          1.8610  -32.6590  -35.2900 N.am      1 2X1        -0.2158
      4 N4          4.0690  -32.5760  -34.4310 N.am      1 2X1        -0.2143
      5 C5          7.3250  -32.4800  -31.8650 C.ar      1 2X1         0.0100
      6 N6          8.3710  -32.7870  -29.6110 N.pl3     1 2X1        -0.2738
      7 O7          2.2230  -32.7590  -32.9900 O.2       1 2X1        -0.3802
      8 C8          0.4410  -32.7720  -35.4300 C.ar      1 2X1         0.0604
      9 C9          7.5260  -32.2950  -33.2140 C.ar      1 2X1        -0.0705
     10 C10         6.0690  -32.7020  -31.3420 C.ar      1 2X1        -0.0705
     11 N11         9.6070  -31.9500  -31.4500 N.pl3     1 2X1        -0.2738
     12 C12         5.1760  -32.5470  -33.5420 C.ar      1 2X1         0.0671
     13 C13        -0.0570  -32.6240  -36.7100 C.ar      1 2X1        -0.0358
     14 C14         6.4440  -32.3380  -34.0530 C.ar      1 2X1        -0.0415
     15 C15         4.9810  -32.7380  -32.1880 C.ar      1 2X1        -0.0415
     16 C16        -1.4090  -32.7380  -36.9600 C.ar      1 2X1        -0.0127
     17 N17        -3.3050  -32.7000  -38.4960 N.4       1 2X1         0.2306
     18 C18        -1.7880  -33.1690  -34.6280 C.ar      1 2X1        -0.0819
     19 C19        -0.4280  -33.0640  -34.3900 C.ar      1 2X1        -0.0484
     20 C20        -1.8810  -32.5550  -38.3680 C.3       1 2X1        -0.0052
     21 C21        -2.2820  -33.0100  -35.9140 C.ar      1 2X1        -0.0707
     22 H           2.3612  -32.5486  -36.1488 H         1 2X1         0.2261
     23 H           4.2920  -32.5166  -35.4040 H         1 2X1         0.2262
     24 H           9.1904  -32.7348  -28.9891 H         1 2X1         0.3179
     25 H           7.4660  -33.1144  -29.2441 H         1 2X1         0.3179
     26 H           8.5215  -32.1186  -33.6050 H         1 2X1         0.0576
     27 H           5.9381  -32.8469  -30.2757 H         1 2X1         0.0576
     28 H           9.6717  -31.6804  -32.4420 H         1 2X1         0.3179
     29 H          10.4289  -31.8564  -30.8363 H         1 2X1         0.3179
     30 H           0.6229  -32.4157  -37.5281 H         1 2X1         0.0437
     31 H           6.5820  -32.2079  -35.1203 H         1 2X1         0.0501
     32 H           3.9858  -32.9138  -31.7958 H         1 2X1         0.0501
     33 H          -3.5709  -32.5681  -39.4593 H         1 2X1         0.2008
     34 H          -3.7658  -32.0106  -37.9229 H         1 2X1         0.2008
     35 H          -3.5771  -33.6229  -38.1957 H         1 2X1         0.2008
     36 H          -2.4669  -33.3756  -33.8086 H         1 2X1         0.0560
     37 H          -0.0417  -33.2105  -33.3878 H         1 2X1         0.0446
     38 H          -1.3916  -33.3070  -39.0044 H         1 2X1         0.0976
     39 H          -1.5975  -31.5476  -38.7066 H         1 2X1         0.0976
     40 H          -3.3459  -33.0977  -36.1025 H         1 2X1         0.0431
@<TRIPOS>BOND
     1    1    3 am 
     2    4    1 am 
     3    1    7 2  
     4    5    2 1  
     5    2    6 ar 
     6    2   11 ar 
     7    3    8 1  
     8   12    4 1  
     9    9    5 ar 
    10    5   10 ar 
    11    8   13 ar 
    12    8   19 ar 
    13   14    9 ar 
    14   10   15 ar 
    15   12   14 ar 
    16   12   15 ar 
    17   13   16 ar 
    18   16   20 1  
    19   16   21 ar 
    20   20   17 1  
    21   19   18 ar 
    22   18   21 ar 
    23    3   22 1  
    24    4   23 1  
    25    6   24 1  
    26    6   25 1  
    27    9   26 1  
    28   10   27 1  
    29   11   28 1  
    30   11   29 1  
    31   13   30 1  
    32   14   31 1  
    33   15   32 1  
    34   17   33 1  
    35   17   34 1  
    36   17   35 1  
    37   18   36 1  
    38   19   37 1  
    39   20   38 1  
    40   20   39 1  
    41   21   40 1  
@<TRIPOS>SUBSTRUCTURE
     1 2X1         1

