### 
### Created by X-TOOL on Mon Sep 10 21:13:19 2018
### 

@<TRIPOS>MOLECULE
4pyv_ligand
   59    61     1     0     0
SMALL
GAST_HUCK


@<TRIPOS>ATOM
      1 C1         40.5120  110.1250   10.3850 C.3       1 2XF         0.0860
      2 C2         40.8260  110.3470    8.8760 C.3       1 2XF        -0.0099
      3 N3         42.2620  110.0980    8.5530 N.4       1 2XF         0.2305
      4 C4         42.9020  108.8560    9.0710 C.3       1 2XF        -0.0136
      5 C5         42.7580  108.9370   10.6060 C.3       1 2XF         0.0909
      6 C6         41.2210  108.8390   10.9020 C.3       1 2XF        -0.0002
      7 C7         43.5270  107.8990   11.4280 C.2       1 2XF         0.1888
      8 N8         44.5510  108.1630   12.3180 N.am      1 2XF        -0.2584
      9 O9         43.1100  106.7580   11.3100 O.2       1 2XF        -0.3962
     10 N10        39.0470  110.1600   10.6160 N.am      1 2XF        -0.2542
     11 C11        45.0670  109.5150   12.5940 C.3       1 2XF         0.0474
     12 C12        44.9710  107.0670   13.2010 C.3       1 2XF         0.0683
     13 C13        46.6030  109.7210   12.6260 C.3       1 2XF        -0.0274
     14 C14        45.7860  110.2870   11.4620 C.3       1 2XF        -0.0274
     15 C15        46.1990  106.1900   12.9370 C.ar      1 2XF        -0.0063
     16 C16        46.7330  105.9510   11.6620 C.ar      1 2XF        -0.0577
     17 C17        47.8200  105.0590   11.5330 C.ar      1 2XF        -0.0678
     18 C18        48.3750  104.3980   12.6450 C.ar      1 2XF        -0.0543
     19 C19        47.8170  104.6070   13.9140 C.ar      1 2XF         0.0478
     20 C20        46.7310  105.4900   14.0480 C.ar      1 2XF         0.0569
     21 CL1        46.0480  105.7210   15.6460 Cl        1 2XF        -0.0765
     22 CL2        48.4460  103.7580   15.3240 Cl        1 2XF        -0.0719
     23 C23        38.5540  111.2650   11.2530 C.2       1 2XF         0.3204
     24 O24        39.2720  112.1720   11.6640 O.2       1 2XF        -0.3775
     25 O25        37.2100  111.2660   11.3870 O.3       1 2XF        -0.2581
     26 C26        36.4720  112.3970   11.9850 C.3       1 2XF         0.0905
     27 C27        36.9550  112.9060   13.3950 C.3       1 2XF        -0.0320
     28 C28        36.5590  113.5710   10.9460 C.3       1 2XF        -0.0320
     29 C29        34.9640  112.0380   12.1250 C.3       1 2XF        -0.0320
     30 H          40.9416  110.9702   10.9427 H         1 2XF         0.0610
     31 H          40.5794  111.3861    8.6126 H         1 2XF         0.0837
     32 H          40.2056  109.6607    8.2810 H         1 2XF         0.0837
     33 H          42.7882  110.8775    8.9158 H         1 2XF         0.2016
     34 H          42.3418  110.0772    7.5484 H         1 2XF         0.2016
     35 H          43.9634  108.8205    8.7844 H         1 2XF         0.0842
     36 H          42.3871  107.9654    8.6817 H         1 2XF         0.0842
     37 H          43.1206  109.9259   10.9231 H         1 2XF         0.0592
     38 H          40.8041  107.9591   10.3903 H         1 2XF         0.0318
     39 H          41.0615  108.7425   11.9861 H         1 2XF         0.0318
     40 H          38.4505  109.4136   10.3209 H         1 2XF         0.1872
     41 H          44.4100  110.0391   13.3037 H         1 2XF         0.0560
     42 H          44.1152  106.3778   13.2522 H         1 2XF         0.0688
     43 H          45.1343  107.5228   14.1887 H         1 2XF         0.0688
     44 H          47.2753  108.8662   12.4606 H         1 2XF         0.0288
     45 H          47.0505  110.4018   13.3650 H         1 2XF         0.0288
     46 H          45.6482  111.3741   11.3659 H         1 2XF         0.0288
     47 H          45.8730  109.8385   10.4614 H         1 2XF         0.0288
     48 H          46.3179  106.4431   10.7899 H         1 2XF         0.0559
     49 H          48.2390  104.8781   10.5497 H         1 2XF         0.0601
     50 H          49.2238  103.7352   12.5216 H         1 2XF         0.0565
     51 H          36.3216  113.7451   13.7186 H         1 2XF         0.0260
     52 H          38.0004  113.2412   13.3255 H         1 2XF         0.0260
     53 H          36.8803  112.0872   14.1258 H         1 2XF         0.0260
     54 H          36.0234  114.4481   11.3382 H         1 2XF         0.0260
     55 H          36.1006  113.2556    9.9971 H         1 2XF         0.0260
     56 H          37.6138  113.8318   10.7749 H         1 2XF         0.0260
     57 H          34.4249  112.8868   12.5710 H         1 2XF         0.0260
     58 H          34.8558  111.1546   12.7714 H         1 2XF         0.0260
     59 H          34.5454  111.8190   11.1316 H         1 2XF         0.0260
@<TRIPOS>BOND
     1    1    2 1  
     2    1    6 1  
     3    1   10 1  
     4    2    3 1  
     5    3    4 1  
     6    4    5 1  
     7    5    6 1  
     8    5    7 1  
     9    7    8 am 
    10    7    9 2  
    11    8   11 1  
    12    8   12 1  
    13   10   23 am 
    14   11   13 1  
    15   11   14 1  
    16   12   15 1  
    17   13   14 1  
    18   15   16 ar 
    19   15   20 ar 
    20   16   17 ar 
    21   17   18 ar 
    22   18   19 ar 
    23   19   20 ar 
    24   19   22 1  
    25   20   21 1  
    26   23   24 2  
    27   23   25 1  
    28   25   26 1  
    29   26   27 1  
    30   26   28 1  
    31   26   29 1  
    32    1   30 1  
    33    2   31 1  
    34    2   32 1  
    35    3   33 1  
    36    3   34 1  
    37    4   35 1  
    38    4   36 1  
    39    5   37 1  
    40    6   38 1  
    41    6   39 1  
    42   10   40 1  
    43   11   41 1  
    44   12   42 1  
    45   12   43 1  
    46   13   44 1  
    47   13   45 1  
    48   14   46 1  
    49   14   47 1  
    50   16   48 1  
    51   17   49 1  
    52   18   50 1  
    53   27   51 1  
    54   27   52 1  
    55   27   53 1  
    56   28   54 1  
    57   28   55 1  
    58   28   56 1  
    59   29   57 1  
    60   29   58 1  
    61   29   59 1  
@<TRIPOS>SUBSTRUCTURE
     1 2XF         1

