### 
### Created by X-TOOL on Sun Nov 13 14:28:33 2016
### 

@<TRIPOS>MOLECULE
4pyx_ligand
   49    50     1     0     0
SMALL
GAST_HUCK


@<TRIPOS>ATOM
      1 F18        -2.9120    3.2080   13.2420 F         1 V90        -0.2021
      2 C5         -3.8400    3.2860   14.1730 C.ar      1 V90         0.1549
      3 C6         -4.3510    4.5110   14.5500 C.ar      1 V90         0.0695
      4 S12        -3.7230    6.0230   13.8200 S.3       1 V90        -0.1047
      5 C13        -4.2030    5.8180   12.0490 C.3       1 V90         0.0286
      6 C14        -5.6620    6.2450   11.7140 C.3       1 V90         0.0551
      7 O15        -6.0260    5.8620   10.3900 O.3       1 V90        -0.3940
      8 C1         -5.3360    4.5630   15.5210 C.ar      1 V90         0.1621
      9 F17        -5.8920    5.7150   15.9040 F         1 V90        -0.2011
     10 C4         -4.3110    2.0740   14.7320 C.ar      1 V90         0.0873
     11 C3         -5.2360    2.1660   15.7740 C.ar      1 V90         0.1480
     12 S8         -5.8500    0.7560   16.6650 S.o2      1 V90         0.0583
     13 O10        -7.3390    0.8200   16.5660 O.2       1 V90        -0.1540
     14 N11        -5.1200   -0.6680   16.1100 N.am      1 V90        -0.2638
     15 O9         -5.4270    0.9840   18.0570 O.2       1 V90        -0.1540
     16 C2         -5.7790    3.3940   16.1410 C.ar      1 V90         0.1706
     17 F16        -6.6790    3.4560   17.0930 F         1 V90        -0.1907
     18 N7         -3.7440    0.8460   14.3020 N.pl3     1 V90        -0.3226
     19 C19        -3.6000    0.5360   12.8980 C.3       1 V90         0.0337
     20 C26        -3.8160   -1.0030   12.8330 C.3       1 V90        -0.0309
     21 C25        -3.0320   -1.7140   11.7250 C.3       1 V90        -0.0510
     22 C24        -2.9750   -1.2090   10.2990 C.3       1 V90        -0.0530
     23 C23        -2.4920    0.2250    9.9540 C.3       1 V90        -0.0531
     24 C22        -3.7620    0.9820    9.6620 C.3       1 V90        -0.0530
     25 C21        -4.2190    1.9300   10.7630 C.3       1 V90        -0.0510
     26 C20        -4.7100    1.2080   12.0310 C.3       1 V90        -0.0309
     27 H1         -4.0878    4.7567   11.7839 H         1 V90         0.0422
     28 H2         -3.5198    6.4251   11.4369 H         1 V90         0.0422
     29 H3         -5.7448    7.3380   11.8057 H         1 V90         0.0567
     30 H4         -6.3481    5.7642   12.4268 H         1 V90         0.0567
     31 H5         -6.9190    6.1358   10.2165 H         1 V90         0.2094
     32 H6         -5.3656   -1.5475   16.5177 H         1 V90         0.1631
     33 H7         -4.4434   -0.6293   15.3746 H         1 V90         0.1631
     34 H8         -3.4289    0.1621   15.0048 H         1 V90         0.1734
     35 H9         -2.6043    0.8259   12.5313 H         1 V90         0.0545
     36 H10        -4.8873   -1.1919   12.6698 H         1 V90         0.0287
     37 H11        -3.5107   -1.4328   13.7984 H         1 V90         0.0287
     38 H12        -3.4432   -2.7327   11.6691 H         1 V90         0.0266
     39 H13        -1.9892   -1.7580   12.0724 H         1 V90         0.0266
     40 H14        -3.9969   -1.2939    9.9010 H         1 V90         0.0265
     41 H15        -2.3112   -1.8969    9.7548 H         1 V90         0.0265
     42 H16        -1.8333    0.2136    9.0731 H         1 V90         0.0265
     43 H17        -1.9581    0.6723   10.8054 H         1 V90         0.0265
     44 H18        -4.5636    0.2486    9.4900 H         1 V90         0.0265
     45 H19        -3.6035    1.5731    8.7480 H         1 V90         0.0265
     46 H20        -5.0423    2.5460   10.3724 H         1 V90         0.0266
     47 H21        -3.3738    2.5785   11.0370 H         1 V90         0.0266
     48 H22        -5.2304    1.9453   12.6599 H         1 V90         0.0287
     49 H23        -5.4180    0.4250   11.7216 H         1 V90         0.0287
@<TRIPOS>BOND
     1    1    2 1  
     2    2    3 ar 
     3    2   10 ar 
     4    3    4 1  
     5    3    8 ar 
     6    4    5 1  
     7    5    6 1  
     8    6    7 1  
     9    8    9 1  
    10    8   16 ar 
    11   10   11 ar 
    12   10   18 1  
    13   11   12 1  
    14   11   16 ar 
    15   12   13 2  
    16   12   14 am 
    17   12   15 2  
    18   16   17 1  
    19   18   19 1  
    20   19   20 1  
    21   19   26 1  
    22   20   21 1  
    23   21   22 1  
    24   22   23 1  
    25   23   24 1  
    26   24   25 1  
    27   25   26 1  
    28    5   27 1  
    29    5   28 1  
    30    6   29 1  
    31    6   30 1  
    32    7   31 1  
    33   14   32 1  
    34   14   33 1  
    35   18   34 1  
    36   19   35 1  
    37   20   36 1  
    38   20   37 1  
    39   21   38 1  
    40   21   39 1  
    41   22   40 1  
    42   22   41 1  
    43   23   42 1  
    44   23   43 1  
    45   24   44 1  
    46   24   45 1  
    47   25   46 1  
    48   25   47 1  
    49   26   48 1  
    50   26   49 1  
@<TRIPOS>SUBSTRUCTURE
     1 V90         1

