### 
### Created by X-TOOL on Sun Nov 13 14:28:23 2016
### 

@<TRIPOS>MOLECULE
4pyy_ligand
   51    52     1     0     0
SMALL
GAST_HUCK


@<TRIPOS>ATOM
      1 F20        14.4120    4.9170   14.1800 F         1 V14        -0.1949
      2 C5         15.7170    5.0040   14.3980 C.ar      1 V14         0.1707
      3 C4         16.3200    4.0990   15.2800 C.ar      1 V14         0.1616
      4 S7         15.4500    2.8880   16.2730 S.o2      1 V14         0.0636
      5 O9         13.9140    3.0420   16.3150 O.2       1 V14        -0.1519
      6 N10        15.8400    1.2860   15.8370 N.am      1 V14        -0.2621
      7 O8         16.0160    3.1260   17.6450 O.2       1 V14        -0.1519
      8 C3         17.6800    4.1950   15.4560 C.ar      1 V14         0.1773
      9 F12        18.3170    3.3030   16.2420 F         1 V14        -0.1943
     10 C2         18.4380    5.1390   14.7910 C.ar      1 V14         0.1761
     11 F13        19.7860    5.1750   15.0240 F         1 V14        -0.1890
     12 C6         16.4530    5.9640   13.6980 C.ar      1 V14         0.0935
     13 C1         17.8430    6.0330   13.9010 C.ar      1 V14         0.1354
     14 S11        19.0150    7.1760   13.1430 S.o2      1 V14        -0.0053
     15 O16        19.5210    8.0660   14.2680 O.2       1 V14        -0.1719
     16 O17        18.2570    8.1130   12.2040 O.2       1 V14        -0.1719
     17 C15        20.3090    6.3270   12.2030 C.3       1 V14         0.0913
     18 C18        19.6920    5.5690   10.9980 C.3       1 V14         0.0637
     19 O21        18.3360    5.1870   11.1180 O.3       1 V14        -0.3934
     20 N19        15.7360    6.8180   12.7850 N.pl3     1 V14        -0.3213
     21 C14        14.6930    7.6650   13.2540 C.3       1 V14         0.0338
     22 C28        14.9830    8.1240   14.6810 C.3       1 V14        -0.0309
     23 C27        16.2290    9.0130   14.8140 C.3       1 V14        -0.0510
     24 C26        15.9460   10.4770   14.4380 C.3       1 V14        -0.0530
     25 C25        14.5040   10.9740   14.3870 C.3       1 V14        -0.0531
     26 C24        13.9480   11.0360   12.9750 C.3       1 V14        -0.0530
     27 C23        13.3450    9.6790   12.5330 C.3       1 V14        -0.0510
     28 C22        14.5200    8.7660   12.2200 C.3       1 V14        -0.0309
     29 H1         15.4173    0.5193   16.3202 H         1 V14         0.1633
     30 H2         16.4914    1.1134   15.0981 H         1 V14         0.1633
     31 H3         20.8217    5.6084   12.8593 H         1 V14         0.0524
     32 H4         21.0335    7.0674   11.8331 H         1 V14         0.0524
     33 H5         20.2835    4.6551   10.8402 H         1 V14         0.0573
     34 H6         19.7787    6.2190   10.1149 H         1 V14         0.0573
     35 H7         17.7995    5.9615   11.2396 H         1 V14         0.2095
     36 H8         15.9806    6.8153   11.7845 H         1 V14         0.1735
     37 H9         13.7565    7.0888   13.2865 H         1 V14         0.0545
     38 H10        15.1269    7.2318   15.3081 H         1 V14         0.0287
     39 H11        14.1136    8.6915   15.0446 H         1 V14         0.0287
     40 H12        17.0141    8.6229   14.1496 H         1 V14         0.0266
     41 H13        16.5792    8.9771   15.8561 H         1 V14         0.0266
     42 H14        16.3761   10.6397   13.4387 H         1 V14         0.0265
     43 H15        16.4747   11.1037   15.1712 H         1 V14         0.0265
     44 H16        14.4651   11.9828   14.8237 H         1 V14         0.0265
     45 H17        13.8771   10.2928   14.9811 H         1 V14         0.0265
     46 H18        14.7602   11.3064   12.2842 H         1 V14         0.0265
     47 H19        13.1619   11.8045   12.9354 H         1 V14         0.0265
     48 H20        12.7200    9.8143   11.6380 H         1 V14         0.0266
     49 H21        12.7369    9.2513   13.3437 H         1 V14         0.0266
     50 H22        14.3547    8.3031   11.2360 H         1 V14         0.0287
     51 H23        15.4385    9.3705   12.1912 H         1 V14         0.0287
@<TRIPOS>BOND
     1    1    2 1  
     2    2    3 ar 
     3    2   12 ar 
     4    3    4 1  
     5    3    8 ar 
     6    4    5 2  
     7    4    6 am 
     8    4    7 2  
     9    8    9 1  
    10    8   10 ar 
    11   10   11 1  
    12   10   13 ar 
    13   12   13 ar 
    14   12   20 1  
    15   13   14 1  
    16   14   15 2  
    17   14   16 2  
    18   14   17 1  
    19   17   18 1  
    20   18   19 1  
    21   20   21 1  
    22   21   22 1  
    23   21   28 1  
    24   22   23 1  
    25   23   24 1  
    26   24   25 1  
    27   25   26 1  
    28   26   27 1  
    29   27   28 1  
    30    6   29 1  
    31    6   30 1  
    32   17   31 1  
    33   17   32 1  
    34   18   33 1  
    35   18   34 1  
    36   19   35 1  
    37   20   36 1  
    38   21   37 1  
    39   22   38 1  
    40   22   39 1  
    41   23   40 1  
    42   23   41 1  
    43   24   42 1  
    44   24   43 1  
    45   25   44 1  
    46   25   45 1  
    47   26   46 1  
    48   26   47 1  
    49   27   48 1  
    50   27   49 1  
    51   28   50 1  
    52   28   51 1  
@<TRIPOS>SUBSTRUCTURE
     1 V14         1

