### 
### Created by X-TOOL on Mon Sep 10 21:13:19 2018
### 

@<TRIPOS>MOLECULE
4pz8_ligand
   62    63     1     0     0
SMALL
GAST_HUCK


@<TRIPOS>ATOM
      1 N          66.3030   11.9320   29.3710 N.4       1 ALA         0.2377
      2 CA         67.3680   12.7870   28.8590 C.3       1 ALA         0.0621
      3 C          66.8020   13.9250   28.0140 C.2       1 ALA         0.2265
      4 O          66.9360   13.9280   26.7890 O.2       1 ALA        -0.3907
      5 CB         68.3640   11.9670   28.0540 C.3       1 ALA        -0.0040
      6 N          66.1740   14.8920   28.6770 N.am      1 TRP        -0.2600
      7 CA         65.5650   16.0260   27.9870 C.3       1 TRP         0.1353
      8 C          65.6620   17.3370   28.7710 C.2       1 TRP         0.2053
      9 O          66.1640   17.3680   29.8960 O.2       1 TRP        -0.3942
     10 CB         64.1090   15.7160   27.6150 C.3       1 TRP         0.0042
     11 CG         63.3020   15.0850   28.7160 C.2       1 TRP        -0.0418
     12 CD1        63.4830   15.2340   30.0610 C.2       1 TRP         0.0167
     13 CD2        62.1890   14.1960   28.5580 C.ar      1 TRP        -0.0214
     14 NE1        62.5490   14.4970   30.7490 N.pl3     1 TRP        -0.2890
     15 CE2        61.7440   13.8500   29.8490 C.ar      1 TRP         0.0603
     16 CE3        61.5250   13.6610   27.4500 C.ar      1 TRP        -0.0747
     17 CZ2        60.6650   12.9940   30.0620 C.ar      1 TRP        -0.0443
     18 CZ3        60.4550   12.8110   27.6640 C.ar      1 TRP        -0.0792
     19 CH2        60.0370   12.4850   28.9590 C.ar      1 TRP        -0.0768
     20 N          65.1760   18.4140   28.1600 N.am      1 ASN        -0.2615
     21 CA         65.2500   19.7550   28.7360 C.3       1 ASN         0.1475
     22 C          64.3960   19.9290   29.9910 C.2       1 ASN         0.2058
     23 O          63.5190   19.1120   30.2720 O.2       1 ASN        -0.3942
     24 CB         64.8380   20.7920   27.6890 C.3       1 ASN         0.0773
     25 CG         65.3860   20.4770   26.3090 C.2       1 ASN         0.1780
     26 OD1        65.8600   19.3690   26.0550 O.2       1 ASN        -0.3970
     27 ND2        65.3150   21.4490   25.4070 N.am      1 ASN        -0.3007
     28 N          64.6660   21.0000   30.7370 N.am      1 SER        -0.2647
     29 CA         63.9170   21.3410   31.9500 C.3       1 SER         0.1454
     30 C          63.9310   20.2390   33.0100 C.2       1 SER         0.2172
     31 O          63.1910   20.3050   33.9920 O.co2     1 SER        -0.4119
     32 CB         62.4750   21.7370   31.6090 C.3       1 SER         0.0812
     33 OG         61.7440   22.0720   32.7770 O.3       1 SER        -0.3909
     34 H          66.7039   11.1907   29.9241 H         1 ALA         0.2015
     35 H          65.7900   11.5356   28.5992 H         1 ALA         0.2015
     36 H          65.6792   12.4787   29.9437 H         1 ALA         0.2015
     37 H          67.8970   13.2277   29.7169 H         1 ALA         0.1095
     38 H          69.1598   12.6253   27.6754 H         1 ALA         0.0310
     39 H          67.8478   11.4913   27.2071 H         1 ALA         0.0310
     40 H          68.8050   11.1912   28.6972 H         1 ALA         0.0310
     41 H          66.1173   14.8412   29.6741 H         1 TRP         0.1886
     42 H          66.1225   16.1701   27.0498 H         1 TRP         0.0815
     43 H          64.1132   15.0291   26.7559 H         1 TRP         0.0397
     44 H          63.6200   16.6587   27.3283 H         1 TRP         0.0397
     45 H          64.2555   15.8478   30.5219 H         1 TRP         0.0795
     46 H          62.4676   14.4404   31.7742 H         1 TRP         0.2216
     47 H          61.8424   13.9075   26.4432 H         1 TRP         0.0540
     48 H          60.3362   12.7414   31.0636 H         1 TRP         0.0541
     49 H          59.9310   12.3900   26.8135 H         1 TRP         0.0510
     50 H          59.1962   11.8137   29.0909 H         1 TRP         0.0530
     51 H          64.7407   18.3010   27.2668 H         1 ASN         0.1885
     52 H          66.2975   19.9403   29.0160 H         1 ASN         0.0826
     53 H          65.2149   21.7771   28.0013 H         1 ASN         0.0551
     54 H          63.7397   20.8201   27.6340 H         1 ASN         0.0551
     55 H          65.6608   21.2980   24.4809 H         1 ASN         0.1814
     56 H          64.9158   22.3320   25.6538 H         1 ASN         0.1814
     57 H          65.4153   21.5995   30.4558 H         1 SER         0.1877
     58 H          64.4072   22.2205   32.3929 H         1 SER         0.0774
     59 O1         64.7065   19.2548   32.8775 O.co2     1 SER        -0.4119
     60 H          61.9806   20.8926   31.1065 H         1 SER         0.0600
     61 H          62.4917   22.6061   30.9349 H         1 SER         0.0600
     62 H          61.7227   21.3234   33.3615 H         1 SER         0.2096
@<TRIPOS>BOND
     1    1    2 1  
     2    2    3 1  
     3    2    5 1  
     4    3    4 2  
     5    3    6 am 
     6    6    7 1  
     7    7    8 1  
     8    7   10 1  
     9    8    9 2  
    10    8   20 am 
    11   10   11 1  
    12   11   12 2  
    13   11   13 1  
    14   12   14 1  
    15   13   15 ar 
    16   13   16 ar 
    17   14   15 1  
    18   15   17 ar 
    19   16   18 ar 
    20   17   19 ar 
    21   18   19 ar 
    22   20   21 1  
    23   21   22 1  
    24   21   24 1  
    25   22   23 2  
    26   22   28 am 
    27   24   25 1  
    28   25   26 2  
    29   25   27 am 
    30   28   29 1  
    31   29   30 1  
    32   29   32 1  
    33   30   31 ar 
    34   32   33 1  
    35    1   34 1  
    36    1   35 1  
    37    1   36 1  
    38    2   37 1  
    39    5   38 1  
    40    5   39 1  
    41    5   40 1  
    42    6   41 1  
    43    7   42 1  
    44   10   43 1  
    45   10   44 1  
    46   12   45 1  
    47   14   46 1  
    48   16   47 1  
    49   17   48 1  
    50   18   49 1  
    51   19   50 1  
    52   20   51 1  
    53   21   52 1  
    54   24   53 1  
    55   24   54 1  
    56   27   55 1  
    57   27   56 1  
    58   28   57 1  
    59   29   58 1  
    60   30   59 ar 
    61   32   60 1  
    62   32   61 1  
    63   33   62 1  
@<TRIPOS>SUBSTRUCTURE
     1 ALA         1

