### 
### Created by X-TOOL on Mon Sep 10 21:13:20 2018
### 

@<TRIPOS>MOLECULE
4pzh_ligand
   27    27     1     0     0
SMALL
GAST_HUCK


@<TRIPOS>ATOM
      1 O20        19.1710    8.3080   14.6180 O.2       1 V13        -0.1705
      2 S15        18.2220    7.6820   13.6640 S.o2      1 V13        -0.0011
      3 O19        17.2120    8.5430   12.9620 O.2       1 V13        -0.1705
      4 C16        19.5340    7.4330   12.3790 C.3       1 V13         0.0927
      5 C17        20.6610    6.3360   12.4880 C.3       1 V13         0.0638
      6 O18        22.0570    6.4260   12.0000 O.3       1 V13        -0.3934
      7 C1         17.3240    6.3320   14.4300 C.ar      1 V13         0.1517
      8 C6         15.9600    6.2290   14.5110 C.ar      1 V13         0.1858
      9 F11        15.1880    7.1460   13.9530 F         1 V13        -0.1866
     10 C5         15.3460    5.1810   15.2190 C.ar      1 V13         0.1875
     11 F12        14.0090    5.1880   15.1860 F         1 V13        -0.1866
     12 C4         15.9870    4.1460   15.7820 C.ar      1 V13         0.1712
     13 S7         15.2600    2.7540   16.7290 S.o2      1 V13         0.0656
     14 O9         13.8670    2.8970   16.5450 O.2       1 V13        -0.1518
     15 N10        15.7720    1.4250   16.0320 N.am      1 V13        -0.2620
     16 O8         15.8170    2.9540   18.0110 O.2       1 V13        -0.1518
     17 C3         17.4020    4.2730   15.6810 C.ar      1 V13         0.1875
     18 F13        18.1480    3.3140   16.2240 F         1 V13        -0.1866
     19 C2         18.0170    5.3350   15.0690 C.ar      1 V13         0.1858
     20 F14        19.3820    5.3710   15.1010 F         1 V13        -0.1866
     21 H1         20.0589    8.3960   12.2946 H         1 V13         0.0525
     22 H2         18.9999    7.2231   11.4406 H         1 V13         0.0525
     23 H3         20.2432    5.4527   11.9828 H         1 V13         0.0573
     24 H4         20.7525    6.1332   13.5653 H         1 V13         0.0573
     25 H5         22.0544    6.5649   11.0602 H         1 V13         0.2095
     26 H6         15.4937    0.5336   16.3898 H         1 V13         0.1634
     27 H7         16.3732    1.4782   15.2346 H         1 V13         0.1634
@<TRIPOS>BOND
     1    1    2 2  
     2    2    3 2  
     3    2    4 1  
     4    2    7 1  
     5    4    5 1  
     6    5    6 1  
     7    7    8 ar 
     8    7   19 ar 
     9    8    9 1  
    10    8   10 ar 
    11   10   11 1  
    12   10   12 ar 
    13   12   13 1  
    14   12   17 ar 
    15   13   14 2  
    16   13   15 am 
    17   13   16 2  
    18   17   18 1  
    19   17   19 ar 
    20   19   20 1  
    21    4   21 1  
    22    4   22 1  
    23    5   23 1  
    24    5   24 1  
    25    6   25 1  
    26   15   26 1  
    27   15   27 1  
@<TRIPOS>SUBSTRUCTURE
     1 V13         1

