### 
### Created by X-TOOL on Mon Sep 10 21:13:19 2018
### 

@<TRIPOS>MOLECULE
4pzv_ligand
   74    78     1     0     0
SMALL
GAST_HUCK


@<TRIPOS>ATOM
      1 C1         -2.0630   31.4950  -12.9920 C.3       1 J1D         0.1098
      2 O1         -1.9750   30.3420  -13.8190 O.3       1 J1D        -0.3375
      3 C2         -3.4460   31.4120  -12.3230 C.3       1 J1D         0.1139
      4 O2         -3.9050   32.7060  -12.1450 O.3       1 J1D        -0.3864
      5 C3         -4.3070   30.6720  -13.3730 C.3       1 J1D         0.1385
      6 O3         -5.0010   31.5970  -14.1330 O.3       1 J1D        -0.3836
      7 C4         -3.2540   30.0540  -14.3330 C.3       1 J1D         0.2009
      8 N1         -3.4090   28.6030  -14.4060 N.pl3     1 J1D        -0.1919
      9 C5         -3.5610   27.8140  -15.5610 C.2       1 J1D         0.1123
     10 N2         -3.6690   26.5240  -15.3000 N.2       1 J1D        -0.2958
     11 C6         -3.6100   26.4450  -13.9150 C.ar      1 J1D         0.1045
     12 C7         -3.6700   25.3740  -13.0430 C.ar      1 J1D         0.1298
     13 N3         -3.8370   24.1090  -13.5070 N.pl3     1 J1D        -0.3152
     14 N4         -3.5530   25.6040  -11.6920 N.ar      1 J1D        -0.2698
     15 C8         -3.4090   26.8800  -11.2830 C.ar      1 J1D         0.0533
     16 N5         -3.3330   28.0090  -11.9970 N.ar      1 J1D        -0.2714
     17 C9         -3.4370   27.7380  -13.3320 C.ar      1 J1D         0.1613
     18 C10        -0.9660   31.4990  -11.9610 C.3       1 J1D         0.0946
     19 S1          0.6050   31.6870  -12.6900 S.o2      1 J1D        -0.0266
     20 C11         1.6320   32.0470  -11.6660 C.3       1 J1D         0.0859
     21 N6          2.3120   29.9840  -10.8350 N.am      1 J1D        -0.2837
     22 C12         1.7080   31.2780  -10.4670 C.3       1 J1D         0.0503
     23 C13         3.4500   29.4730  -10.2390 C.2       1 J1D         0.1985
     24 C14         3.8050   28.1220  -10.8290 C.3       1 J1D         0.1195
     25 N7          5.0640   27.6000  -10.3430 N.am      1 J1D        -0.2677
     26 C15         6.2440   28.2680  -10.5080 C.2       1 J1D         0.2063
     27 O4          6.3380   29.3620  -11.0840 O.2       1 J1D        -0.3843
     28 N8         10.7130   25.3920   -8.6890 N.2       1 J1D        -0.2044
     29 C16        10.4240   24.3970   -7.7890 C.2       1 J1D         0.2760
     30 N9         11.4340   23.5750   -7.3540 N.pl3     1 J1D        -0.2639
     31 N10         9.1810   24.1200   -7.2550 N.am      1 J1D        -0.1580
     32 C17         8.1020   24.9050   -7.6520 C.2       1 J1D         0.2789
     33 O5          6.9260   24.6130   -7.1180 O.2       1 J1D        -0.3702
     34 N11         7.2330   26.7160   -8.9580 N.2       1 J1D        -0.2396
     35 C18         7.4370   27.5710   -9.9440 C.2       1 J1D         0.0695
     36 C19         8.7580   28.0450  -10.4270 C.3       1 J1D         0.0128
     37 C20         8.9820   29.4470   -9.8960 C.3       1 J1D        -0.0949
     38 C21         8.7970   27.9740  -11.9510 C.3       1 J1D        -0.0949
     39 N12         9.8520   27.1660   -9.9370 N.pl3     1 J1D        -0.3389
     40 C22         9.6390   26.1570   -9.0610 C.2       1 J1D         0.1679
     41 C23         8.3090   25.9500   -8.5660 C.2       1 J1D         0.2112
     42 O6          4.0830   30.0370   -9.3480 O.2       1 J1D        -0.3949
     43 O7          0.7660   32.4480  -14.1060 O.2       1 J1D        -0.1742
     44 O8          0.9110   30.1930  -13.2560 O.2       1 J1D        -0.1742
     45 H1         -1.9891   32.4077  -13.6015 H         1 J1D         0.0640
     46 H2         -3.4159   30.8709  -11.3658 H         1 J1D         0.0647
     47 H3         -3.2976   33.1830  -11.5917 H         1 J1D         0.2100
     48 H4         -4.9745   29.9247  -12.9192 H         1 J1D         0.0676
     49 H5         -5.5636   32.1122  -13.5668 H         1 J1D         0.2101
     50 H6         -3.3663   30.4887  -15.3372 H         1 J1D         0.0996
     51 H7         -3.5870   28.2257  -16.5688 H         1 J1D         0.1349
     52 H8         -3.8801   23.3197  -12.8466 H         1 J1D         0.1820
     53 H9         -3.9206   23.9386  -14.5194 H         1 J1D         0.1820
     54 H10        -3.3448   27.0122  -10.2090 H         1 J1D         0.0996
     55 H11        -0.9914   30.5472  -11.4101 H         1 J1D         0.0526
     56 H12        -1.1365   32.3316  -11.2626 H         1 J1D         0.0526
     57 H13         1.4413   33.0890  -11.3698 H         1 J1D         0.0520
     58 H14         2.6144   31.9790  -12.1561 H         1 J1D         0.0520
     59 H15         1.8742   29.4463  -11.5556 H         1 J1D         0.1852
     60 H16         0.7016   31.1226  -10.0511 H         1 J1D         0.0536
     61 H17         2.3360   31.7927   -9.7249 H         1 J1D         0.0536
     62 H18         3.8677   28.2238  -11.9225 H         1 J1D         0.0763
     63 H19         3.0084   27.4083  -10.5722 H         1 J1D         0.0763
     64 H20         5.0705   26.7192   -9.8696 H         1 J1D         0.1873
     65 H21        12.3941   23.7106   -7.7015 H         1 J1D         0.1994
     66 H22        11.2316   22.8227   -6.6802 H         1 J1D         0.1994
     67 H23         9.0590   23.3745   -6.5998 H         1 J1D         0.2621
     68 H24         9.9575   29.8188  -10.2426 H         1 J1D         0.0048
     69 H25         8.9660   29.4295   -8.7963 H         1 J1D         0.0048
     70 H26         8.1852   30.1101  -10.2639 H         1 J1D         0.0048
     71 H27         8.6288   26.9361  -12.2741 H         1 J1D         0.0048
     72 H28         9.7797   28.3147  -12.3089 H         1 J1D         0.0048
     73 H29         8.0105   28.6199  -12.3684 H         1 J1D         0.0048
     74 H30        10.8098   27.3315  -10.2777 H         1 J1D         0.1806
@<TRIPOS>BOND
     1    1    2 1  
     2    1    3 1  
     3   18    1 1  
     4    2    7 1  
     5    3    4 1  
     6    3    5 1  
     7    5    6 1  
     8    5    7 1  
     9    7    8 1  
    10    8    9 1  
    11    8   17 1  
    12    9   10 2  
    13   11   10 1  
    14   11   12 ar 
    15   17   11 ar 
    16   12   13 1  
    17   12   14 ar 
    18   15   14 ar 
    19   16   15 ar 
    20   17   16 ar 
    21   19   18 1  
    22   20   19 1  
    23   19   43 2  
    24   19   44 2  
    25   22   20 1  
    26   21   22 1  
    27   23   21 am 
    28   24   23 1  
    29   23   42 2  
    30   25   24 1  
    31   26   25 am 
    32   26   27 2  
    33   35   26 1  
    34   29   28 2  
    35   28   40 1  
    36   29   30 1  
    37   31   29 am 
    38   32   31 am 
    39   32   33 2  
    40   41   32 1  
    41   34   35 2  
    42   34   41 1  
    43   35   36 1  
    44   36   37 1  
    45   36   38 1  
    46   36   39 1  
    47   39   40 1  
    48   40   41 2  
    49    1   45 1  
    50    3   46 1  
    51    4   47 1  
    52    5   48 1  
    53    6   49 1  
    54    7   50 1  
    55    9   51 1  
    56   13   52 1  
    57   13   53 1  
    58   15   54 1  
    59   18   55 1  
    60   18   56 1  
    61   20   57 1  
    62   20   58 1  
    63   21   59 1  
    64   22   60 1  
    65   22   61 1  
    66   24   62 1  
    67   24   63 1  
    68   25   64 1  
    69   30   65 1  
    70   30   66 1  
    71   31   67 1  
    72   37   68 1  
    73   37   69 1  
    74   37   70 1  
    75   38   71 1  
    76   38   72 1  
    77   38   73 1  
    78   39   74 1  
@<TRIPOS>SUBSTRUCTURE
     1 J1D         1

