### 
### Created by X-TOOL on Mon Sep 10 21:13:19 2018
### 

@<TRIPOS>MOLECULE
4pzw_ligand
   45    49     1     0     0
SMALL
GAST_HUCK


@<TRIPOS>ATOM
      1 C1         21.0370   11.5910    7.1000 C.3       1 2X4         0.0475
      2 O2         21.6840   10.6070    7.9060 O.3       1 2X4        -0.3767
      3 C3         23.1070   10.6170    7.9140 C.3       1 2X4         0.0796
      4 C4         23.5970   11.9770    8.4570 C.3       1 2X4         0.1137
      5 C5         22.9150   13.1750    7.7430 C.3       1 2X4         0.0158
      6 C6         21.3770   13.0070    7.6140 C.3       1 2X4        -0.0280
      7 O7         24.9970   12.0430    8.2330 O.3       1 2X4        -0.2853
      8 C8         25.6180   13.2160    8.5680 C.ar      1 2X4         0.1310
      9 C9         24.8960   14.4400    8.6430 C.ar      1 2X4         0.0315
     10 C10        23.3930   14.5310    8.3170 C.3       1 2X4         0.1249
     11 C11        27.0080   13.1670    8.8530 C.ar      1 2X4         0.0030
     12 C12        27.6960   14.3500    9.2170 C.ar      1 2X4        -0.0313
     13 C13        26.9820   15.5760    9.2890 C.ar      1 2X4         0.0085
     14 C14        25.5890   15.6170    9.0070 C.ar      1 2X4        -0.0329
     15 N15        22.6100   14.8450    9.4980 N.pl3     1 2X4        -0.2697
     16 C16        22.0510   16.0510    9.3650 C.cat     1 2X4         0.3439
     17 O17        22.2210   16.6090    8.1390 O.3       1 2X4        -0.3277
     18 C18        23.1000   15.7490    7.4020 C.3       1 2X4         0.0679
     19 C19        27.6240   16.7770    9.6540 C.ar      1 2X4         0.0112
     20 C20        26.9870   17.6560   10.5690 C.ar      1 2X4        -0.0224
     21 C21        27.6390   18.8670   10.9060 C.ar      1 2X4         0.0673
     22 C22        28.9070   19.1440   10.3340 C.ar      1 2X4         0.0237
     23 N23        29.5050   18.2990    9.4650 N.ar      1 2X4        -0.2973
     24 C24        28.8900   17.1440    9.1250 C.ar      1 2X4         0.0173
     25 N25        21.1760   16.6120   10.2070 N.pl3     1 2X4        -0.2513
     26 CL1        26.9070   19.9690   11.9970 Cl        1 2X4        -0.0613
     27 H          19.9484   11.4395    7.1451 H         1 2X4         0.0559
     28 H          21.3784   11.4903    6.0592 H         1 2X4         0.0559
     29 H          23.4826   10.4716    6.8904 H         1 2X4         0.0591
     30 H          23.4779    9.8070    8.5592 H         1 2X4         0.0591
     31 H          23.3860   12.0355    9.5350 H         1 2X4         0.0691
     32 H          23.2885   13.1545    6.7086 H         1 2X4         0.0267
     33 H          20.9111   13.1577    8.5990 H         1 2X4         0.0284
     34 H          20.9880   13.7537    6.9062 H         1 2X4         0.0284
     35 H          27.5418   12.2255    8.7921 H         1 2X4         0.0635
     36 H          28.7567   14.3203    9.4385 H         1 2X4         0.0842
     37 H          25.0545   16.5578    9.0716 H         1 2X4         0.0815
     38 H          22.5015   14.2296   10.3168 H         1 2X4         0.3107
     39 H          22.6157   15.4177    6.4716 H         1 2X4         0.0487
     40 H          24.0344   16.2770    7.1611 H         1 2X4         0.0487
     41 H          26.0241   17.4060   10.9996 H         1 2X4         0.0735
     42 H          29.4133   20.0640   10.6027 H         1 2X4         0.0816
     43 H          29.3793   16.4759    8.4255 H         1 2X4         0.0820
     44 H          20.8030   17.5519   10.0113 H         1 2X4         0.3201
     45 H          20.8753   16.1041   11.0511 H         1 2X4         0.3201
@<TRIPOS>BOND
     1    1    2 1  
     2    1    6 1  
     3    2    3 1  
     4    3    4 1  
     5    4    5 1  
     6    4    7 1  
     7    5    6 1  
     8    5   10 1  
     9    7    8 1  
    10    8    9 ar 
    11    8   11 ar 
    12    9   10 1  
    13    9   14 ar 
    14   10   15 1  
    15   10   18 1  
    16   11   12 ar 
    17   12   13 ar 
    18   13   14 ar 
    19   13   19 1  
    20   15   16 ar 
    21   16   17 1  
    22   16   25 ar 
    23   17   18 1  
    24   19   20 ar 
    25   19   24 ar 
    26   20   21 ar 
    27   21   22 ar 
    28   21   26 1  
    29   22   23 ar 
    30   23   24 ar 
    31    1   27 1  
    32    1   28 1  
    33    3   29 1  
    34    3   30 1  
    35    4   31 1  
    36    5   32 1  
    37    6   33 1  
    38    6   34 1  
    39   11   35 1  
    40   12   36 1  
    41   14   37 1  
    42   15   38 1  
    43   18   39 1  
    44   18   40 1  
    45   20   41 1  
    46   22   42 1  
    47   24   43 1  
    48   25   44 1  
    49   25   45 1  
@<TRIPOS>SUBSTRUCTURE
     1 2X4         1

