### 
### Created by X-TOOL on Mon Sep 10 21:13:18 2018
### 

@<TRIPOS>MOLECULE
4pzx_ligand
   45    49     1     0     0
SMALL
GAST_HUCK


@<TRIPOS>ATOM
      1 C1         20.8570   11.5030    7.6570 C.3       1 2X5         0.0475
      2 O2         21.7050   10.9580    6.6470 O.3       1 2X5        -0.3767
      3 C3         23.0790   10.8550    7.0060 C.3       1 2X5         0.0796
      4 C4         23.6340   12.2870    7.2060 C.3       1 2X5         0.1137
      5 C5         22.7650   13.0690    8.2350 C.3       1 2X5         0.0158
      6 C6         21.2540   12.9790    7.9000 C.3       1 2X5        -0.0280
      7 O7         24.9720   12.1650    7.6730 O.3       1 2X5        -0.2853
      8 C8         25.6010   13.2840    8.1680 C.ar      1 2X5         0.1310
      9 C9         24.8610   14.4170    8.6150 C.ar      1 2X5         0.0315
     10 C10        23.3280   14.4740    8.5230 C.3       1 2X5         0.1249
     11 C11        27.0180   13.2790    8.2510 C.ar      1 2X5         0.0030
     12 C12        27.7200   14.4020    8.7580 C.ar      1 2X5        -0.0313
     13 C13        26.9850   15.5320    9.2090 C.ar      1 2X5         0.0085
     14 C14        25.5670   15.5360    9.1180 C.ar      1 2X5        -0.0329
     15 N15        22.7250   14.9790    9.7540 N.pl3     1 2X5        -0.2697
     16 C16        22.0040   16.0680    9.4880 C.cat     1 2X5         0.3439
     17 O17        22.0080   16.4200    8.1800 O.3       1 2X5        -0.3277
     18 C18        22.9130   15.5550    7.4920 C.3       1 2X5         0.0679
     19 C19        27.6120   16.7100    9.6840 C.ar      1 2X5         0.0112
     20 C20        26.9720   17.5620   10.6210 C.ar      1 2X5        -0.0224
     21 C21        27.6340   18.7590   10.9950 C.ar      1 2X5         0.0673
     22 C22        28.8940   19.0690   10.4300 C.ar      1 2X5         0.0237
     23 N23        29.4870   18.2610    9.5260 N.ar      1 2X5        -0.2973
     24 C24        28.8610   17.1250    9.1480 C.ar      1 2X5         0.0173
     25 N25        21.1690   16.6930   10.3260 N.pl3     1 2X5        -0.2513
     26 CL1        26.9270   19.8320   12.1250 Cl        1 2X5        -0.0613
     27 H          20.9764   10.9301    8.5884 H         1 2X5         0.0559
     28 H          19.8090   11.4518    7.3268 H         1 2X5         0.0559
     29 H          23.6365   10.3479    6.2048 H         1 2X5         0.0591
     30 H          23.1782   10.2831    7.9404 H         1 2X5         0.0591
     31 H          23.6250   12.8247    6.2464 H         1 2X5         0.0691
     32 H          22.8728   12.5264    9.1857 H         1 2X5         0.0267
     33 H          20.6692   13.3806    8.7407 H         1 2X5         0.0284
     34 H          21.0454   13.5670    6.9941 H         1 2X5         0.0284
     35 H          27.5704   12.4059    7.9228 H         1 2X5         0.0635
     36 H          28.8031   14.3987    8.8011 H         1 2X5         0.0842
     37 H          25.0157   16.4122    9.4397 H         1 2X5         0.0815
     38 H          22.8397   14.5572   10.6867 H         1 2X5         0.3107
     39 H          22.4163   15.0898    6.6278 H         1 2X5         0.0487
     40 H          23.7946   16.1167    7.1497 H         1 2X5         0.0487
     41 H          26.0052   17.3053   11.0387 H         1 2X5         0.0735
     42 H          29.3968   19.9807   10.7317 H         1 2X5         0.0816
     43 H          29.3344   16.4998    8.3996 H         1 2X5         0.0820
     44 H          20.6590   17.5319   10.0144 H         1 2X5         0.3201
     45 H          21.0362   16.3353   11.2827 H         1 2X5         0.3201
@<TRIPOS>BOND
     1    1    2 1  
     2    1    6 1  
     3    2    3 1  
     4    3    4 1  
     5    4    5 1  
     6    4    7 1  
     7    5    6 1  
     8    5   10 1  
     9    7    8 1  
    10    8    9 ar 
    11    8   11 ar 
    12    9   10 1  
    13    9   14 ar 
    14   10   15 1  
    15   10   18 1  
    16   11   12 ar 
    17   12   13 ar 
    18   13   14 ar 
    19   13   19 1  
    20   15   16 ar 
    21   16   17 1  
    22   16   25 ar 
    23   17   18 1  
    24   19   20 ar 
    25   19   24 ar 
    26   20   21 ar 
    27   21   22 ar 
    28   21   26 1  
    29   22   23 ar 
    30   23   24 ar 
    31    1   27 1  
    32    1   28 1  
    33    3   29 1  
    34    3   30 1  
    35    4   31 1  
    36    5   32 1  
    37    6   33 1  
    38    6   34 1  
    39   11   35 1  
    40   12   36 1  
    41   14   37 1  
    42   15   38 1  
    43   18   39 1  
    44   18   40 1  
    45   20   41 1  
    46   22   42 1  
    47   24   43 1  
    48   25   44 1  
    49   25   45 1  
@<TRIPOS>SUBSTRUCTURE
     1 2X5         1

