### 
### Created by X-TOOL on Mon Sep 10 21:13:20 2018
### 

@<TRIPOS>MOLECULE
4q06_ligand
   49    50     1     0     0
SMALL
GAST_HUCK


@<TRIPOS>ATOM
      1 F18        -4.7640    2.6410   11.3680 F         1 V90        -0.2021
      2 C5         -4.5270    1.7170   12.3000 C.ar      1 V90         0.1549
      3 C6         -3.7580    0.5940   11.8220 C.ar      1 V90         0.0695
      4 S12        -3.1400    0.3410   10.1890 S.3       1 V90        -0.1047
      5 C13        -1.5290    1.1310   10.1310 C.3       1 V90         0.0286
      6 C14        -1.2930    2.1520   11.1880 C.3       1 V90         0.0551
      7 O15        -1.0200    3.3230   10.5080 O.3       1 V90        -0.3940
      8 C1         -3.4230   -0.3520   12.7540 C.ar      1 V90         0.1621
      9 F17        -2.6650   -1.4310   12.4340 F         1 V90        -0.2011
     10 C4         -4.9340    1.9250   13.5370 C.ar      1 V90         0.0873
     11 C3         -4.5610    0.9270   14.4450 C.ar      1 V90         0.1480
     12 S8         -5.1590    0.8730   16.1750 S.o2      1 V90         0.0583
     13 O10        -6.3850    1.7250   16.2420 O.2       1 V90        -0.1540
     14 N11        -5.2750   -0.6850   16.3300 N.am      1 V90        -0.2638
     15 O9         -4.1830    1.3780   17.0970 O.2       1 V90        -0.1540
     16 C2         -3.7580   -0.1130   13.9840 C.ar      1 V90         0.1706
     17 F16        -3.5220   -1.1370   15.0230 F         1 V90        -0.1907
     18 N7         -5.6300    3.0420   13.9010 N.pl3     1 V90        -0.3226
     19 C19        -4.9960    4.3080   14.4490 C.3       1 V90         0.0337
     20 C26        -3.4430    4.3680   14.5610 C.3       1 V90        -0.0309
     21 C25        -2.5650    5.1660   13.6360 C.3       1 V90        -0.0510
     22 C24        -2.4970    6.6780   13.8860 C.3       1 V90        -0.0530
     23 C23        -3.4400    7.4740   12.9800 C.3       1 V90        -0.0531
     24 C22        -4.8410    7.7480   13.5580 C.3       1 V90        -0.0530
     25 C21        -5.3750    6.9110   14.7180 C.3       1 V90        -0.0510
     26 C20        -5.7930    5.5590   14.2080 C.3       1 V90        -0.0309
     27 H1         -1.4243    1.6220    9.1523 H         1 V90         0.0422
     28 H2         -0.7615    0.3497   10.2333 H         1 V90         0.0422
     29 H3         -0.4386    1.8641   11.8181 H         1 V90         0.0567
     30 H4         -2.1883    2.2707   11.8160 H         1 V90         0.0567
     31 H5         -0.8587    4.0204   11.1327 H         1 V90         0.2094
     32 H6         -5.5884   -1.0796   17.1938 H         1 V90         0.1631
     33 H7         -5.0355   -1.2828   15.5649 H         1 V90         0.1631
     34 H8         -6.6546    3.0245   13.7967 H         1 V90         0.1734
     35 H9         -5.2216    4.1692   15.5166 H         1 V90         0.0545
     36 H10        -3.0971    3.3272   14.4770 H         1 V90         0.0287
     37 H11        -3.2309    4.7444   15.5726 H         1 V90         0.0287
     38 H12        -2.9347    5.0138   12.6113 H         1 V90         0.0266
     39 H13        -1.5431    4.7678   13.7201 H         1 V90         0.0266
     40 H14        -1.4666    7.0178   13.7052 H         1 V90         0.0265
     41 H15        -2.7690    6.8732   14.9338 H         1 V90         0.0265
     42 H16        -3.5642    6.9118   12.0428 H         1 V90         0.0265
     43 H17        -2.9663    8.4434   12.7661 H         1 V90         0.0265
     44 H18        -5.5536    7.6289   12.7285 H         1 V90         0.0265
     45 H19        -4.8438    8.7946   13.8964 H         1 V90         0.0265
     46 H20        -6.2417    7.4176   15.1676 H         1 V90         0.0266
     47 H21        -4.5873    6.7897   15.4761 H         1 V90         0.0266
     48 H22        -6.7892    5.3698   14.6343 H         1 V90         0.0287
     49 H23        -5.8747    5.6599   13.1157 H         1 V90         0.0287
@<TRIPOS>BOND
     1    1    2 1  
     2    2    3 ar 
     3    2   10 ar 
     4    3    4 1  
     5    3    8 ar 
     6    4    5 1  
     7    5    6 1  
     8    6    7 1  
     9    8    9 1  
    10    8   16 ar 
    11   10   11 ar 
    12   10   18 1  
    13   11   12 1  
    14   11   16 ar 
    15   12   13 2  
    16   12   14 am 
    17   12   15 2  
    18   16   17 1  
    19   18   19 1  
    20   19   20 1  
    21   19   26 1  
    22   20   21 1  
    23   21   22 1  
    24   22   23 1  
    25   23   24 1  
    26   24   25 1  
    27   25   26 1  
    28    5   27 1  
    29    5   28 1  
    30    6   29 1  
    31    6   30 1  
    32    7   31 1  
    33   14   32 1  
    34   14   33 1  
    35   18   34 1  
    36   19   35 1  
    37   20   36 1  
    38   20   37 1  
    39   21   38 1  
    40   21   39 1  
    41   22   40 1  
    42   22   41 1  
    43   23   42 1  
    44   23   43 1  
    45   24   44 1  
    46   24   45 1  
    47   25   46 1  
    48   25   47 1  
    49   26   48 1  
    50   26   49 1  
@<TRIPOS>SUBSTRUCTURE
     1 V90         1

