### 
### Created by X-TOOL on Mon Sep 10 21:13:20 2018
### 

@<TRIPOS>MOLECULE
4q07_ligand
   51    52     1     0     0
SMALL
GAST_HUCK


@<TRIPOS>ATOM
      1 F20        -5.7730    3.3400   15.4860 F         1 V14        -0.1949
      2 C5         -5.1850    2.4580   14.6070 C.ar      1 V14         0.1707
      3 C4         -4.9840    1.1660   15.0790 C.ar      1 V14         0.1616
      4 S7         -5.6400    0.6900   16.6890 S.o2      1 V14         0.0636
      5 O9         -7.0350    1.1060   16.6540 O.2       1 V14        -0.1519
      6 N10        -5.5670   -0.8590   16.7040 N.am      1 V14        -0.2621
      7 O8         -4.7720    1.2660   17.7230 O.2       1 V14        -0.1519
      8 C3         -4.4190    0.3030   14.1520 C.ar      1 V14         0.1773
      9 F12        -4.1220   -0.9920   14.4900 F         1 V14        -0.1943
     10 C2         -4.2010    0.6320   12.8610 C.ar      1 V14         0.1761
     11 F13        -3.7480   -0.3180   12.0260 F         1 V14        -0.1890
     12 C6         -4.9380    2.8820   13.2980 C.ar      1 V14         0.0935
     13 C1         -4.4410    1.9360   12.3800 C.ar      1 V14         0.1354
     14 S11        -4.2030    2.1750   10.6600 S.o2      1 V14        -0.0053
     15 O16        -4.4510    3.6240   10.3750 O.2       1 V14        -0.1719
     16 O17        -5.1460    1.2390    9.9650 O.2       1 V14        -0.1719
     17 C15        -2.5940    1.7930   10.2120 C.3       1 V14         0.0913
     18 C18        -1.7200    2.5870   11.1450 C.3       1 V14         0.0637
     19 O21        -0.4230    2.4140   10.7170 O.3       1 V14        -0.3934
     20 N19        -5.2420    4.2000   12.9500 N.pl3     1 V14        -0.3213
     21 C14        -5.0200    5.3880   13.7520 C.3       1 V14         0.0338
     22 C28        -3.6510    5.3610   14.4620 C.3       1 V14        -0.0309
     23 C27        -2.4480    5.6920   13.6000 C.3       1 V14        -0.0510
     24 C26        -1.9700    7.1100   13.8530 C.3       1 V14        -0.0530
     25 C25        -2.7720    8.1810   13.1180 C.3       1 V14        -0.0531
     26 C24        -3.9720    8.6010   13.9070 C.3       1 V14        -0.0530
     27 C23        -5.2630    7.9670   13.4050 C.3       1 V14        -0.0510
     28 C22        -5.2510    6.5540   12.8150 C.3       1 V14        -0.0309
     29 H1         -5.8802   -1.3666   17.5067 H         1 V14         0.1633
     30 H2         -5.2067   -1.3503   15.9110 H         1 V14         0.1633
     31 H3         -2.4059    2.0836    9.1679 H         1 V14         0.0524
     32 H4         -2.4064    0.7158   10.3323 H         1 V14         0.0524
     33 H5         -1.8315    2.2175   12.1751 H         1 V14         0.0573
     34 H6         -1.9930    3.6518   11.1058 H         1 V14         0.0573
     35 H7         -0.3402    2.7302    9.8250 H         1 V14         0.2095
     36 H8         -5.6699    4.3439   12.0242 H         1 V14         0.1735
     37 H9         -5.7850    5.4297   14.5413 H         1 V14         0.0545
     38 H10        -3.5040    4.3505   14.8711 H         1 V14         0.0287
     39 H11        -3.6849    6.0889   15.2860 H         1 V14         0.0287
     40 H12        -2.7258    5.5899   12.5406 H         1 V14         0.0266
     41 H13        -1.6336    4.9908   13.8348 H         1 V14         0.0266
     42 H14        -0.9207    7.1830   13.5310 H         1 V14         0.0265
     43 H15        -2.0369    7.3092   14.9327 H         1 V14         0.0265
     44 H16        -3.1034    7.7785   12.1494 H         1 V14         0.0265
     45 H17        -2.1291    9.0577   12.9502 H         1 V14         0.0265
     46 H18        -4.0697    9.6947   13.8419 H         1 V14         0.0265
     47 H19        -3.8221    8.3080   14.9566 H         1 V14         0.0265
     48 H20        -5.6591    8.6324   12.6238 H         1 V14         0.0266
     49 H21        -5.9581    7.9478   14.2573 H         1 V14         0.0266
     50 H22        -6.2258    6.3948   12.3309 H         1 V14         0.0287
     51 H23        -4.4554    6.5246   12.0559 H         1 V14         0.0287
@<TRIPOS>BOND
     1    1    2 1  
     2    2    3 ar 
     3    2   12 ar 
     4    3    4 1  
     5    3    8 ar 
     6    4    5 2  
     7    4    6 am 
     8    4    7 2  
     9    8    9 1  
    10    8   10 ar 
    11   10   11 1  
    12   10   13 ar 
    13   12   13 ar 
    14   12   20 1  
    15   13   14 1  
    16   14   15 2  
    17   14   16 2  
    18   14   17 1  
    19   17   18 1  
    20   18   19 1  
    21   20   21 1  
    22   21   22 1  
    23   21   28 1  
    24   22   23 1  
    25   23   24 1  
    26   24   25 1  
    27   25   26 1  
    28   26   27 1  
    29   27   28 1  
    30    6   29 1  
    31    6   30 1  
    32   17   31 1  
    33   17   32 1  
    34   18   33 1  
    35   18   34 1  
    36   19   35 1  
    37   20   36 1  
    38   21   37 1  
    39   22   38 1  
    40   22   39 1  
    41   23   40 1  
    42   23   41 1  
    43   24   42 1  
    44   24   43 1  
    45   25   44 1  
    46   25   45 1  
    47   26   46 1  
    48   26   47 1  
    49   27   48 1  
    50   27   49 1  
    51   28   50 1  
    52   28   51 1  
@<TRIPOS>SUBSTRUCTURE
     1 V14         1

