### 
### Created by X-TOOL on Mon Sep 10 21:13:20 2018
### 

@<TRIPOS>MOLECULE
4q08_ligand
   49    50     1     0     0
SMALL
GAST_HUCK


@<TRIPOS>ATOM
      1 F18        -2.8270    3.2430   12.8210 F         1 V90        -0.2021
      2 C5         -3.7020    3.2760   13.8130 C.ar      1 V90         0.1549
      3 C6         -4.2430    4.5600   14.0820 C.ar      1 V90         0.0695
      4 S12        -3.8110    5.9980   13.1800 S.3       1 V90        -0.1047
      5 C13        -2.4110    6.7160   14.0820 C.3       1 V90         0.0286
      6 C14        -1.1810    5.9410   13.7210 C.3       1 V90         0.0551
      7 O15        -0.5080    6.4750   12.6470 O.3       1 V90        -0.3940
      8 C1         -5.0340    4.6060   15.2870 C.ar      1 V90         0.1621
      9 F17        -5.5990    5.7410   15.6840 F         1 V90        -0.2011
     10 C4         -4.0750    2.1120   14.4580 C.ar      1 V90         0.0873
     11 C3         -4.9740    2.1890   15.5560 C.ar      1 V90         0.1480
     12 S8         -5.4810    0.8250   16.5570 S.o2      1 V90         0.0583
     13 O10        -6.9300    0.8520   16.4680 O.2       1 V90        -0.1540
     14 N11        -4.9230   -0.5320   15.9750 N.am      1 V90        -0.2638
     15 O9         -4.9160    1.0670   17.8840 O.2       1 V90        -0.1540
     16 C2         -5.4050    3.4160   15.9230 C.ar      1 V90         0.1706
     17 F16        -6.2320    3.5870   16.9730 F         1 V90        -0.1907
     18 N7         -3.5200    0.9190   13.9620 N.pl3     1 V90        -0.3226
     19 C19        -3.4750    0.5520   12.5790 C.3       1 V90         0.0337
     20 C26        -3.4560   -0.9960   12.5540 C.3       1 V90        -0.0309
     21 C25        -2.1640   -1.3680   11.8620 C.3       1 V90        -0.0510
     22 C24        -2.3140   -1.3570   10.3040 C.3       1 V90        -0.0530
     23 C23        -2.3800    0.0620    9.7020 C.3       1 V90        -0.0531
     24 C22        -3.8560    0.4620    9.3760 C.3       1 V90        -0.0530
     25 C21        -4.2270    1.6040   10.3220 C.3       1 V90        -0.0510
     26 C20        -4.6210    1.1550   11.7550 C.3       1 V90        -0.0309
     27 H1         -2.5904    6.6480   15.1651 H         1 V90         0.0422
     28 H2         -2.2846    7.7708   13.7967 H         1 V90         0.0422
     29 H3         -1.4755    4.9105   13.4735 H         1 V90         0.0567
     30 H4         -0.5052    5.9309   14.5888 H         1 V90         0.0567
     31 H5          0.2599    5.9473   12.4617 H         1 V90         0.2094
     32 H6         -5.1277   -1.3955   16.4360 H         1 V90         0.1631
     33 H7         -4.3648   -0.5282   15.1453 H         1 V90         0.1631
     34 H8         -3.1162    0.2609   14.6438 H         1 V90         0.1734
     35 H9         -2.5336    0.9226   12.1472 H         1 V90         0.0545
     36 H10        -4.3191   -1.3829   11.9924 H         1 V90         0.0287
     37 H11        -3.4744   -1.3982   13.5777 H         1 V90         0.0287
     38 H12        -1.8656   -2.3767   12.1837 H         1 V90         0.0266
     39 H13        -1.3855   -0.6461   12.1496 H         1 V90         0.0266
     40 H14        -3.2387   -1.8907   10.0395 H         1 V90         0.0265
     41 H15        -1.4507   -1.8806    9.8674 H         1 V90         0.0265
     42 H16        -1.7869    0.0883    8.7760 H         1 V90         0.0265
     43 H17        -1.9637    0.7794   10.4245 H         1 V90         0.0265
     44 H18        -4.5249   -0.3960    9.5385 H         1 V90         0.0265
     45 H19        -3.9352    0.7960    8.3309 H         1 V90         0.0265
     46 H20        -5.0786    2.1472    9.8865 H         1 V90         0.0266
     47 H21        -3.3624    2.2795   10.3999 H         1 V90         0.0266
     48 H22        -5.0055    2.0328   12.2949 H         1 V90         0.0287
     49 H23        -5.4159    0.3994   11.6703 H         1 V90         0.0287
@<TRIPOS>BOND
     1    1    2 1  
     2    2    3 ar 
     3    2   10 ar 
     4    3    4 1  
     5    3    8 ar 
     6    4    5 1  
     7    5    6 1  
     8    6    7 1  
     9    8    9 1  
    10    8   16 ar 
    11   10   11 ar 
    12   10   18 1  
    13   11   12 1  
    14   11   16 ar 
    15   12   13 2  
    16   12   14 am 
    17   12   15 2  
    18   16   17 1  
    19   18   19 1  
    20   19   20 1  
    21   19   26 1  
    22   20   21 1  
    23   21   22 1  
    24   22   23 1  
    25   23   24 1  
    26   24   25 1  
    27   25   26 1  
    28    5   27 1  
    29    5   28 1  
    30    6   29 1  
    31    6   30 1  
    32    7   31 1  
    33   14   32 1  
    34   14   33 1  
    35   18   34 1  
    36   19   35 1  
    37   20   36 1  
    38   20   37 1  
    39   21   38 1  
    40   21   39 1  
    41   22   40 1  
    42   22   41 1  
    43   23   42 1  
    44   23   43 1  
    45   24   44 1  
    46   24   45 1  
    47   25   46 1  
    48   25   47 1  
    49   26   48 1  
    50   26   49 1  
@<TRIPOS>SUBSTRUCTURE
     1 V90         1

