### 
### Created by X-TOOL on Mon Sep 10 21:13:20 2018
### 

@<TRIPOS>MOLECULE
4q09_ligand
   51    52     1     0     0
SMALL
GAST_HUCK


@<TRIPOS>ATOM
      1 F20        -5.5950    3.6610   15.6080 F         1 V14        -0.1949
      2 C5         -4.8780    2.9420   14.6970 C.ar      1 V14         0.1707
      3 C4         -4.6050    1.5950   14.9360 C.ar      1 V14         0.1616
      4 S7         -5.2610    0.8870   16.4700 S.o2      1 V14         0.0636
      5 O9         -6.6540    1.2510   16.4520 O.2       1 V14        -0.1519
      6 N10        -5.0880   -0.5990   16.3240 N.am      1 V14        -0.2621
      7 O8         -4.4350    1.3910   17.5120 O.2       1 V14        -0.1519
      8 C3         -3.9380    0.9230   13.9820 C.ar      1 V14         0.1773
      9 F12        -3.6440   -0.4120   14.0560 F         1 V14        -0.1943
     10 C2         -3.5470    1.4570   12.7990 C.ar      1 V14         0.1761
     11 F13        -2.8640    0.7590   11.8990 F         1 V14        -0.1890
     12 C6         -4.4830    3.5930   13.5080 C.ar      1 V14         0.0935
     13 C1         -3.7770    2.8250   12.5840 C.ar      1 V14         0.1354
     14 S11        -3.0160    3.4890   11.0860 S.o2      1 V14        -0.0053
     15 O16        -3.5650    4.8100   10.8680 O.2       1 V14        -0.1719
     16 O17        -3.2120    2.5820    9.9710 O.2       1 V14        -0.1719
     17 C15        -1.2000    3.4640   11.0980 C.3       1 V14         0.0913
     18 C18        -0.5320    4.3140   12.1590 C.3       1 V14         0.0637
     19 O21        -0.5710    3.8170   13.4940 O.3       1 V14        -0.3934
     20 N19        -4.8260    4.9440   13.2740 N.pl3     1 V14        -0.3213
     21 C14        -4.9520    6.0640   14.2220 C.3       1 V14         0.0338
     22 C28        -3.5670    6.2710   14.7510 C.3       1 V14        -0.0309
     23 C27        -2.6290    7.0580   13.8730 C.3       1 V14        -0.0510
     24 C26        -2.5590    8.5620   14.3740 C.3       1 V14        -0.0530
     25 C25        -3.7840    9.5410   14.1200 C.3       1 V14        -0.0531
     26 C24        -5.0260    9.2480   14.9970 C.3       1 V14        -0.0530
     27 C23        -6.1610    8.3680   14.3840 C.3       1 V14        -0.0510
     28 C22        -5.6780    7.2300   13.5470 C.3       1 V14        -0.0309
     29 H1         -5.3824   -1.2111   17.0579 H         1 V14         0.1633
     30 H2         -4.6785   -0.9755   15.4930 H         1 V14         0.1633
     31 H3         -0.8519    3.8164   10.1159 H         1 V14         0.0524
     32 H4         -0.8786    2.4229   11.2490 H         1 V14         0.0524
     33 H5         -1.0225    5.2986   12.1552 H         1 V14         0.0573
     34 H6          0.5249    4.4298   11.8770 H         1 V14         0.0573
     35 H7         -0.1384    2.9720   13.5289 H         1 V14         0.2095
     36 H8         -5.0170    5.1815   12.2901 H         1 V14         0.1735
     37 H9         -5.5826    5.7545   15.0685 H         1 V14         0.0545
     38 H10        -3.1194    5.2798   14.9161 H         1 V14         0.0287
     39 H11        -3.6505    6.8003   15.7116 H         1 V14         0.0287
     40 H12        -2.9942    7.0353   12.8357 H         1 V14         0.0266
     41 H13        -1.6250    6.6110   13.9182 H         1 V14         0.0266
     42 H14        -1.6826    9.0176   13.8899 H         1 V14         0.0265
     43 H15        -2.4004    8.5274   15.4619 H         1 V14         0.0265
     44 H16        -4.0800    9.4557   13.0640 H         1 V14         0.0265
     45 H17        -3.4518   10.5692   14.3258 H         1 V14         0.0265
     46 H18        -5.4721   10.2164   15.2675 H         1 V14         0.0265
     47 H19        -4.6726    8.7402   15.9065 H         1 V14         0.0265
     48 H20        -6.7939    9.0121   13.7559 H         1 V14         0.0266
     49 H21        -6.7609    7.9571   15.2093 H         1 V14         0.0266
     50 H22        -6.5575    6.8096   13.0374 H         1 V14         0.0287
     51 H23        -4.9877    7.6500   12.8007 H         1 V14         0.0287
@<TRIPOS>BOND
     1    1    2 1  
     2    2    3 ar 
     3    2   12 ar 
     4    3    4 1  
     5    3    8 ar 
     6    4    5 2  
     7    4    6 am 
     8    4    7 2  
     9    8    9 1  
    10    8   10 ar 
    11   10   11 1  
    12   10   13 ar 
    13   12   13 ar 
    14   12   20 1  
    15   13   14 1  
    16   14   15 2  
    17   14   16 2  
    18   14   17 1  
    19   17   18 1  
    20   18   19 1  
    21   20   21 1  
    22   21   22 1  
    23   21   28 1  
    24   22   23 1  
    25   23   24 1  
    26   24   25 1  
    27   25   26 1  
    28   26   27 1  
    29   27   28 1  
    30    6   29 1  
    31    6   30 1  
    32   17   31 1  
    33   17   32 1  
    34   18   33 1  
    35   18   34 1  
    36   19   35 1  
    37   20   36 1  
    38   21   37 1  
    39   22   38 1  
    40   22   39 1  
    41   23   40 1  
    42   23   41 1  
    43   24   42 1  
    44   24   43 1  
    45   25   44 1  
    46   25   45 1  
    47   26   46 1  
    48   26   47 1  
    49   27   48 1  
    50   27   49 1  
    51   28   50 1  
    52   28   51 1  
@<TRIPOS>SUBSTRUCTURE
     1 V14         1

