### 
### Created by X-TOOL on Mon Sep 10 21:13:19 2018
### 

@<TRIPOS>MOLECULE
4q0a_ligand
   66    69     1     0     0
SMALL
GAST_HUCK


@<TRIPOS>ATOM
      1 C1         -0.0040   31.0880   35.2040 C.3       1 4OA        -0.0448
      2 C10         0.4610   31.5340   36.6640 C.3       1 4OA        -0.0260
      3 C11        -0.9430   33.8360   36.5830 C.3       1 4OA        -0.0489
      4 C12        -0.9320   35.3670   36.7240 C.3       1 4OA        -0.0468
      5 C13        -0.3410   35.8990   38.1030 C.3       1 4OA        -0.0259
      6 C14         1.0890   35.2260   38.3400 C.3       1 4OA        -0.0323
      7 C15         1.6100   35.8220   39.6640 C.3       1 4OA        -0.0492
      8 C16         1.0270   37.2780   39.5510 C.3       1 4OA        -0.0492
      9 C17         0.2020   37.3540   38.2230 C.3       1 4OA        -0.0327
     10 C18        -1.4660   35.5600   39.2120 C.3       1 4OA        -0.0590
     11 C19        -0.5470   30.9290   37.6980 C.3       1 4OA        -0.0590
     12 O1B         3.3510   31.7000   33.3910 O.3       1 4OA        -0.3918
     13 C2          0.9620   31.6560   34.1030 C.3       1 4OA        -0.0263
     14 C20        -0.9000   38.5600   38.3400 C.3       1 4OA        -0.0390
     15 C21        -1.8280   38.7040   37.1190 C.3       1 4OA        -0.0620
     16 C22        -0.2200   39.9590   38.4140 C.3       1 4OA        -0.0386
     17 C23        -0.8690   41.0970   39.1760 C.3       1 4OA         0.0004
     18 C24        -0.0390   42.4140   39.1600 C.2       1 4OA         0.0348
     19 C3          2.4610   31.1690   34.3750 C.3       1 4OA         0.0555
     20 C4          2.9540   31.5880   35.8110 C.3       1 4OA        -0.0235
     21 O4         -0.5180   43.3750   39.7890 O.co2     1 4OA        -0.5690
     22 O4A         1.0670   42.5190   38.5600 O.co2     1 4OA        -0.5690
     23 C5          1.9600   30.9940   36.9250 C.3       1 4OA        -0.0330
     24 C6          2.4360   31.4270   38.4130 C.3       1 4OA        -0.0494
     25 C7          2.4610   33.0010   38.5170 C.3       1 4OA        -0.0494
     26 C8          1.0370   33.6250   38.2760 C.3       1 4OA        -0.0344
     27 C9          0.5050   33.1800   36.8150 C.3       1 4OA        -0.0323
     28 H          -1.0203   31.4664   35.0197 H         1 4OA         0.0271
     29 H          -0.0059   29.9895   35.1478 H         1 4OA         0.0271
     30 H          -1.2875   33.5786   35.5706 H         1 4OA         0.0268
     31 H          -1.6405   33.4196   37.3246 H         1 4OA         0.0268
     32 H          -1.9670   35.7279   36.6319 H         1 4OA         0.0271
     33 H          -0.3245   35.7829   35.9067 H         1 4OA         0.0271
     34 H           1.7646   35.5495   37.5345 H         1 4OA         0.0309
     35 H           2.7091   35.8239   39.7071 H         1 4OA         0.0268
     36 H           1.2097   35.2880   40.5384 H         1 4OA         0.0268
     37 H           1.8477   38.0100   39.5254 H         1 4OA         0.0268
     38 H           0.3743   37.4888   40.4109 H         1 4OA         0.0268
     39 H           0.8538   37.5723   37.3642 H         1 4OA         0.0309
     40 H          -1.8112   34.5240   39.0793 H         1 4OA         0.0235
     41 H          -2.3163   36.2477   39.0938 H         1 4OA         0.0235
     42 H          -1.0365   35.6774   40.2178 H         1 4OA         0.0235
     43 H          -0.2487   31.2221   38.7154 H         1 4OA         0.0235
     44 H          -0.5421   29.8321   37.6162 H         1 4OA         0.0235
     45 H          -1.5583   31.3078   37.4890 H         1 4OA         0.0235
     46 H           3.0826   31.4028   32.5295 H         1 4OA         0.2098
     47 H           0.9284   32.7553   34.1228 H         1 4OA         0.0290
     48 H           0.6375   31.2970   33.1152 H         1 4OA         0.0290
     49 H          -1.5019   38.3808   39.2431 H         1 4OA         0.0302
     50 H          -2.5297   39.5341   37.2877 H         1 4OA         0.0233
     51 H          -2.3921   37.7707   36.9750 H         1 4OA         0.0233
     52 H          -1.2250   38.9101   36.2224 H         1 4OA         0.0233
     53 H          -0.0991   40.3045   37.3767 H         1 4OA         0.0286
     54 H           0.7705   39.8031   38.8663 H         1 4OA         0.0286
     55 H          -1.0024   40.7833   40.2218 H         1 4OA         0.0430
     56 H          -1.8519   41.3004   38.7260 H         1 4OA         0.0430
     57 H           2.4814   30.0712   34.3086 H         1 4OA         0.0593
     58 H           2.9709   32.6854   35.8851 H         1 4OA         0.0293
     59 H           3.9671   31.1935   35.9785 H         1 4OA         0.0293
     60 H           1.9645   29.8962   36.8551 H         1 4OA         0.0307
     61 H           3.4436   31.0303   38.6061 H         1 4OA         0.0268
     62 H           1.7335   31.0211   39.1558 H         1 4OA         0.0268
     63 H           3.1557   33.3968   37.7615 H         1 4OA         0.0268
     64 H           2.8094   33.2861   39.5206 H         1 4OA         0.0268
     65 H           0.3465   33.2549   39.0481 H         1 4OA         0.0306
     66 H           1.1950   33.5733   36.0540 H         1 4OA         0.0309
@<TRIPOS>BOND
     1    1    2 1  
     2   13    1 1  
     3    2   11 1  
     4    2   23 1  
     5    2   27 1  
     6    3    4 1  
     7   27    3 1  
     8    4    5 1  
     9    5    6 1  
    10    5    9 1  
    11    5   10 1  
    12    6    7 1  
    13    6   26 1  
    14    8    7 1  
    15    9    8 1  
    16    9   14 1  
    17   19   12 1  
    18   13   19 1  
    19   14   15 1  
    20   14   16 1  
    21   16   17 1  
    22   17   18 1  
    23   18   21 ar 
    24   18   22 ar 
    25   19   20 1  
    26   20   23 1  
    27   23   24 1  
    28   24   25 1  
    29   25   26 1  
    30   26   27 1  
    31    1   28 1  
    32    1   29 1  
    33    3   30 1  
    34    3   31 1  
    35    4   32 1  
    36    4   33 1  
    37    6   34 1  
    38    7   35 1  
    39    7   36 1  
    40    8   37 1  
    41    8   38 1  
    42    9   39 1  
    43   10   40 1  
    44   10   41 1  
    45   10   42 1  
    46   11   43 1  
    47   11   44 1  
    48   11   45 1  
    49   12   46 1  
    50   13   47 1  
    51   13   48 1  
    52   14   49 1  
    53   15   50 1  
    54   15   51 1  
    55   15   52 1  
    56   16   53 1  
    57   16   54 1  
    58   17   55 1  
    59   17   56 1  
    60   19   57 1  
    61   20   58 1  
    62   20   59 1  
    63   23   60 1  
    64   24   61 1  
    65   24   62 1  
    66   25   63 1  
    67   25   64 1  
    68   26   65 1  
    69   27   66 1  
@<TRIPOS>SUBSTRUCTURE
     1 4OA         1

