### 
### Created by X-TOOL on Mon Sep 10 21:13:16 2018
### 

@<TRIPOS>MOLECULE
4q0k_ligand
   46    50     1     0     0
SMALL
GAST_HUCK


@<TRIPOS>ATOM
      1 O71         0.8840   20.1060   34.2810 O.co2     1 GA3        -0.5687
      2 C7          1.4510   20.8740   33.4710 C.2       1 GA3         0.0376
      3 O72         1.5120   20.6320   32.2440 O.co2     1 GA3        -0.5687
      4 C6          2.0690   22.1480   34.0220 C.3       1 GA3         0.0118
      5 C5          3.3410   22.6290   33.2990 C.3       1 GA3        -0.0138
      6 C8          1.0960   23.3550   33.9870 C.3       1 GA3        -0.0191
      7 C15        -0.0350   23.3290   32.9440 C.3       1 GA3        -0.0139
      8 C16        -0.8630   24.4790   33.4340 C.2       1 GA3        -0.0329
      9 C17        -1.7660   25.1440   32.7370 C.2       1 GA3        -0.0406
     10 C13        -0.5660   24.7590   34.8980 C.3       1 GA3         0.0482
     11 C14         0.2620   23.5120   35.2620 C.3       1 GA3        -0.0471
     12 O13        -1.7820   24.9190   35.6560 O.3       1 GA3        -0.4347
     13 C12         0.3060   26.0190   35.0630 C.3       1 GA3        -0.0563
     14 C11         1.7840   25.7070   34.8180 C.3       1 GA3        -0.0653
     15 C9          1.9910   24.6040   33.7730 C.3       1 GA3        -0.0412
     16 C10         3.4270   24.1040   33.7260 C.3       1 GA3         0.0629
     17 O92         3.9990   23.9280   35.1000 O.3       1 GA3        -0.3321
     18 C1          4.4740   24.8370   32.9360 C.2       1 GA3        -0.0529
     19 C2          5.6600   24.2320   32.8460 C.2       1 GA3         0.0140
     20 C3          5.7950   22.7340   32.9670 C.3       1 GA3         0.1431
     21 O31         5.6930   22.2210   31.6490 O.3       1 GA3        -0.3589
     22 C4          4.6880   22.0820   33.8350 C.3       1 GA3         0.1066
     23 C18         4.8010   20.5560   33.9160 C.3       1 GA3        -0.0456
     24 C19         4.7360   22.7870   35.1730 C.2       1 GA3         0.2557
     25 O91         5.3320   22.5700   36.1840 O.2       1 GA3        -0.3128
     26 H           2.3312   21.9413   35.0701 H         1 GA3         0.0463
     27 H           3.2558   22.4792   32.2126 H         1 GA3         0.0198
     28 H          -0.5941   22.3821   32.9708 H         1 GA3         0.0432
     29 H           0.3437   23.5025   31.9259 H         1 GA3         0.0432
     30 H          -1.9349   24.8980   31.6897 H         1 GA3         0.1257
     31 H          -2.3418   25.9384   33.2095 H         1 GA3         0.1257
     32 H           0.8958   23.6876   36.1438 H         1 GA3         0.0175
     33 H          -0.3788   22.6357   35.4396 H         1 GA3         0.0175
     34 H          -2.3434   24.1657   35.5147 H         1 GA3         0.1919
     35 H           0.1862   26.4066   36.0854 H         1 GA3         0.0167
     36 H          -0.0241   26.7805   34.3411 H         1 GA3         0.0167
     37 H           2.2371   25.3826   35.7664 H         1 GA3         0.0249
     38 H           2.2834   26.6222   34.4672 H         1 GA3         0.0249
     39 H           1.7426   25.0394   32.7939 H         1 GA3         0.0189
     40 H           4.2776   25.8000   32.4670 H         1 GA3         0.0491
     41 H           6.5523   24.8341   32.6812 H         1 GA3         0.1556
     42 H           6.7768   22.4898   33.3986 H         1 GA3         0.1020
     43 H           5.7724   21.2746   31.6717 H         1 GA3         0.2177
     44 H           3.9888   20.1610   34.5440 H         1 GA3         0.0225
     45 H           5.7711   20.2830   34.3568 H         1 GA3         0.0225
     46 H           4.7241   20.1284   32.9054 H         1 GA3         0.0225
@<TRIPOS>BOND
     1    1    2 ar 
     2    2    3 ar 
     3    2    4 1  
     4    4    5 1  
     5    4    6 1  
     6    5   16 1  
     7    5   22 1  
     8    6    7 1  
     9    6   11 1  
    10    6   15 1  
    11    7    8 1  
    12    8    9 2  
    13    8   10 1  
    14   10   11 1  
    15   10   12 1  
    16   10   13 1  
    17   13   14 1  
    18   14   15 1  
    19   15   16 1  
    20   16   17 1  
    21   16   18 1  
    22   17   24 1  
    23   18   19 2  
    24   19   20 1  
    25   20   21 1  
    26   20   22 1  
    27   22   23 1  
    28   22   24 1  
    29   24   25 2  
    30    4   26 1  
    31    5   27 1  
    32    7   28 1  
    33    7   29 1  
    34    9   30 1  
    35    9   31 1  
    36   11   32 1  
    37   11   33 1  
    38   12   34 1  
    39   13   35 1  
    40   13   36 1  
    41   14   37 1  
    42   14   38 1  
    43   15   39 1  
    44   18   40 1  
    45   19   41 1  
    46   20   42 1  
    47   21   43 1  
    48   23   44 1  
    49   23   45 1  
    50   23   46 1  
@<TRIPOS>SUBSTRUCTURE
     1 GA3         1

