### 
### Created by X-TOOL on Mon Sep 10 21:13:25 2018
### 

@<TRIPOS>MOLECULE
4q0l_ligand
   51    52     1     0     0
SMALL
GAST_HUCK


@<TRIPOS>ATOM
      1 F20        -2.4140  -17.8860   -6.4700 F         1 V14        -0.1949
      2 C5         -1.0730  -17.7060   -6.5480 C.ar      1 V14         0.1707
      3 C4         -0.5530  -16.6930   -5.7520 C.ar      1 V14         0.1616
      4 S7         -1.6730  -15.7960   -4.7570 S.o2      1 V14         0.0636
      5 O9         -2.5330  -16.8000   -3.9820 O.2       1 V14        -0.1519
      6 N10        -1.1440  -14.8030   -3.3810 N.am      1 V14        -0.2621
      7 O8         -2.6510  -14.9720   -5.6140 O.2       1 V14        -0.1519
      8 C3          0.7910  -16.4090   -5.6690 C.ar      1 V14         0.1773
      9 F12         1.2270  -15.4000   -4.8720 F         1 V14        -0.1943
     10 C2          1.6500  -17.1530   -6.4590 C.ar      1 V14         0.1761
     11 F13         2.9470  -16.7780   -6.3370 F         1 V14        -0.1890
     12 C6         -0.2160  -18.5070   -7.3630 C.ar      1 V14         0.0935
     13 C1          1.1710  -18.2050   -7.3110 C.ar      1 V14         0.1354
     14 S11         2.3730  -19.1170   -8.2980 S.o2      1 V14        -0.0053
     15 O16         3.5260  -19.2280   -7.3160 O.2       1 V14        -0.1719
     16 O17         2.9860  -18.0540   -9.2590 O.2       1 V14        -0.1719
     17 C15         2.3030  -20.7200   -9.1910 C.3       1 V14         0.0913
     18 C18         1.2430  -21.6990   -8.6890 C.3       1 V14         0.0637
     19 O21         1.7110  -23.0030   -8.4210 O.3       1 V14        -0.3934
     20 N19        -0.7410  -19.5350   -8.2260 N.pl3     1 V14        -0.3213
     21 C14        -1.9730  -19.3580   -9.0260 C.3       1 V14         0.0338
     22 C28        -1.7700  -18.7800  -10.4530 C.3       1 V14        -0.0309
     23 C27        -0.8540  -19.5040  -11.4310 C.3       1 V14        -0.0510
     24 C26        -1.6950  -20.3960  -12.3550 C.3       1 V14        -0.0530
     25 C25        -1.5980  -21.8740  -11.9920 C.3       1 V14        -0.0531
     26 C24        -1.7960  -22.1820  -10.5100 C.3       1 V14        -0.0530
     27 C23        -3.1160  -21.5600  -10.0350 C.3       1 V14        -0.0510
     28 C22        -2.9080  -20.5900   -8.8680 C.3       1 V14        -0.0309
     29 H1         -1.8179  -14.3044   -2.8359 H         1 V14         0.1633
     30 H2         -0.1724  -14.7430   -3.1520 H         1 V14         0.1633
     31 H3          3.2858  -21.2050   -9.0970 H         1 V14         0.0524
     32 H4          2.0975  -20.5102  -10.2511 H         1 V14         0.0524
     33 H5          0.4555  -21.7702   -9.4537 H         1 V14         0.0573
     34 H6          0.8165  -21.2926   -7.7601 H         1 V14         0.0573
     35 H7          0.9897  -23.5406   -8.1157 H         1 V14         0.2095
     36 H8         -0.2370  -20.4311   -8.2885 H         1 V14         0.1735
     37 H9         -2.5150  -18.5509   -8.5114 H         1 V14         0.0545
     38 H10        -1.3694  -17.7627  -10.3324 H         1 V14         0.0287
     39 H11        -2.7635  -18.7296  -10.9224 H         1 V14         0.0287
     40 H12        -0.1391  -20.1258  -10.8722 H         1 V14         0.0266
     41 H13        -0.3049  -18.7660  -12.0341 H         1 V14         0.0266
     42 H14        -1.3428  -20.2634  -13.3886 H         1 V14         0.0265
     43 H15        -2.7474  -20.0841  -12.2833 H         1 V14         0.0265
     44 H16        -0.6013  -22.2343  -12.2864 H         1 V14         0.0265
     45 H17        -2.3671  -22.4175  -12.5604 H         1 V14         0.0265
     46 H18        -0.9613  -21.7587   -9.9319 H         1 V14         0.0265
     47 H19        -1.8291  -23.2715  -10.3623 H         1 V14         0.0265
     48 H20        -3.7914  -22.3654   -9.7108 H         1 V14         0.0266
     49 H21        -3.5728  -21.0136  -10.8734 H         1 V14         0.0266
     50 H22        -3.9013  -20.2002   -8.6008 H         1 V14         0.0287
     51 H23        -2.5098  -21.1833   -8.0317 H         1 V14         0.0287
@<TRIPOS>BOND
     1    1    2 1  
     2    2    3 ar 
     3    2   12 ar 
     4    3    4 1  
     5    3    8 ar 
     6    4    5 2  
     7    4    6 am 
     8    4    7 2  
     9    8    9 1  
    10    8   10 ar 
    11   10   11 1  
    12   10   13 ar 
    13   12   13 ar 
    14   12   20 1  
    15   13   14 1  
    16   14   15 2  
    17   14   16 2  
    18   14   17 1  
    19   17   18 1  
    20   18   19 1  
    21   20   21 1  
    22   21   22 1  
    23   21   28 1  
    24   22   23 1  
    25   23   24 1  
    26   24   25 1  
    27   25   26 1  
    28   26   27 1  
    29   27   28 1  
    30    6   29 1  
    31    6   30 1  
    32   17   31 1  
    33   17   32 1  
    34   18   33 1  
    35   18   34 1  
    36   19   35 1  
    37   20   36 1  
    38   21   37 1  
    39   22   38 1  
    40   22   39 1  
    41   23   40 1  
    42   23   41 1  
    43   24   42 1  
    44   24   43 1  
    45   25   44 1  
    46   25   45 1  
    47   26   46 1  
    48   26   47 1  
    49   27   48 1  
    50   27   49 1  
    51   28   50 1  
    52   28   51 1  
@<TRIPOS>SUBSTRUCTURE
     1 V14         1

