### 
### Created by X-TOOL on Mon Sep 10 21:13:28 2018
### 

@<TRIPOS>MOLECULE
4q15_ligand
   43    45     1     0     0
SMALL
GAST_HUCK


@<TRIPOS>ATOM
      1 O4'       -22.0490    7.6440  -32.7870 O.2       1 HFG        -0.3901
      2 C21       -22.3770    8.0250  -33.8740 C.2       1 HFG         0.1255
      3 C3'       -22.0200    9.4490  -34.3610 C.3       1 HFG         0.0676
      4 C2'       -20.9380   10.1320  -33.5220 C.3       1 HFG         0.0197
      5 N1'       -21.3330   10.2290  -32.1810 N.4       1 HFG         0.2327
      6 C6'       -20.2090   10.4160  -31.3130 C.3       1 HFG        -0.0331
      7 C5'       -18.9680   10.9120  -32.0580 C.3       1 HFG        -0.0100
      8 C4'       -18.5360    9.9820  -33.0560 C.3       1 HFG        -0.0166
      9 C39       -19.6250    9.3290  -33.6720 C.3       1 HFG         0.1000
     10 O7'       -19.3340    9.1610  -35.1570 O.3       1 HFG        -0.3860
     11 C1'       -23.2140    7.0210  -34.8690 C.3       1 HFG         0.0974
     12 N3        -23.9310    5.9610  -34.0380 N.2       1 HFG        -0.2414
     13 C4        -25.0370    6.3120  -33.2760 C.2       1 HFG         0.2496
     14 O11       -25.4390    7.4770  -33.2740 O.2       1 HFG        -0.3268
     15 C10       -25.6760    5.3600  -32.5340 C.ar      1 HFG         0.1449
     16 C5        -26.8300    5.6770  -31.7280 C.ar      1 HFG         0.0229
     17 C2        -23.4980    4.7190  -34.0480 C.2       1 HFG         0.1839
     18 N1        -24.0960    3.7580  -33.3290 N.pl3     1 HFG        -0.1727
     19 C9        -25.1880    4.0690  -32.5690 C.ar      1 HFG         0.1936
     20 C8        -25.8140    3.0620  -31.8220 C.ar      1 HFG         0.0483
     21 C7        -26.9460    3.3770  -31.0330 C.ar      1 HFG         0.0801
     22 BR1       -27.8040    1.9600  -29.9950 Br        1 HFG        -0.0290
     23 C6        -27.4440    4.6870  -30.9950 C.ar      1 HFG         0.1068
     24 CL1       -28.8560    5.0720  -30.0110 Cl        1 HFG        -0.0165
     25 H1        -22.9294   10.0668  -34.3246 H         1 HFG         0.0551
     26 H2        -21.6636    9.3819  -35.3995 H         1 HFG         0.0551
     27 H3        -20.7765   11.1492  -33.9083 H         1 HFG         0.0903
     28 H4        -21.8115    9.3815  -31.9187 H         1 HFG         0.2019
     29 H5        -21.9584   11.0130  -32.0800 H         1 HFG         0.2019
     30 H6        -19.9712    9.4556  -30.8323 H         1 HFG         0.0814
     31 H7        -20.4769   11.1549  -30.5434 H         1 HFG         0.0814
     32 H8        -18.1537   11.0593  -31.3333 H         1 HFG         0.0318
     33 H9        -19.2044   11.8702  -32.5438 H         1 HFG         0.0318
     34 H10       -17.8898    9.2276  -32.5835 H         1 HFG         0.0294
     35 H11       -17.9654   10.5241  -33.8244 H         1 HFG         0.0294
     36 H12       -19.7547    8.3400  -33.2082 H         1 HFG         0.0652
     37 H13       -19.2090   10.0156  -35.5527 H         1 HFG         0.2100
     38 H14       -22.5177    6.5313  -35.5656 H         1 HFG         0.0668
     39 H15       -23.9540    7.6026  -35.4384 H         1 HFG         0.0668
     40 H16       -27.2120    6.6911  -31.6999 H         1 HFG         0.0838
     41 H17       -22.6312    4.4645  -34.6561 H         1 HFG         0.1786
     42 H18       -23.7352    2.7935  -33.3495 H         1 HFG         0.2955
     43 H19       -25.4333    2.0474  -31.8483 H         1 HFG         0.0932
@<TRIPOS>BOND
     1    1    2 2  
     2    2    3 1  
     3    2   11 1  
     4    3    4 1  
     5    4    5 1  
     6    4    9 1  
     7    5    6 1  
     8    6    7 1  
     9    7    8 1  
    10    8    9 1  
    11    9   10 1  
    12   11   12 1  
    13   12   13 1  
    14   12   17 2  
    15   13   14 2  
    16   13   15 1  
    17   15   16 ar 
    18   15   19 ar 
    19   16   23 ar 
    20   17   18 1  
    21   18   19 1  
    22   19   20 ar 
    23   20   21 ar 
    24   21   22 1  
    25   21   23 ar 
    26   23   24 1  
    27    3   25 1  
    28    3   26 1  
    29    4   27 1  
    30    5   28 1  
    31    5   29 1  
    32    6   30 1  
    33    6   31 1  
    34    7   32 1  
    35    7   33 1  
    36    8   34 1  
    37    8   35 1  
    38    9   36 1  
    39   10   37 1  
    40   11   38 1  
    41   11   39 1  
    42   16   40 1  
    43   17   41 1  
    44   18   42 1  
    45   20   43 1  
@<TRIPOS>SUBSTRUCTURE
     1 HFG         1

