### 
### Created by X-TOOL on Mon Sep 10 21:13:18 2018
### 

@<TRIPOS>MOLECULE
4q18_ligand
   61    63     1     0     0
SMALL
GAST_HUCK


@<TRIPOS>ATOM
      1 CAC       -37.4260    7.9800    0.6970 C.3       1 2XJ        -0.0338
      2 CBF       -37.5840    7.8320   -0.8130 C.3       1 2XJ         0.0876
      3 CAD       -39.0670    8.0580   -1.1900 C.3       1 2XJ        -0.0338
      4 OAG       -37.1790    6.5010   -1.1970 O.3       1 2XJ        -0.3865
      5 CAN       -36.6530    8.8160   -1.5130 C.3       1 2XJ         0.0961
      6 OAT       -37.5700    9.7590   -2.0790 O.3       1 2XJ        -0.3182
      7 CBB       -37.0660   10.6620   -2.9510 C.ar      1 2XJ         0.1234
      8 CAK       -35.7110   10.9480   -3.0680 C.ar      1 2XJ        -0.0283
      9 CBA       -38.0110   11.3040   -3.7400 C.ar      1 2XJ         0.1239
     10 OAS       -39.3170   10.9410   -3.5440 O.3       1 2XJ        -0.3219
     11 CAB       -40.3280   11.8480   -3.9920 C.3       1 2XJ         0.0581
     12 CAI       -37.5940   12.2660   -4.6710 C.ar      1 2XJ        -0.0365
     13 CAH       -36.2450   12.5530   -4.7950 C.ar      1 2XJ        -0.0673
     14 CAY       -35.3080   11.9080   -3.9930 C.ar      1 2XJ        -0.0059
     15 CBE       -34.0310   12.1830   -4.1090 C.2       1 2XJ         0.0911
     16 NAR       -33.1250   11.7780   -3.2230 N.2       1 2XJ        -0.3235
     17 SAV       -33.3080   13.0430   -5.3380 S.3       1 2XJ        -0.0153
     18 CBD       -31.8230   12.9140   -4.7030 C.2       1 2XJ         0.0266
     19 CAM       -30.5450   13.4320   -5.3450 C.3       1 2XJ        -0.0125
     20 CAL       -30.1610   14.8240   -4.8870 C.3       1 2XJ        -0.0464
     21 CAA       -30.8200   15.7840   -5.8530 C.3       1 2XJ        -0.0635
     22 CBC       -31.9040   12.2020   -3.5740 C.2       1 2XJ         0.0082
     23 CAO       -30.7350   11.8730   -2.7270 C.3       1 2XJ         0.0387
     24 SAU       -29.9730   10.4540   -3.6090 S.3       1 2XJ        -0.0718
     25 C4        -28.2100   10.8870   -3.8080 C.ar      1 2XJ         0.0760
     26 C5        -27.6970   12.1610   -3.6700 C.ar      1 2XJ         0.0029
     27 N3        -27.3350    9.9050   -4.0980 N.ar      1 2XJ        -0.2633
     28 C2        -26.0090   10.1190   -4.2680 C.ar      1 2XJ         0.1623
     29 NAF       -25.1930    9.0900   -4.5480 N.pl3     1 2XJ        -0.3078
     30 N1        -25.5080   11.3480   -4.1610 N.ar      1 2XJ        -0.2525
     31 C6        -26.3460   12.3720   -3.8510 C.ar      1 2XJ         0.1022
     32 NAE       -25.8890   13.6260   -3.7280 N.pl3     1 2XJ        -0.3198
     33 H         -37.7324    8.9920    1.0003 H         1 2XJ         0.0258
     34 H         -36.3738    7.8173    0.9733 H         1 2XJ         0.0258
     35 H         -38.0579    7.2376    1.2063 H         1 2XJ         0.0258
     36 H         -39.1888    7.9528   -2.2782 H         1 2XJ         0.0258
     37 H         -39.3735    9.0688   -0.8828 H         1 2XJ         0.0258
     38 H         -39.6933    7.3132   -0.6773 H         1 2XJ         0.0258
     39 H         -37.2843    6.3975   -2.1355 H         1 2XJ         0.2102
     40 H         -36.0623    8.3170   -2.2953 H         1 2XJ         0.0638
     41 H         -35.9753    9.3017   -0.7955 H         1 2XJ         0.0638
     42 H         -34.9823   10.4341   -2.4516 H         1 2XJ         0.0527
     43 H         -41.3207   11.4289   -3.7707 H         1 2XJ         0.0575
     44 H         -40.2283   12.0016   -5.0766 H         1 2XJ         0.0575
     45 H         -40.2127   12.8111   -3.4731 H         1 2XJ         0.0575
     46 H         -38.3214   12.7806   -5.2884 H         1 2XJ         0.0524
     47 H         -35.9160   13.2860   -5.5227 H         1 2XJ         0.0529
     48 H         -30.6859   13.4507   -6.4358 H         1 2XJ         0.0423
     49 H         -29.7248   12.7438   -5.0929 H         1 2XJ         0.0423
     50 H         -29.0682   14.9463   -4.9141 H         1 2XJ         0.0285
     51 H         -30.5247   15.0027   -3.8644 H         1 2XJ         0.0285
     52 H         -30.5743   16.8176   -5.5677 H         1 2XJ         0.0231
     53 H         -31.9107   15.6445   -5.8219 H         1 2XJ         0.0231
     54 H         -30.4541   15.5880   -6.8717 H         1 2XJ         0.0231
     55 H         -31.0498   11.5854   -1.7130 H         1 2XJ         0.0511
     56 H         -30.0381   12.7220   -2.6677 H         1 2XJ         0.0511
     57 H         -28.3507   12.9892   -3.4213 H         1 2XJ         0.0502
     58 H         -25.5756    8.1374   -4.6318 H         1 2XJ         0.1823
     59 H         -24.1845    9.2533   -4.6790 H         1 2XJ         0.1823
     60 H         -24.8863   13.8236   -3.8560 H         1 2XJ         0.1801
     61 H         -26.5406   14.3921   -3.5055 H         1 2XJ         0.1801
@<TRIPOS>BOND
     1    1    2 1  
     2    2    3 1  
     3    2    4 1  
     4    2    5 1  
     5    5    6 1  
     6    6    7 1  
     7    7    8 ar 
     8    7    9 ar 
     9    8   14 ar 
    10    9   10 1  
    11    9   12 ar 
    12   10   11 1  
    13   12   13 ar 
    14   13   14 ar 
    15   14   15 1  
    16   15   16 2  
    17   15   17 1  
    18   16   22 1  
    19   17   18 1  
    20   18   19 1  
    21   18   22 2  
    22   19   20 1  
    23   20   21 1  
    24   22   23 1  
    25   23   24 1  
    26   24   25 1  
    27   25   26 ar 
    28   25   27 ar 
    29   26   31 ar 
    30   27   28 ar 
    31   28   29 1  
    32   28   30 ar 
    33   30   31 ar 
    34   31   32 1  
    35    1   33 1  
    36    1   34 1  
    37    1   35 1  
    38    3   36 1  
    39    3   37 1  
    40    3   38 1  
    41    4   39 1  
    42    5   40 1  
    43    5   41 1  
    44    8   42 1  
    45   11   43 1  
    46   11   44 1  
    47   11   45 1  
    48   12   46 1  
    49   13   47 1  
    50   19   48 1  
    51   19   49 1  
    52   20   50 1  
    53   20   51 1  
    54   21   52 1  
    55   21   53 1  
    56   21   54 1  
    57   23   55 1  
    58   23   56 1  
    59   26   57 1  
    60   29   58 1  
    61   29   59 1  
    62   32   60 1  
    63   32   61 1  
@<TRIPOS>SUBSTRUCTURE
     1 2XJ         1

