### 
### Created by X-TOOL on Mon Sep 10 21:13:20 2018
### 

@<TRIPOS>MOLECULE
4q19_ligand
   48    50     1     0     0
SMALL
GAST_HUCK


@<TRIPOS>ATOM
      1 CAB       -38.9030   10.7870   -4.4130 C.3       1 2XL         0.0581
      2 OAP       -37.9860   10.6790   -3.3020 O.3       1 2XL        -0.3219
      3 CAX       -36.7120   11.1430   -3.5400 C.ar      1 2XL         0.1236
      4 CAU       -35.6670   10.4930   -2.8650 C.ar      1 2XL         0.1198
      5 CAI       -34.3540   10.9000   -3.0340 C.ar      1 2XL        -0.0286
      6 OAE       -35.9430    9.4770   -2.0040 O.3       1 2XL        -0.3362
      7 CAG       -36.4260   12.2160   -4.3940 C.ar      1 2XL        -0.0365
      8 CAF       -35.0930   12.6140   -4.5630 C.ar      1 2XL        -0.0673
      9 CAV       -34.0510   11.9340   -3.8910 C.ar      1 2XL        -0.0059
     10 CBA       -32.7660   12.2810   -3.9910 C.2       1 2XL         0.0911
     11 NAO       -31.8220   11.9760   -3.1020 N.2       1 2XL        -0.3234
     12 SAR       -32.1080   13.1010   -5.1140 S.3       1 2XL        -0.0153
     13 CAZ       -30.6780   13.1530   -4.6020 C.2       1 2XL         0.0266
     14 CAK       -29.5250   13.8640   -5.3350 C.3       1 2XL        -0.0125
     15 CAJ       -29.6750   15.3510   -5.1300 C.3       1 2XL        -0.0464
     16 CAA       -28.8520   15.7670   -3.8870 C.3       1 2XL        -0.0635
     17 CAY       -30.6400   12.5050   -3.4440 C.2       1 2XL         0.0084
     18 CAL       -29.3930   12.2980   -2.6310 C.3       1 2XL         0.0408
     19 SAQ       -28.6800   10.6790   -3.1050 S.3       1 2XL        -0.0547
     20 C2        -27.0160   11.0490   -3.5030 C.ar      1 2XL         0.1331
     21 N3        -26.1970   10.0250   -3.8840 N.ar      1 2XL        -0.2611
     22 N1        -26.5700   12.2970   -3.3970 N.ar      1 2XL        -0.2611
     23 C6        -25.2680   12.5430   -3.7050 C.ar      1 2XL         0.1021
     24 NAC       -24.7960   13.7840   -3.6240 N.pl3     1 2XL        -0.3204
     25 C5        -24.4010   11.5100   -4.0880 C.ar      1 2XL         0.0131
     26 C4        -24.9050   10.2090   -4.1900 C.ar      1 2XL         0.1021
     27 NAD       -24.1230    9.1600   -4.5410 N.pl3     1 2XL        -0.3204
     28 H         -39.8855   10.3905   -4.1173 H         1 2XL         0.0575
     29 H         -38.5160   10.2094   -5.2654 H         1 2XL         0.0575
     30 H         -39.0058   11.8433   -4.7022 H         1 2XL         0.0575
     31 H         -33.5607   10.4018   -2.4886 H         1 2XL         0.0527
     32 H         -36.8791    9.3148   -1.9970 H         1 2XL         0.2443
     33 H         -37.2241   12.7309   -4.9165 H         1 2XL         0.0524
     34 H         -34.8590   13.4490   -5.2134 H         1 2XL         0.0529
     35 H         -29.5680   13.6310   -6.4092 H         1 2XL         0.0423
     36 H         -28.5611   13.5280   -4.9252 H         1 2XL         0.0423
     37 H         -30.7352   15.5975   -4.9712 H         1 2XL         0.0285
     38 H         -29.3028   15.8861   -6.0161 H         1 2XL         0.0285
     39 H         -28.9530   16.8505   -3.7262 H         1 2XL         0.0231
     40 H         -27.7929   15.5174   -4.0481 H         1 2XL         0.0231
     41 H         -29.2252   15.2289   -3.0032 H         1 2XL         0.0231
     42 H         -29.6403   12.2988   -1.5592 H         1 2XL         0.0513
     43 H         -28.6712   13.1010   -2.8414 H         1 2XL         0.0513
     44 H         -23.8111   13.9766   -3.8559 H         1 2XL         0.1796
     45 H         -25.4154   14.5524   -3.3294 H         1 2XL         0.1796
     46 H         -23.3583   11.7158   -4.3014 H         1 2XL         0.0494
     47 H         -23.1314    9.3122   -4.7743 H         1 2XL         0.1796
     48 H         -24.5200    8.2102   -4.5746 H         1 2XL         0.1796
@<TRIPOS>BOND
     1    1    2 1  
     2    2    3 1  
     3    3    4 ar 
     4    3    7 ar 
     5    4    5 ar 
     6    4    6 1  
     7    5    9 ar 
     8    7    8 ar 
     9    8    9 ar 
    10    9   10 1  
    11   10   11 2  
    12   10   12 1  
    13   11   17 1  
    14   12   13 1  
    15   13   14 1  
    16   13   17 2  
    17   14   15 1  
    18   15   16 1  
    19   17   18 1  
    20   18   19 1  
    21   19   20 1  
    22   20   21 ar 
    23   20   22 ar 
    24   21   26 ar 
    25   22   23 ar 
    26   23   24 1  
    27   23   25 ar 
    28   25   26 ar 
    29   26   27 1  
    30    1   28 1  
    31    1   29 1  
    32    1   30 1  
    33    5   31 1  
    34    6   32 1  
    35    7   33 1  
    36    8   34 1  
    37   14   35 1  
    38   14   36 1  
    39   15   37 1  
    40   15   38 1  
    41   16   39 1  
    42   16   40 1  
    43   16   41 1  
    44   18   42 1  
    45   18   43 1  
    46   24   44 1  
    47   24   45 1  
    48   25   46 1  
    49   27   47 1  
    50   27   48 1  
@<TRIPOS>SUBSTRUCTURE
     1 2XL         1

