### 
### Created by X-TOOL on Mon Sep 10 21:13:24 2018
### 

@<TRIPOS>MOLECULE
4q1a_ligand
   55    57     1     0     0
SMALL
GAST_HUCK


@<TRIPOS>ATOM
      1 OAE       -36.0320    6.7700   -0.7080 O.3       1 2XZ        -0.3924
      2 CAK       -36.5370    7.6350   -1.6700 C.3       1 2XZ         0.0715
      3 CAL       -35.5070    8.7150   -1.8180 C.3       1 2XZ         0.0910
      4 OAS       -36.3450    9.8130   -2.1030 O.3       1 2XZ        -0.3188
      5 CBA       -35.9270   10.7950   -2.9270 C.ar      1 2XZ         0.1234
      6 CAI       -34.5930   11.1060   -3.1800 C.ar      1 2XZ        -0.0283
      7 CAZ       -36.9640   11.4970   -3.5020 C.ar      1 2XZ         0.1239
      8 OAR       -38.2060   11.0740   -3.1370 O.3       1 2XZ        -0.3219
      9 CAB       -39.2400   11.1230   -4.1390 C.3       1 2XZ         0.0581
     10 CAG       -36.6990   12.5460   -4.3730 C.ar      1 2XZ        -0.0365
     11 CAF       -35.3660   12.8620   -4.6380 C.ar      1 2XZ        -0.0673
     12 CAX       -34.3130   12.1310   -4.0730 C.ar      1 2XZ        -0.0059
     13 CBD       -33.0410   12.4640   -4.2910 C.2       1 2XZ         0.0911
     14 NAQ       -32.0980   12.0850   -3.4590 N.2       1 2XZ        -0.3234
     15 SAU       -32.4030   13.4040   -5.4590 S.3       1 2XZ        -0.0153
     16 CBC       -30.8370   13.2770   -4.8250 C.2       1 2XZ         0.0266
     17 CAM       -29.5900   13.8910   -5.3880 C.3       1 2XZ        -0.0125
     18 CAJ       -29.8310   15.3740   -5.3710 C.3       1 2XZ        -0.0464
     19 CAA       -28.7770   16.0420   -4.4590 C.3       1 2XZ        -0.0635
     20 CBB       -30.8680   12.4900   -3.7580 C.2       1 2XZ         0.0084
     21 CAN       -29.6920   12.1480   -2.8530 C.3       1 2XZ         0.0408
     22 SAT       -28.7800   10.6260   -3.3120 S.3       1 2XZ        -0.0547
     23 C2        -27.1010   11.1370   -3.6900 C.ar      1 2XZ         0.1331
     24 N3        -26.2170   10.1540   -3.9090 N.ar      1 2XZ        -0.2611
     25 N1        -26.7170   12.4150   -3.7680 N.ar      1 2XZ        -0.2611
     26 C6        -25.4480   12.7470   -4.0660 C.ar      1 2XZ         0.1021
     27 NAC       -25.0950   14.0370   -4.1130 N.pl3     1 2XZ        -0.3204
     28 C5        -24.5080   11.7310   -4.2730 C.ar      1 2XZ         0.0131
     29 C4        -24.9360   10.4070   -4.1820 C.ar      1 2XZ         0.1021
     30 NAD       -24.1270    9.3740   -4.3810 N.pl3     1 2XZ        -0.3204
     31 H1        -36.6462    6.0586   -0.5697 H         1 2XZ         0.2095
     32 H2        -37.4956    8.0609   -1.3389 H         1 2XZ         0.0584
     33 H3        -36.6804    7.1072   -2.6244 H         1 2XZ         0.0584
     34 H4        -34.8120    8.5062   -2.6447 H         1 2XZ         0.0632
     35 H5        -34.9373    8.8662   -0.8893 H         1 2XZ         0.0632
     36 H6        -33.7933   10.5610   -2.6916 H         1 2XZ         0.0527
     37 H7        -40.1838   10.7550   -3.7102 H         1 2XZ         0.0575
     38 H8        -38.9539   10.4907   -4.9924 H         1 2XZ         0.0575
     39 H9        -39.3719   12.1606   -4.4794 H         1 2XZ         0.0575
     40 H10       -37.5058   13.1040   -4.8343 H         1 2XZ         0.0524
     41 H11       -35.1399   13.6928   -5.2966 H         1 2XZ         0.0529
     42 H12       -29.4195   13.5409   -6.4167 H         1 2XZ         0.0423
     43 H13       -28.7203   13.6356   -4.7648 H         1 2XZ         0.0423
     44 H14       -30.8392   15.5799   -4.9823 H         1 2XZ         0.0285
     45 H15       -29.7428   15.7742   -6.3918 H         1 2XZ         0.0285
     46 H16       -28.9449   17.1289   -4.4397 H         1 2XZ         0.0231
     47 H17       -27.7698   15.8335   -4.8489 H         1 2XZ         0.0231
     48 H18       -28.8662   15.6391   -3.4393 H         1 2XZ         0.0231
     49 H19       -30.0744   12.0212   -1.8294 H         1 2XZ         0.0513
     50 H20       -28.9851   12.9904   -2.8787 H         1 2XZ         0.0513
     51 H21       -24.1248   14.2975   -4.3406 H         1 2XZ         0.1796
     52 H22       -25.7935   14.7694   -3.9215 H         1 2XZ         0.1796
     53 H23       -23.4743   11.9671   -4.4982 H         1 2XZ         0.0494
     54 H24       -23.1318    9.5328   -4.5939 H         1 2XZ         0.1796
     55 H25       -24.4943    8.4135   -4.3225 H         1 2XZ         0.1796
@<TRIPOS>BOND
     1    1    2 1  
     2    2    3 1  
     3    3    4 1  
     4    4    5 1  
     5    5    6 ar 
     6    5    7 ar 
     7    6   12 ar 
     8    7    8 1  
     9    7   10 ar 
    10    8    9 1  
    11   10   11 ar 
    12   11   12 ar 
    13   12   13 1  
    14   13   14 2  
    15   13   15 1  
    16   14   20 1  
    17   15   16 1  
    18   16   17 1  
    19   16   20 2  
    20   17   18 1  
    21   18   19 1  
    22   20   21 1  
    23   21   22 1  
    24   22   23 1  
    25   23   24 ar 
    26   23   25 ar 
    27   24   29 ar 
    28   25   26 ar 
    29   26   27 1  
    30   26   28 ar 
    31   28   29 ar 
    32   29   30 1  
    33    1   31 1  
    34    2   32 1  
    35    2   33 1  
    36    3   34 1  
    37    3   35 1  
    38    6   36 1  
    39    9   37 1  
    40    9   38 1  
    41    9   39 1  
    42   10   40 1  
    43   11   41 1  
    44   17   42 1  
    45   17   43 1  
    46   18   44 1  
    47   18   45 1  
    48   19   46 1  
    49   19   47 1  
    50   19   48 1  
    51   21   49 1  
    52   21   50 1  
    53   27   51 1  
    54   27   52 1  
    55   28   53 1  
    56   30   54 1  
    57   30   55 1  
@<TRIPOS>SUBSTRUCTURE
     1 2XZ         1

