### 
### Created by X-TOOL on Mon Sep 10 21:13:23 2018
### 

@<TRIPOS>MOLECULE
4q1b_ligand
   58    60     1     0     0
SMALL
GAST_HUCK


@<TRIPOS>ATOM
      1 CAB       -37.7080   10.2310    3.2900 C.3       1 2Y0         0.0732
      2 SBF       -36.4460    9.0000    3.5560 S.o2      1 2Y0         0.0362
      3 OAE       -37.0190    7.8890    4.4460 O.2       1 2Y0        -0.1558
      4 OAF       -35.2610    9.6430    4.2770 O.2       1 2Y0        -0.1558
      5 NAT       -35.8400    8.3120    2.0000 N.am      1 2Y0        -0.2495
      6 CAM       -36.7360    8.5500    0.8480 C.3       1 2Y0         0.0539
      7 CAN       -36.0010    9.0080   -0.4320 C.3       1 2Y0         0.0870
      8 OAU       -36.9370    9.7030   -1.2970 O.3       1 2Y0        -0.3164
      9 CAZ       -36.5570   10.5160   -2.3370 C.ar      1 2Y0         0.0926
     10 CAK       -35.2270   10.9250   -2.5800 C.ar      1 2Y0        -0.0219
     11 CAH       -37.5810   10.9690   -3.1700 C.ar      1 2Y0        -0.0318
     12 CAG       -37.2980   11.8200   -4.2270 C.ar      1 2Y0        -0.0683
     13 CAI       -35.9830   12.2210   -4.4690 C.ar      1 2Y0        -0.0606
     14 CBA       -34.9280   11.7850   -3.6560 C.ar      1 2Y0         0.0036
     15 CBE       -33.6680   12.2200   -3.9020 C.2       1 2Y0         0.0991
     16 NAS       -32.5870   11.9650   -3.1610 N.2       1 2Y0        -0.3176
     17 SAW       -33.2080   13.2110   -5.1400 S.3       1 2Y0        -0.0112
     18 CBD       -31.6870   13.2800   -4.7340 C.2       1 2Y0         0.0301
     19 CAO       -30.6140   14.0470   -5.5010 C.3       1 2Y0        -0.0110
     20 CAL       -30.9910   15.4990   -5.5270 C.3       1 2Y0        -0.0460
     21 CAA       -29.9580   16.2390   -6.3680 C.3       1 2Y0        -0.0634
     22 CBC       -31.4940   12.5570   -3.6470 C.2       1 2Y0         0.0131
     23 CAP       -30.1210   12.3820   -3.0230 C.3       1 2Y0         0.0418
     24 SAV       -29.3280   10.8930   -3.7720 S.3       1 2Y0        -0.0546
     25 C2        -27.6170   11.3580   -3.8620 C.ar      1 2Y0         0.1331
     26 N3        -27.2570   12.6300   -3.7520 N.ar      1 2Y0        -0.2611
     27 N1        -26.6760   10.4160   -4.0210 N.ar      1 2Y0        -0.2611
     28 C6        -25.3630   10.7240   -4.0810 C.ar      1 2Y0         0.1021
     29 NAC       -24.4580    9.7600   -4.2460 N.pl3     1 2Y0        -0.3204
     30 C5        -24.9610   12.0510   -3.9820 C.ar      1 2Y0         0.0131
     31 C4        -25.9680   12.9970   -3.8030 C.ar      1 2Y0         0.1021
     32 NAD       -25.6570   14.2820   -3.6950 N.pl3     1 2Y0        -0.3204
     33 H1        -38.5632    9.7732    2.7713 H         1 2Y0         0.0482
     34 H2        -37.3004   11.0471    2.6753 H         1 2Y0         0.0482
     35 H3        -38.0391   10.6322    4.2593 H         1 2Y0         0.0482
     36 H4        -34.9758    7.8146    1.9243 H         1 2Y0         0.1669
     37 H5        -37.4613    9.3281    1.1281 H         1 2Y0         0.0502
     38 H6        -37.2697    7.6143    0.6250 H         1 2Y0         0.0502
     39 H7        -35.5961    8.1307   -0.9577 H         1 2Y0         0.0629
     40 H8        -35.1778    9.6854   -0.1611 H         1 2Y0         0.0629
     41 H9        -34.4301   10.5748   -1.9340 H         1 2Y0         0.0554
     42 H10       -38.6024   10.6539   -2.9896 H         1 2Y0         0.0554
     43 H11       -38.0986   12.1744   -4.8662 H         1 2Y0         0.0593
     44 H12       -35.7738   12.8825   -5.3019 H         1 2Y0         0.0546
     45 H13       -30.5475   13.6628   -6.5296 H         1 2Y0         0.0429
     46 H14       -29.6421   13.9253   -5.0005 H         1 2Y0         0.0429
     47 H15       -30.9965   15.9016   -4.5033 H         1 2Y0         0.0285
     48 H16       -31.9895   15.6175   -5.9730 H         1 2Y0         0.0285
     49 H17       -30.2121   17.3087   -6.4031 H         1 2Y0         0.0231
     50 H18       -29.9546   15.8292   -7.3888 H         1 2Y0         0.0231
     51 H19       -28.9617   16.1134   -5.9191 H         1 2Y0         0.0231
     52 H20       -30.2214   12.2427   -1.9365 H         1 2Y0         0.0515
     53 H21       -29.5055   13.2714   -3.2234 H         1 2Y0         0.0515
     54 H22       -23.4565    9.9962   -4.2916 H         1 2Y0         0.1796
     55 H23       -24.7600    8.7787   -4.3279 H         1 2Y0         0.1796
     56 H24       -23.9166   12.3354   -4.0411 H         1 2Y0         0.0494
     57 H25       -24.6712   14.5782   -3.7324 H         1 2Y0         0.1796
     58 H26       -26.4013   14.9836   -3.5737 H         1 2Y0         0.1796
@<TRIPOS>BOND
     1    1    2 1  
     2    2    3 2  
     3    2    4 2  
     4    2    5 am 
     5    5    6 1  
     6    6    7 1  
     7    7    8 1  
     8    8    9 1  
     9    9   10 ar 
    10    9   11 ar 
    11   10   14 ar 
    12   11   12 ar 
    13   12   13 ar 
    14   13   14 ar 
    15   14   15 1  
    16   15   16 2  
    17   15   17 1  
    18   16   22 1  
    19   17   18 1  
    20   18   19 1  
    21   18   22 2  
    22   19   20 1  
    23   20   21 1  
    24   22   23 1  
    25   23   24 1  
    26   24   25 1  
    27   25   26 ar 
    28   25   27 ar 
    29   26   31 ar 
    30   27   28 ar 
    31   28   29 1  
    32   28   30 ar 
    33   30   31 ar 
    34   31   32 1  
    35    1   33 1  
    36    1   34 1  
    37    1   35 1  
    38    5   36 1  
    39    6   37 1  
    40    6   38 1  
    41    7   39 1  
    42    7   40 1  
    43   10   41 1  
    44   11   42 1  
    45   12   43 1  
    46   13   44 1  
    47   19   45 1  
    48   19   46 1  
    49   20   47 1  
    50   20   48 1  
    51   21   49 1  
    52   21   50 1  
    53   21   51 1  
    54   23   52 1  
    55   23   53 1  
    56   29   54 1  
    57   29   55 1  
    58   30   56 1  
    59   32   57 1  
    60   32   58 1  
@<TRIPOS>SUBSTRUCTURE
     1 2Y0         1

