### 
### Created by X-TOOL on Mon Sep 10 21:13:19 2018
### 

@<TRIPOS>MOLECULE
4q1c_ligand
   59    61     1     0     0
SMALL
GAST_HUCK


@<TRIPOS>ATOM
      1 OAE       -35.1420    6.9480   -0.3300 O.3       1 2XM        -0.3924
      2 CAL       -36.0670    7.6760   -1.1700 C.3       1 2XM         0.0715
      3 CAN       -35.3310    8.8470   -1.8170 C.3       1 2XM         0.0910
      4 OAU       -36.2750    9.9110   -2.0350 O.3       1 2XM        -0.3188
      5 CBC       -35.8510   10.8870   -2.9070 C.ar      1 2XM         0.1234
      6 CAI       -34.5110   11.2370   -3.0660 C.ar      1 2XM        -0.0283
      7 CBB       -36.8360   11.5670   -3.6070 C.ar      1 2XM         0.1244
      8 OAT       -38.1180   11.1570   -3.3750 O.3       1 2XM        -0.3164
      9 CAM       -39.1690   11.9960   -3.7940 C.3       1 2XM         0.0921
     10 CAK       -39.9930   11.0420   -4.6540 C.3       1 2XM         0.0717
     11 OAD       -40.5260    9.9900   -3.8330 O.3       1 2XM        -0.3924
     12 CAG       -36.4910   12.5840   -4.4820 C.ar      1 2XM        -0.0365
     13 CAF       -35.1460   12.9050   -4.6320 C.ar      1 2XM        -0.0673
     14 CAZ       -34.1480   12.2350   -3.9440 C.ar      1 2XM        -0.0059
     15 CBF       -32.8530   12.5860   -4.0910 C.2       1 2XM         0.0911
     16 NAS       -31.9130   12.1880   -3.2640 N.2       1 2XM        -0.3234
     17 SAW       -32.1930   13.5460   -5.2210 S.3       1 2XM        -0.0153
     18 CBE       -30.7050   13.4600   -4.6340 C.2       1 2XM         0.0266
     19 CAO       -29.5500   14.1970   -5.2350 C.3       1 2XM        -0.0125
     20 CAJ       -29.4630   15.3620   -4.2640 C.3       1 2XM        -0.0464
     21 CAA       -28.6160   16.4850   -4.8410 C.3       1 2XM        -0.0635
     22 CBD       -30.7000   12.6560   -3.5600 C.2       1 2XM         0.0084
     23 CAP       -29.5100   12.2890   -2.7060 C.3       1 2XM         0.0408
     24 SAV       -28.6580   10.7410   -3.2760 S.3       1 2XM        -0.0547
     25 C2        -27.0050   11.1520   -3.6360 C.ar      1 2XM         0.1331
     26 N3        -26.1360   10.1690   -3.9360 N.ar      1 2XM        -0.2611
     27 N1        -26.6260   12.4190   -3.6480 N.ar      1 2XM        -0.2611
     28 C6        -25.3450   12.7410   -3.9460 C.ar      1 2XM         0.1021
     29 NAB       -24.9830   14.0150   -3.9660 N.pl3     1 2XM        -0.3204
     30 C5        -24.4210   11.7510   -4.2280 C.ar      1 2XM         0.0131
     31 C4        -24.8580   10.4350   -4.2080 C.ar      1 2XM         0.1021
     32 NAC       -24.0220    9.4230   -4.4470 N.pl3     1 2XM        -0.3204
     33 H         -35.5929    6.2172    0.0764 H         1 2XM         0.2095
     34 H         -36.9000    8.0552   -0.5598 H         1 2XM         0.0584
     35 H         -36.4592    7.0091   -1.9519 H         1 2XM         0.0584
     36 H         -34.9001    8.5298   -2.7781 H         1 2XM         0.0632
     37 H         -34.5270    9.1941   -1.1514 H         1 2XM         0.0632
     38 H         -33.7487   10.7200   -2.4945 H         1 2XM         0.0527
     39 H         -38.7944   12.8463   -4.3827 H         1 2XM         0.0635
     40 H         -39.7504   12.3701   -2.9384 H         1 2XM         0.0635
     41 H         -39.3521   10.6074   -5.4353 H         1 2XM         0.0584
     42 H         -40.8202   11.5944   -5.1236 H         1 2XM         0.0584
     43 H         -39.8113    9.5130   -3.4280 H         1 2XM         0.2095
     44 H         -37.2530   13.1182   -5.0379 H         1 2XM         0.0524
     45 H         -34.8700   13.7053   -5.3091 H         1 2XM         0.0529
     46 H         -29.7660   14.5325   -6.2601 H         1 2XM         0.0423
     47 H         -28.6314   13.5919   -5.2331 H         1 2XM         0.0423
     48 H         -29.0092   15.0147   -3.3241 H         1 2XM         0.0285
     49 H         -30.4761   15.7410   -4.0640 H         1 2XM         0.0285
     50 H         -28.5682   17.3152   -4.1210 H         1 2XM         0.0231
     51 H         -29.0670   16.8393   -5.7797 H         1 2XM         0.0231
     52 H         -27.6001   16.1131   -5.0398 H         1 2XM         0.0231
     53 H         -29.8535   12.1395   -1.6718 H         1 2XM         0.0513
     54 H         -28.7877   13.1181   -2.7363 H         1 2XM         0.0513
     55 H         -24.0111   14.2707   -4.1915 H         1 2XM         0.1796
     56 H         -25.6734   14.7499   -3.7561 H         1 2XM         0.1796
     57 H         -23.3901   11.9956   -4.4569 H         1 2XM         0.0494
     58 H         -23.0318    9.6120   -4.6586 H         1 2XM         0.1796
     59 H         -24.3668    8.4528   -4.4199 H         1 2XM         0.1796
@<TRIPOS>BOND
     1    1    2 1  
     2    2    3 1  
     3    3    4 1  
     4    4    5 1  
     5    5    6 ar 
     6    5    7 ar 
     7    6   14 ar 
     8    7    8 1  
     9    7   12 ar 
    10    8    9 1  
    11    9   10 1  
    12   10   11 1  
    13   12   13 ar 
    14   13   14 ar 
    15   14   15 1  
    16   15   16 2  
    17   15   17 1  
    18   16   22 1  
    19   17   18 1  
    20   18   19 1  
    21   18   22 2  
    22   19   20 1  
    23   20   21 1  
    24   22   23 1  
    25   23   24 1  
    26   24   25 1  
    27   25   26 ar 
    28   25   27 ar 
    29   26   31 ar 
    30   27   28 ar 
    31   28   29 1  
    32   28   30 ar 
    33   30   31 ar 
    34   31   32 1  
    35    1   33 1  
    36    2   34 1  
    37    2   35 1  
    38    3   36 1  
    39    3   37 1  
    40    6   38 1  
    41    9   39 1  
    42    9   40 1  
    43   10   41 1  
    44   10   42 1  
    45   11   43 1  
    46   12   44 1  
    47   13   45 1  
    48   19   46 1  
    49   19   47 1  
    50   20   48 1  
    51   20   49 1  
    52   21   50 1  
    53   21   51 1  
    54   21   52 1  
    55   23   53 1  
    56   23   54 1  
    57   29   55 1  
    58   29   56 1  
    59   30   57 1  
    60   32   58 1  
    61   32   59 1  
@<TRIPOS>SUBSTRUCTURE
     1 2XM         1

