### 
### Created by X-TOOL on Mon Sep 10 21:13:24 2018
### 

@<TRIPOS>MOLECULE
4q1d_ligand
   57    59     1     0     0
SMALL
GAST_HUCK


@<TRIPOS>ATOM
      1 FAF         7.3640   35.1750    0.6490 F         1 2Y1        -0.2463
      2 CAL         7.5030   35.8330   -0.5510 C.3       1 2Y1         0.1173
      3 CAM         8.8730   35.4360   -1.0890 C.3       1 2Y1         0.0961
      4 OAS         8.9320   35.9720   -2.4090 O.3       1 2Y1        -0.3185
      5 CAZ        10.1740   35.7340   -2.9990 C.ar      1 2Y1         0.1234
      6 CAJ        10.6070   34.4410   -3.2570 C.ar      1 2Y1        -0.0283
      7 CAY        10.9620   36.8320   -3.3400 C.ar      1 2Y1         0.1239
      8 OAR        10.4480   38.0950   -3.0520 O.3       1 2Y1        -0.3219
      9 CAB        10.9980   39.1960   -3.8120 C.3       1 2Y1         0.0581
     10 CAH        12.2090   36.6410   -3.9370 C.ar      1 2Y1        -0.0365
     11 CAG        12.6480   35.3550   -4.1900 C.ar      1 2Y1        -0.0673
     12 CAX        11.8410   34.2780   -3.8610 C.ar      1 2Y1        -0.0059
     13 CBC        12.3180   32.9940   -4.1100 C.2       1 2Y1         0.0911
     14 NAQ        12.0730   31.9550   -3.2980 N.2       1 2Y1        -0.3232
     15 SAU        13.2690   32.5650   -5.4100 S.3       1 2Y1        -0.0153
     16 CBB        13.3550   30.9420   -4.8980 C.2       1 2Y1         0.0269
     17 CAN        14.0900   29.8100   -5.5660 C.3       1 2Y1        -0.0125
     18 CAK        15.5530   30.2130   -5.5980 C.3       1 2Y1        -0.0464
     19 CAA        16.0360   30.4410   -4.1420 C.3       1 2Y1        -0.0635
     20 CBD        12.6520   30.8340   -3.7250 C.2       1 2Y1         0.0112
     21 CBE        12.4850   29.5190   -2.9890 C.3       1 2Y1         0.0493
     22 CAC        12.6290   29.6930   -1.4780 C.3       1 2Y1        -0.0445
     23 SAT        10.8770   28.9340   -3.4990 S.3       1 2Y1        -0.0516
     24 C2         11.1680   27.2680   -3.8250 C.ar      1 2Y1         0.1334
     25 N3         10.1620   26.3910   -3.9430 N.ar      1 2Y1        -0.2611
     26 N1         12.4270   26.9020   -3.9430 N.ar      1 2Y1        -0.2611
     27 C6         12.7370   25.6310   -4.1880 C.ar      1 2Y1         0.1021
     28 NAD        14.0390   25.3040   -4.3070 N.pl3     1 2Y1        -0.3204
     29 C5         11.7250   24.6680   -4.3290 C.ar      1 2Y1         0.0131
     30 C4         10.4150   25.0840   -4.1780 C.ar      1 2Y1         0.1021
     31 NAE         9.4030   24.1700   -4.2940 N.pl3     1 2Y1        -0.3204
     32 H1          7.4524   36.9212   -0.3988 H         1 2Y1         0.0642
     33 H2          6.7128   35.5235   -1.2508 H         1 2Y1         0.0642
     34 H3          8.9742   34.3409   -1.1136 H         1 2Y1         0.0635
     35 H4          9.6706   35.8640   -0.4640 H         1 2Y1         0.0635
     36 H5          9.9969   33.5847   -2.9933 H         1 2Y1         0.0527
     37 H6         10.5175   40.1344   -3.4981 H         1 2Y1         0.0575
     38 H7         10.8135   39.0302   -4.8836 H         1 2Y1         0.0575
     39 H8         12.0813   39.2608   -3.6322 H         1 2Y1         0.0575
     40 H9         12.8267   37.4922   -4.1995 H         1 2Y1         0.0524
     41 H10        13.6187   35.1900   -4.6435 H         1 2Y1         0.0529
     42 H11        13.7132   29.6620   -6.5888 H         1 2Y1         0.0423
     43 H12        13.9632   28.8812   -4.9905 H         1 2Y1         0.0423
     44 H13        15.6690   31.1414   -6.1764 H         1 2Y1         0.0285
     45 H14        16.1474   29.4136   -6.0645 H         1 2Y1         0.0285
     46 H15        17.0962   30.7341   -4.1491 H         1 2Y1         0.0231
     47 H16        15.9164   29.5114   -3.5662 H         1 2Y1         0.0231
     48 H17        15.4380   31.2392   -3.6780 H         1 2Y1         0.0231
     49 H18        13.2541   28.8062   -3.3214 H         1 2Y1         0.0546
     50 H19        12.5015   28.7190   -0.9830 H         1 2Y1         0.0258
     51 H20        11.8615   30.3922   -1.1146 H         1 2Y1         0.0258
     52 H21        13.6276   30.0930   -1.2485 H         1 2Y1         0.0258
     53 H22        14.3097   24.3285   -4.4965 H         1 2Y1         0.1796
     54 H23        14.7633   26.0296   -4.2084 H         1 2Y1         0.1796
     55 H24        11.9626   23.6334   -4.5488 H         1 2Y1         0.0494
     56 H25         9.6216   23.1795   -4.4732 H         1 2Y1         0.1796
     57 H26         8.4227   24.4726   -4.2021 H         1 2Y1         0.1796
@<TRIPOS>BOND
     1    1    2 1  
     2    2    3 1  
     3    3    4 1  
     4    4    5 1  
     5    5    6 ar 
     6    5    7 ar 
     7    6   12 ar 
     8    7    8 1  
     9    7   10 ar 
    10    8    9 1  
    11   10   11 ar 
    12   11   12 ar 
    13   12   13 1  
    14   13   14 2  
    15   13   15 1  
    16   14   20 1  
    17   15   16 1  
    18   16   17 1  
    19   16   20 2  
    20   17   18 1  
    21   18   19 1  
    22   20   21 1  
    23   21   22 1  
    24   21   23 1  
    25   23   24 1  
    26   24   25 ar 
    27   24   26 ar 
    28   25   30 ar 
    29   26   27 ar 
    30   27   28 1  
    31   27   29 ar 
    32   29   30 ar 
    33   30   31 1  
    34    2   32 1  
    35    2   33 1  
    36    3   34 1  
    37    3   35 1  
    38    6   36 1  
    39    9   37 1  
    40    9   38 1  
    41    9   39 1  
    42   10   40 1  
    43   11   41 1  
    44   17   42 1  
    45   17   43 1  
    46   18   44 1  
    47   18   45 1  
    48   19   46 1  
    49   19   47 1  
    50   19   48 1  
    51   21   49 1  
    52   22   50 1  
    53   22   51 1  
    54   22   52 1  
    55   28   53 1  
    56   28   54 1  
    57   29   55 1  
    58   31   56 1  
    59   31   57 1  
@<TRIPOS>SUBSTRUCTURE
     1 2Y1         1

