### 
### Created by X-TOOL on Mon Sep 10 21:13:17 2018
### 

@<TRIPOS>MOLECULE
4q1e_ligand
   51    53     1     0     0
SMALL
GAST_HUCK


@<TRIPOS>ATOM
      1 FAF        27.4870    0.2790  -13.8670 F         1 2Y8        -0.2463
      2 CAK        27.3440    1.1740  -12.9220 C.3       1 2Y8         0.1173
      3 CAL        25.9030    1.1010  -12.5490 C.3       1 2Y8         0.0961
      4 OAQ        25.8300    1.9160  -11.3640 O.3       1 2Y8        -0.3185
      5 CAY        24.6850    1.7480  -10.6820 C.ar      1 2Y8         0.1234
      6 CAJ        24.2090    0.4700  -10.3770 C.ar      1 2Y8        -0.0283
      7 CAX        24.0120    2.9110  -10.2660 C.ar      1 2Y8         0.1239
      8 OAP        24.5460    4.1070  -10.6090 O.3       1 2Y8        -0.3219
      9 CAA        24.0330    5.3370  -10.0440 C.3       1 2Y8         0.0581
     10 CAH        22.8380    2.7850   -9.5480 C.ar      1 2Y8        -0.0365
     11 CAG        22.3680    1.5200   -9.2620 C.ar      1 2Y8        -0.0673
     12 CAW        23.0400    0.3660   -9.6610 C.ar      1 2Y8        -0.0059
     13 CBA        22.5360   -0.8250   -9.3500 C.2       1 2Y8         0.0911
     14 NAO        22.7460   -2.0110   -9.9720 N.2       1 2Y8        -0.3232
     15 SAS        21.5890   -0.9940   -8.1510 S.3       1 2Y8        -0.0156
     16 CAV        21.3530   -2.5440   -8.3070 C.2       1 2Y8         0.0239
     17 CAB        20.4650   -3.3680   -7.3990 C.3       1 2Y8        -0.0243
     18 CBB        22.0540   -2.9990   -9.3570 C.2       1 2Y8         0.0109
     19 CBC        22.0360   -4.5010   -9.7600 C.3       1 2Y8         0.0493
     20 CAC        21.5240   -4.7030  -11.2010 C.3       1 2Y8        -0.0445
     21 SAR        23.6660   -5.2460   -9.5660 S.3       1 2Y8        -0.0516
     22 C2         23.2940   -6.9640   -9.3310 C.ar      1 2Y8         0.1334
     23 N3         22.0120   -7.3890   -9.3690 N.ar      1 2Y8        -0.2611
     24 N1         24.2930   -7.8380   -9.0860 N.ar      1 2Y8        -0.2611
     25 C6         24.0070   -9.1570   -8.9210 C.ar      1 2Y8         0.1021
     26 NAD        25.0090  -10.0020   -8.6890 N.pl3     1 2Y8        -0.3204
     27 C5         22.6980   -9.6190   -8.9690 C.ar      1 2Y8         0.0131
     28 C4         21.6870   -8.6770   -9.1990 C.ar      1 2Y8         0.1021
     29 NAE        20.4070   -9.0240   -9.2310 N.pl3     1 2Y8        -0.3204
     30 H          27.5979    2.1770  -13.2956 H         1 2Y8         0.0642
     31 H          27.9812    0.9321  -12.0586 H         1 2Y8         0.0642
     32 H          25.6027    0.0648  -12.3345 H         1 2Y8         0.0635
     33 H          25.2671    1.5090  -13.3485 H         1 2Y8         0.0635
     34 H          24.7469   -0.4153  -10.6963 H         1 2Y8         0.0527
     35 H          24.5983    6.1898  -10.4480 H         1 2Y8         0.0575
     36 H          24.1410    5.3109   -8.9496 H         1 2Y8         0.0575
     37 H          22.9699    5.4451  -10.3051 H         1 2Y8         0.0575
     38 H          22.2967    3.6635   -9.2158 H         1 2Y8         0.0524
     39 H          21.4424    1.4199   -8.7068 H         1 2Y8         0.0529
     40 H          20.4772   -4.4175   -7.7282 H         1 2Y8         0.0388
     41 H          19.4360   -2.9818   -7.4434 H         1 2Y8         0.0388
     42 H          20.8366   -3.3035   -6.3657 H         1 2Y8         0.0388
     43 H          21.3433   -5.0199   -9.0811 H         1 2Y8         0.0546
     44 H          21.5275   -5.7757  -11.4443 H         1 2Y8         0.0258
     45 H          22.1800   -4.1659  -11.9019 H         1 2Y8         0.0258
     46 H          20.4994   -4.3115  -11.2844 H         1 2Y8         0.0258
     47 H          24.8170  -11.0058   -8.5607 H         1 2Y8         0.1796
     48 H          25.9764   -9.6521   -8.6378 H         1 2Y8         0.1796
     49 H          22.4673  -10.6695   -8.8335 H         1 2Y8         0.0494
     50 H          20.1373  -10.0097   -9.1023 H         1 2Y8         0.1796
     51 H          19.6829   -8.3077   -9.3846 H         1 2Y8         0.1796
@<TRIPOS>BOND
     1    1    2 1  
     2    2    3 1  
     3    3    4 1  
     4    4    5 1  
     5    5    6 ar 
     6    5    7 ar 
     7    6   12 ar 
     8    7    8 1  
     9    7   10 ar 
    10    8    9 1  
    11   10   11 ar 
    12   11   12 ar 
    13   12   13 1  
    14   13   14 2  
    15   13   15 1  
    16   14   18 1  
    17   15   16 1  
    18   16   17 1  
    19   16   18 2  
    20   18   19 1  
    21   19   20 1  
    22   19   21 1  
    23   21   22 1  
    24   22   23 ar 
    25   22   24 ar 
    26   23   28 ar 
    27   24   25 ar 
    28   25   26 1  
    29   25   27 ar 
    30   27   28 ar 
    31   28   29 1  
    32    2   30 1  
    33    2   31 1  
    34    3   32 1  
    35    3   33 1  
    36    6   34 1  
    37    9   35 1  
    38    9   36 1  
    39    9   37 1  
    40   10   38 1  
    41   11   39 1  
    42   17   40 1  
    43   17   41 1  
    44   17   42 1  
    45   19   43 1  
    46   20   44 1  
    47   20   45 1  
    48   20   46 1  
    49   26   47 1  
    50   26   48 1  
    51   27   49 1  
    52   29   50 1  
    53   29   51 1  
@<TRIPOS>SUBSTRUCTURE
     1 2Y8         1

