### 
### Created by X-TOOL on Mon Sep 10 21:13:19 2018
### 

@<TRIPOS>MOLECULE
4q1f_ligand
   59    61     1     0     0
SMALL
GAST_HUCK


@<TRIPOS>ATOM
      1 CAD        10.1010  -37.5580  -17.1370 C.3       1 2XN         0.0732
      2 SBG         8.9160  -36.5830  -16.2360 S.o2      1 2XN         0.0362
      3 OAG         7.6140  -37.3730  -16.0920 O.2       1 2XN        -0.1558
      4 OAH         8.6460  -35.2820  -16.9920 O.2       1 2XN        -0.1558
      5 NAR         9.5060  -36.2240  -14.7620 N.am      1 2XN        -0.2495
      6 CAM         8.5370  -35.4170  -14.0030 C.3       1 2XN         0.0535
      7 CAN         9.1160  -35.0480  -12.6380 C.3       1 2XN         0.0847
      8 OAT         9.4190  -36.2370  -11.9070 O.3       1 2XN        -0.3195
      9 CBC        10.2390  -36.0000  -10.8460 C.ar      1 2XN         0.1234
     10 CAL        10.6880  -34.6970  -10.5950 C.ar      1 2XN        -0.0283
     11 CBB        10.6820  -37.0510  -10.0080 C.ar      1 2XN         0.1239
     12 OAS        10.2940  -38.3730  -10.1580 O.3       1 2XN        -0.3219
     13 CAA         9.4660  -38.9610  -11.1780 C.3       1 2XN         0.0581
     14 CAJ        11.5100  -36.7630   -8.9380 C.ar      1 2XN        -0.0365
     15 CAI        11.9370  -35.4630   -8.6960 C.ar      1 2XN        -0.0673
     16 CAY        11.5150  -34.4310   -9.5140 C.ar      1 2XN        -0.0059
     17 CBD        11.9870  -33.2250   -9.2280 C.2       1 2XN         0.0911
     18 NAQ        11.8410  -32.0800   -9.9140 N.2       1 2XN        -0.3232
     19 SAV        12.9400  -32.9830   -7.9240 S.3       1 2XN        -0.0156
     20 CAZ        13.1610  -31.4400   -8.1990 C.2       1 2XN         0.0239
     21 CAB        13.9860  -30.4830   -7.3480 C.3       1 2XN        -0.0243
     22 CBE        12.5200  -31.0870   -9.3070 C.2       1 2XN         0.0109
     23 CBF        12.5750  -29.6390   -9.7520 C.3       1 2XN         0.0493
     24 CAC        13.0970  -29.5970  -11.1870 C.3       1 2XN        -0.0445
     25 SAU        10.9100  -29.0290   -9.6490 S.3       1 2XN        -0.0516
     26 C2         11.1540  -27.3380   -9.4740 C.ar      1 2XN         0.1334
     27 N3         12.3890  -26.8190   -9.4100 N.ar      1 2XN        -0.2611
     28 N1         10.0710  -26.5590   -9.3650 N.ar      1 2XN        -0.2611
     29 C6         10.1890  -25.2370   -9.2160 C.ar      1 2XN         0.1021
     30 NAE         9.1010  -24.4800   -9.1230 N.pl3     1 2XN        -0.3204
     31 C5         11.4520  -24.6660   -9.1580 C.ar      1 2XN         0.0131
     32 C4         12.5590  -25.4980   -9.2600 C.ar      1 2XN         0.1021
     33 NAF        13.7840  -24.9840   -9.2090 N.pl3     1 2XN        -0.3204
     34 H          10.2951  -38.4941  -16.5929 H         1 2XN         0.0482
     35 H          11.0388  -36.9924  -17.2398 H         1 2XN         0.0482
     36 H           9.7016  -37.7903  -18.1352 H         1 2XN         0.0482
     37 H          10.4008  -36.5113  -14.4203 H         1 2XN         0.1669
     38 H           7.6127  -35.9963  -13.8615 H         1 2XN         0.0502
     39 H           8.3114  -34.4975  -14.5631 H         1 2XN         0.0502
     40 H           8.3807  -34.4517  -12.0779 H         1 2XN         0.0625
     41 H          10.0352  -34.4601  -12.7774 H         1 2XN         0.0625
     42 H          10.3862  -33.8892  -11.2518 H         1 2XN         0.0527
     43 H           9.3629  -40.0399  -10.9898 H         1 2XN         0.0575
     44 H           9.9298  -38.8033  -12.1629 H         1 2XN         0.0575
     45 H           8.4724  -38.4893  -11.1608 H         1 2XN         0.0575
     46 H          11.8301  -37.5623   -8.2794 H         1 2XN         0.0524
     47 H          12.6018  -35.2576   -7.8648 H         1 2XN         0.0529
     48 H          13.9526  -29.4767   -7.7910 H         1 2XN         0.0388
     49 H          15.0284  -30.8322   -7.3094 H         1 2XN         0.0388
     50 H          13.5727  -30.4490   -6.3292 H         1 2XN         0.0388
     51 H          13.2364  -29.0524   -9.0975 H         1 2XN         0.0546
     52 H          13.1445  -28.5527  -11.5294 H         1 2XN         0.0258
     53 H          12.4198  -30.1666  -11.8404 H         1 2XN         0.0258
     54 H          14.1026  -30.0413  -11.2246 H         1 2XN         0.0258
     55 H           9.1913  -23.4604   -9.0081 H         1 2XN         0.1796
     56 H           8.1673  -24.9128   -9.1658 H         1 2XN         0.1796
     57 H          11.5719  -23.5956   -9.0359 H         1 2XN         0.0494
     58 H          13.9120  -23.9685   -9.0937 H         1 2XN         0.1796
     59 H          14.6051  -25.6013   -9.2848 H         1 2XN         0.1796
@<TRIPOS>BOND
     1    1    2 1  
     2    2    3 2  
     3    2    4 2  
     4    2    5 am 
     5    5    6 1  
     6    6    7 1  
     7    7    8 1  
     8    8    9 1  
     9    9   10 ar 
    10    9   11 ar 
    11   10   16 ar 
    12   11   12 1  
    13   11   14 ar 
    14   12   13 1  
    15   14   15 ar 
    16   15   16 ar 
    17   16   17 1  
    18   17   18 2  
    19   17   19 1  
    20   18   22 1  
    21   19   20 1  
    22   20   21 1  
    23   20   22 2  
    24   22   23 1  
    25   23   24 1  
    26   23   25 1  
    27   25   26 1  
    28   26   27 ar 
    29   26   28 ar 
    30   27   32 ar 
    31   28   29 ar 
    32   29   30 1  
    33   29   31 ar 
    34   31   32 ar 
    35   32   33 1  
    36    1   34 1  
    37    1   35 1  
    38    1   36 1  
    39    5   37 1  
    40    6   38 1  
    41    6   39 1  
    42    7   40 1  
    43    7   41 1  
    44   10   42 1  
    45   13   43 1  
    46   13   44 1  
    47   13   45 1  
    48   14   46 1  
    49   15   47 1  
    50   21   48 1  
    51   21   49 1  
    52   21   50 1  
    53   23   51 1  
    54   24   52 1  
    55   24   53 1  
    56   24   54 1  
    57   30   55 1  
    58   30   56 1  
    59   31   57 1  
    60   33   58 1  
    61   33   59 1  
@<TRIPOS>SUBSTRUCTURE
     1 2XN         1

