### 
### Created by X-TOOL on Mon Sep 10 21:13:17 2018
### 

@<TRIPOS>MOLECULE
4q1n_ligand
   77    79     1     0     0
SMALL
GAST_HUCK


@<TRIPOS>ATOM
      1 C1         68.8180    7.8850   43.5760 C.3       1 2Y9        -0.0104
      2 C2         68.7540    7.8360   45.1360 C.3       1 2Y9         0.1231
      3 C3         68.8120    6.3280   45.5480 C.3       1 2Y9         0.1045
      4 C4         67.6140    5.5120   44.9310 C.3       1 2Y9         0.1166
      5 C5         67.5180    5.7160   43.3820 C.3       1 2Y9        -0.0110
      6 N6         67.6480    7.1540   43.0160 N.4       1 2Y9         0.2309
      7 C7         69.8350    8.6600   45.8390 C.2       1 2Y9         0.2196
      8 C8         67.6310    4.0440   45.3060 C.2       1 2Y9         0.1872
      9 O9         68.7010    3.5200   45.6180 O.2       1 2Y9        -0.3965
     10 N10        69.6520    9.4580   46.9710 N.am      1 2Y9        -0.2039
     11 O11        70.9590    8.4780   45.3900 O.2       1 2Y9        -0.3829
     12 N12        66.4180    3.4130   45.2620 N.am      1 2Y9        -0.2812
     13 O13        70.0870    5.7750   45.1690 O.3       1 2Y9        -0.3861
     14 C14        68.3580    9.8470   47.5530 C.3       1 2Y9         0.0685
     15 C15        70.6880   10.2430   47.6000 C.ar      1 2Y9         0.1351
     16 C16        67.1020    8.9800   47.7130 C.3       1 2Y9        -0.0217
     17 C17        68.0130    9.2430   48.9330 C.3       1 2Y9        -0.0217
     18 C18        71.1850   11.3900   46.9570 C.ar      1 2Y9        -0.0187
     19 C19        72.1140   12.1950   47.6290 C.ar      1 2Y9        -0.0534
     20 C20        72.5430   11.8750   48.9400 C.ar      1 2Y9        -0.0287
     21 C21        71.9200   10.7790   49.5850 C.ar      1 2Y9        -0.0055
     22 N22        71.0300   10.0050   48.9100 N.ar      1 2Y9        -0.2926
     23 C23        73.4790   12.8480   49.6820 C.3       1 2Y9        -0.0140
     24 C24        73.2050   12.8110   51.1890 C.3       1 2Y9        -0.0537
     25 C25        74.9760   12.9820   49.2670 C.3       1 2Y9        -0.0537
     26 C26        66.1630    2.0030   45.5750 C.3       1 2Y9         0.0655
     27 C27        66.1760    1.1420   44.2610 C.3       1 2Y9        -0.0254
     28 C28        67.3830    1.3040   43.2640 C.3       1 2Y9        -0.0446
     29 C29        68.7500    0.7510   43.7770 C.3       1 2Y9        -0.0626
     30 C30        67.0580    0.6590   41.8850 C.3       1 2Y9        -0.0626
     31 C31        64.7620    1.9580   46.2530 C.3       1 2Y9         0.0706
     32 O32        64.8210    2.5600   47.5740 O.3       1 2Y9        -0.3778
     33 C33        63.8010    2.1490   48.5270 C.3       1 2Y9         0.0449
     34 C34        64.3150    0.9100   49.2900 C.3       1 2Y9        -0.0416
     35 H          69.7483    7.4104   43.2306 H         1 2Y9         0.0844
     36 H          68.7935    8.9319   43.2392 H         1 2Y9         0.0844
     37 H          67.7823    8.2459   45.4488 H         1 2Y9         0.0625
     38 H          68.7267    6.2692   46.6431 H         1 2Y9         0.0654
     39 H          66.6945    5.9326   45.3640 H         1 2Y9         0.0619
     40 H          66.5441    5.3438   43.0313 H         1 2Y9         0.0843
     41 H          68.3246    5.1482   42.8952 H         1 2Y9         0.0843
     42 H          67.7062    7.2090   42.0112 H         1 2Y9         0.2017
     43 H          66.8145    7.6255   43.3306 H         1 2Y9         0.2017
     44 H          65.6301    3.9658   44.9906 H         1 2Y9         0.1855
     45 H          70.1461    4.8783   45.4770 H         1 2Y9         0.2102
     46 H          68.2052   10.9186   47.3571 H         1 2Y9         0.0626
     47 H          67.0650    7.9779   47.2610 H         1 2Y9         0.0293
     48 H          66.1052    9.4423   47.6620 H         1 2Y9         0.0293
     49 H          67.6671    9.8945   49.7490 H         1 2Y9         0.0293
     50 H          68.6269    8.4300   49.3480 H         1 2Y9         0.0293
     51 H          70.8547   11.6475   45.9572 H         1 2Y9         0.0584
     52 H          72.5105   13.0763   47.1379 H         1 2Y9         0.0638
     53 H          72.1537   10.5568   50.6199 H         1 2Y9         0.0710
     54 H          73.0838   13.8288   49.3789 H         1 2Y9         0.0442
     55 H          73.8813   13.5107   51.7019 H         1 2Y9         0.0253
     56 H          73.3753   11.7924   51.5678 H         1 2Y9         0.0253
     57 H          72.1618   13.1034   51.3793 H         1 2Y9         0.0253
     58 H          75.0522   12.9982   48.1698 H         1 2Y9         0.0253
     59 H          75.5439   12.1264   49.6614 H         1 2Y9         0.0253
     60 H          75.3880   13.9159   49.6770 H         1 2Y9         0.0253
     61 H          66.9297    1.6224   46.2659 H         1 2Y9         0.0579
     62 H          65.2602    1.3879   43.7035 H         1 2Y9         0.0291
     63 H          66.1472    0.0855   44.5657 H         1 2Y9         0.0291
     64 H          67.5148    2.3845   43.1056 H         1 2Y9         0.0296
     65 H          69.5219    0.9126   43.0101 H         1 2Y9         0.0232
     66 H          68.6564   -0.3257   43.9818 H         1 2Y9         0.0232
     67 H          69.0349    1.2765   44.7004 H         1 2Y9         0.0232
     68 H          66.0955    1.0445   41.5176 H         1 2Y9         0.0232
     69 H          66.9968   -0.4336   41.9965 H         1 2Y9         0.0232
     70 H          67.8520    0.9103   41.1664 H         1 2Y9         0.0232
     71 H          64.4372    0.9111   46.3456 H         1 2Y9         0.0583
     72 H          64.0413    2.5121   45.6337 H         1 2Y9         0.0583
     73 H          62.8734    1.8970   47.9922 H         1 2Y9         0.0557
     74 H          63.6048    2.9666   49.2363 H         1 2Y9         0.0557
     75 H          63.5551    0.5852   50.0160 H         1 2Y9         0.0252
     76 H          65.2438    1.1656   49.8210 H         1 2Y9         0.0252
     77 H          64.5124    0.0960   48.5769 H         1 2Y9         0.0252
@<TRIPOS>BOND
     1    1    2 1  
     2    1    6 1  
     3    2    3 1  
     4    2    7 1  
     5    3    4 1  
     6    3   13 1  
     7    4    5 1  
     8    4    8 1  
     9    5    6 1  
    10    7   10 am 
    11    7   11 2  
    12    8    9 2  
    13    8   12 am 
    14   10   14 1  
    15   10   15 1  
    16   12   26 1  
    17   14   16 1  
    18   14   17 1  
    19   15   18 ar 
    20   15   22 ar 
    21   16   17 1  
    22   18   19 ar 
    23   19   20 ar 
    24   20   21 ar 
    25   20   23 1  
    26   21   22 ar 
    27   23   24 1  
    28   23   25 1  
    29   26   27 1  
    30   26   31 1  
    31   27   28 1  
    32   28   29 1  
    33   28   30 1  
    34   31   32 1  
    35   32   33 1  
    36   33   34 1  
    37    1   35 1  
    38    1   36 1  
    39    2   37 1  
    40    3   38 1  
    41    4   39 1  
    42    5   40 1  
    43    5   41 1  
    44    6   42 1  
    45    6   43 1  
    46   12   44 1  
    47   13   45 1  
    48   14   46 1  
    49   16   47 1  
    50   16   48 1  
    51   17   49 1  
    52   17   50 1  
    53   18   51 1  
    54   19   52 1  
    55   21   53 1  
    56   23   54 1  
    57   24   55 1  
    58   24   56 1  
    59   24   57 1  
    60   25   58 1  
    61   25   59 1  
    62   25   60 1  
    63   26   61 1  
    64   27   62 1  
    65   27   63 1  
    66   28   64 1  
    67   29   65 1  
    68   29   66 1  
    69   29   67 1  
    70   30   68 1  
    71   30   69 1  
    72   30   70 1  
    73   31   71 1  
    74   31   72 1  
    75   33   73 1  
    76   33   74 1  
    77   34   75 1  
    78   34   76 1  
    79   34   77 1  
@<TRIPOS>SUBSTRUCTURE
     1 2Y9         1

