### 
### Created by X-TOOL on Mon Sep 10 21:13:17 2018
### 

@<TRIPOS>MOLECULE
4q1s_ligand
   79    82     1     0     0
SMALL
GAST_HUCK


@<TRIPOS>ATOM
      1 O1         75.8610 -145.5840   57.9020 O.3       1 2YD        -0.3536
      2 C1         75.0060 -146.2050   58.7180 C.2       1 2YD         0.1128
      3 C          73.7680 -146.7430   58.1200 C.2       1 2YD         0.1085
      4 O          73.5460 -146.4830   56.9510 O.2       1 2YD        -0.4375
      5 C2         75.2750 -146.3680   60.0330 C.2       1 2YD         0.0227
      6 C3         74.4590 -147.4050   60.7960 C.3       1 2YD         0.0670
      7 C22        76.5070 -145.7850   60.7150 C.3       1 2YD         0.0997
      8 C23        76.2820 -144.6270   61.7370 C.3       1 2YD         0.0189
      9 C27        75.6100 -143.3680   61.1100 C.3       1 2YD        -0.0557
     10 C24        77.6540 -144.3360   62.4490 C.3       1 2YD         0.0670
     11 O5         77.4940 -143.3290   63.4750 O.3       1 2YD        -0.3909
     12 C25        78.3360 -145.6220   63.0590 C.3       1 2YD         0.0092
     13 C26        77.7060 -146.1110   64.4050 C.3       1 2YD        -0.0577
     14 O4         77.0950 -146.9190   61.3920 O.3       1 2YD        -0.3599
     15 C21        78.3940 -146.7430   61.9640 C.3       1 2YD         0.0669
     16 C20        78.7520 -148.1810   62.4500 C.3       1 2YD        -0.0247
     17 C19        78.8320 -149.1990   61.2800 C.3       1 2YD        -0.0449
     18 C17        79.0490 -150.6810   61.7560 C.3       1 2YD        -0.0379
     19 C18        79.3690 -151.5640   60.5080 C.3       1 2YD        -0.0592
     20 C16        77.8710 -151.3130   62.5150 C.2       1 2YD        -0.1061
     21 C15        77.6470 -151.5450   63.8480 C.2       1 2YD        -0.0836
     22 C28        78.6350 -151.2440   64.9640 C.3       1 2YD        -0.0403
     23 C14        76.3210 -152.1090   64.3990 C.3       1 2YD        -0.0260
     24 C12        75.0310 -152.0220   63.5080 C.3       1 2YD        -0.0351
     25 C13        73.8520 -152.7860   64.1780 C.3       1 2YD        -0.0607
     26 C11        74.6840 -150.5130   63.2340 C.3       1 2YD        -0.0408
     27 C9         73.7100 -150.1750   62.0650 C.3       1 2YD         0.0163
     28 C10        74.3320 -150.5490   60.6870 C.3       1 2YD        -0.0570
     29 C5         73.0960 -148.7230   62.2320 C.3       1 2YD         0.2009
     30 C4         74.0140 -147.4470   62.2730 C.3       1 2YD         0.0357
     31 O2         72.2110 -148.7340   63.3770 O.3       1 2YD        -0.3598
     32 O3         72.3160 -148.3770   61.0750 O.3       1 2YD        -0.2738
     33 C6         73.1180 -147.7220   60.2080 C.2       1 2YD         0.1071
     34 C7         72.8080 -147.5310   58.9190 C.2       1 2YD         0.0071
     35 C8         71.4940 -148.0200   58.3600 C.3       1 2YD        -0.0467
     36 H1         76.6123 -145.2850   58.4005 H         1 2YD         0.2347
     37 H2         75.0920 -148.2969   60.6787 H         1 2YD         0.0731
     38 H3         77.1911 -145.4109   59.9391 H         1 2YD         0.0770
     39 H4         75.5867 -144.9961   62.5053 H         1 2YD         0.0372
     40 H5         75.4829 -142.5965   61.8838 H         1 2YD         0.0236
     41 H6         74.6265 -143.6426   60.7011 H         1 2YD         0.0236
     42 H7         76.2464 -142.9763   60.3028 H         1 2YD         0.0236
     43 H8         78.3368 -143.9348   61.6856 H         1 2YD         0.0602
     44 H9         78.3321 -143.1678   63.8923 H         1 2YD         0.2098
     45 H10        79.3752 -145.3480   63.2934 H         1 2YD         0.0348
     46 H11        78.2400 -147.0065   64.7558 H         1 2YD         0.0234
     47 H12        76.6453 -146.3554   64.2460 H         1 2YD         0.0234
     48 H13        77.7898 -145.3151   65.1596 H         1 2YD         0.0234
     49 H14        79.1178 -146.4298   61.1972 H         1 2YD         0.0602
     50 H15        77.9802 -148.5169   63.1582 H         1 2YD         0.0292
     51 H16        79.7271 -148.1496   62.9580 H         1 2YD         0.0292
     52 H17        79.6715 -148.9157   60.6281 H         1 2YD         0.0283
     53 H18        77.8924 -149.1499   60.7102 H         1 2YD         0.0283
     54 H19        79.9185 -150.6880   62.4298 H         1 2YD         0.0372
     55 H20        79.5236 -152.6057   60.8258 H         1 2YD         0.0247
     56 H21        80.2808 -151.1908   60.0188 H         1 2YD         0.0247
     57 H22        78.5280 -151.5175   59.8005 H         1 2YD         0.0247
     58 H23        77.0571 -151.6396   61.8694 H         1 2YD         0.0245
     59 H24        78.1944 -151.5294   65.9306 H         1 2YD         0.0375
     60 H25        78.8655 -150.1685   64.9695 H         1 2YD         0.0375
     61 H26        79.5598 -151.8164   64.7993 H         1 2YD         0.0375
     62 H27        76.1047 -151.5706   65.3335 H         1 2YD         0.0413
     63 H28        76.4898 -153.1733   64.6196 H         1 2YD         0.0413
     64 H29        75.2416 -152.5050   62.5424 H         1 2YD         0.0319
     65 H30        72.9587 -152.7139   63.5401 H         1 2YD         0.0234
     66 H31        73.6377 -152.3406   65.1607 H         1 2YD         0.0234
     67 H32        74.1262 -153.8435   64.3066 H         1 2YD         0.0234
     68 H33        75.6316 -149.9940   63.0276 H         1 2YD         0.0274
     69 H34        74.2381 -150.1097   64.1552 H         1 2YD         0.0274
     70 H35        72.8528 -150.8550   62.1780 H         1 2YD         0.0355
     71 H36        74.7137 -151.5800   60.7247 H         1 2YD         0.0234
     72 H37        75.1587 -149.8602   60.4587 H         1 2YD         0.0234
     73 H38        73.5630 -150.4711   59.9043 H         1 2YD         0.0234
     74 H39        73.4512 -146.5458   62.5577 H         1 2YD         0.0383
     75 H40        74.8672 -147.5772   62.9550 H         1 2YD         0.0383
     76 H41        71.5240 -149.3755   63.2387 H         1 2YD         0.2132
     77 H42        71.4332 -147.7665   57.2913 H         1 2YD         0.0287
     78 H43        70.6645 -147.5387   58.8987 H         1 2YD         0.0287
     79 H44        71.4267 -149.1111   58.4824 H         1 2YD         0.0287
@<TRIPOS>BOND
     1    1    2 1  
     2    2    3 1  
     3    2    5 2  
     4    3    4 2  
     5    3   34 1  
     6    5    6 1  
     7    5    7 1  
     8    6   30 1  
     9    6   33 1  
    10    7    8 1  
    11    7   14 1  
    12    8    9 1  
    13    8   10 1  
    14   10   11 1  
    15   10   12 1  
    16   12   13 1  
    17   12   15 1  
    18   14   15 1  
    19   15   16 1  
    20   16   17 1  
    21   17   18 1  
    22   18   19 1  
    23   18   20 1  
    24   20   21 2  
    25   21   22 1  
    26   21   23 1  
    27   23   24 1  
    28   24   25 1  
    29   24   26 1  
    30   26   27 1  
    31   27   28 1  
    32   27   29 1  
    33   29   30 1  
    34   29   31 1  
    35   29   32 1  
    36   32   33 1  
    37   33   34 2  
    38   34   35 1  
    39    1   36 1  
    40    6   37 1  
    41    7   38 1  
    42    8   39 1  
    43    9   40 1  
    44    9   41 1  
    45    9   42 1  
    46   10   43 1  
    47   11   44 1  
    48   12   45 1  
    49   13   46 1  
    50   13   47 1  
    51   13   48 1  
    52   15   49 1  
    53   16   50 1  
    54   16   51 1  
    55   17   52 1  
    56   17   53 1  
    57   18   54 1  
    58   19   55 1  
    59   19   56 1  
    60   19   57 1  
    61   20   58 1  
    62   22   59 1  
    63   22   60 1  
    64   22   61 1  
    65   23   62 1  
    66   23   63 1  
    67   24   64 1  
    68   25   65 1  
    69   25   66 1  
    70   25   67 1  
    71   26   68 1  
    72   26   69 1  
    73   27   70 1  
    74   28   71 1  
    75   28   72 1  
    76   28   73 1  
    77   30   74 1  
    78   30   75 1  
    79   31   76 1  
    80   35   77 1  
    81   35   78 1  
    82   35   79 1  
@<TRIPOS>SUBSTRUCTURE
     1 2YD         1

