### 
### Created by X-TOOL on Mon Sep 10 21:13:23 2018
### 

@<TRIPOS>MOLECULE
4q1w_ligand
   75    78     1     0     0
SMALL
GAST_HUCK


@<TRIPOS>ATOM
      1 N1         14.2590   34.7870   18.2090 N.pl3     1 017        -0.3369
      2 C2         15.1400   34.1970   17.3640 C.ar      1 017         0.0353
      3 C3         14.9820   32.8700   16.9910 C.ar      1 017        -0.0429
      4 C4         15.9240   32.2870   16.1360 C.ar      1 017        -0.0471
      5 C5         16.9950   33.0060   15.5930 C.ar      1 017         0.0949
      6 C6         17.1280   34.3350   15.9760 C.ar      1 017        -0.0471
      7 C7         16.1980   34.9320   16.8310 C.ar      1 017        -0.0429
      8 S8         18.0600   32.2750   14.6010 S.o2      1 017         0.0648
      9 O9         17.3870   31.1720   13.9760 O.2       1 017        -0.1518
     10 O10        18.6040   33.2180   13.6670 O.2       1 017        -0.1518
     11 N11        19.3420   31.6680   15.3930 N.am      1 017        -0.2327
     12 C12        20.0120   32.6820   16.2370 C.3       1 017         0.0319
     13 C13        21.4950   32.3650   16.4410 C.3       1 017        -0.0296
     14 C14        22.2420   32.2550   15.1130 C.3       1 017        -0.0612
     15 C15        22.1990   33.4050   17.3040 C.3       1 017        -0.0612
     16 C16        19.0370   30.4050   16.0980 C.3       1 017         0.0578
     17 C17        19.8980   29.2570   15.5840 C.3       1 017         0.0967
     18 O18        19.8550   28.1130   16.4620 O.3       1 017        -0.3877
     19 C19        19.5350   28.8110   14.1650 C.3       1 017         0.0807
     20 N20        20.6350   28.0180   13.6820 N.am      1 017        -0.2550
     21 C21        21.5240   28.3640   12.7420 C.2       1 017         0.3203
     22 O22        21.5990   29.4040   12.1170 O.2       1 017        -0.3775
     23 O23        22.5190   27.3470   12.5310 O.3       1 017        -0.2578
     24 C24        23.3850   27.4590   11.4050 C.3       1 017         0.1189
     25 C25        24.7090   26.9090   11.8940 C.3       1 017         0.0815
     26 O26        24.5310   25.4920   11.8200 O.3       1 017        -0.3480
     27 C27        23.6640   25.1990   10.7230 C.3       1 017         0.1648
     28 O28        22.6440   24.2710   11.0720 O.3       1 017        -0.3509
     29 C29        21.3520   24.8870   11.0620 C.3       1 017         0.0512
     30 C30        21.5020   26.1310   10.2020 C.3       1 017        -0.0191
     31 C31        22.9800   26.4920   10.3150 C.3       1 017         0.0449
     32 C32        18.2580   27.9870   14.0430 C.3       1 017         0.0064
     33 C33        17.6940   28.6010   11.6430 C.ar      1 017        -0.0603
     34 C34        17.4880   28.2540   10.3010 C.ar      1 017        -0.0686
     35 C35        17.6250   26.9380    9.8970 C.ar      1 017        -0.0687
     36 C36        17.9630   25.9730   10.8150 C.ar      1 017        -0.0686
     37 C37        18.1480   26.3160   12.1490 C.ar      1 017        -0.0603
     38 C38        18.0230   27.6340   12.5780 C.ar      1 017        -0.0408
     39 H1         13.4781   34.2421   18.6016 H         1 017         0.1719
     40 H2         14.3706   35.7801   18.4583 H         1 017         0.1719
     41 H3         14.1405   32.2928   17.3568 H         1 017         0.0515
     42 H4         15.8202   31.2377   15.8845 H         1 017         0.0602
     43 H5         17.9647   34.9167   15.6064 H         1 017         0.0602
     44 H6         16.3006   35.9812   17.0834 H         1 017         0.0515
     45 H7         19.5164   32.7114   17.2186 H         1 017         0.0480
     46 H8         19.9220   33.6648   15.7512 H         1 017         0.0480
     47 H9         21.5580   31.3940   16.9540 H         1 017         0.0311
     48 H10        23.3007   32.0271   15.3057 H         1 017         0.0233
     49 H11        22.1653   33.2080   14.5691 H         1 017         0.0233
     50 H12        21.7980   31.4507   14.5081 H         1 017         0.0233
     51 H13        21.6746   33.4985   18.2664 H         1 017         0.0233
     52 H14        22.1923   34.3759   16.7870 H         1 017         0.0233
     53 H15        23.2382   33.0913   17.4817 H         1 017         0.0233
     54 H16        17.9773   30.1550   15.9414 H         1 017         0.0504
     55 H17        19.2268   30.5407   17.1730 H         1 017         0.0504
     56 H18        20.9354   29.6221   15.5598 H         1 017         0.0634
     57 H19        20.1747   28.3624   17.3212 H         1 017         0.2100
     58 H20        19.4213   29.7086   13.5394 H         1 017         0.0604
     59 H21        20.7473   27.1128   14.0918 H         1 017         0.1873
     60 H22        23.4494   28.4937   11.0372 H         1 017         0.0675
     61 H23        24.9086   27.2265   12.9281 H         1 017         0.0590
     62 H24        25.5343   27.2358   11.2443 H         1 017         0.0590
     63 H25        24.2552   24.7972    9.8870 H         1 017         0.0913
     64 H26        21.0484   25.1601   12.0834 H         1 017         0.0561
     65 H27        20.6051   24.2067   10.6269 H         1 017         0.0561
     66 H28        20.8713   26.9472   10.5842 H         1 017         0.0293
     67 H29        21.2320   25.9173    9.1573 H         1 017         0.0293
     68 H30        23.3377   26.8630    9.3432 H         1 017         0.0380
     69 H31        17.4062   28.5714   14.4212 H         1 017         0.0449
     70 H32        18.3592   27.0633   14.6317 H         1 017         0.0449
     71 H33        17.5949   29.6353   11.9518 H         1 017         0.0557
     72 H34        17.2211   29.0173    9.5790 H         1 017         0.0599
     73 H35        17.4661   26.6688    8.8590 H         1 017         0.0559
     74 H36        18.0854   24.9435   10.4985 H         1 017         0.0599
     75 H37        18.3941   25.5431   12.8682 H         1 017         0.0557
@<TRIPOS>BOND
     1    2    1 1  
     2    3    2 ar 
     3    7    2 ar 
     4    4    3 ar 
     5    5    4 ar 
     6    5    6 ar 
     7    8    5 1  
     8    6    7 ar 
     9    8    9 2  
    10    8   10 2  
    11   11    8 am 
    12   11   12 1  
    13   16   11 1  
    14   12   13 1  
    15   13   14 1  
    16   13   15 1  
    17   17   16 1  
    18   17   18 1  
    19   19   17 1  
    20   19   20 1  
    21   32   19 1  
    22   20   21 am 
    23   21   22 2  
    24   21   23 1  
    25   23   24 1  
    26   24   25 1  
    27   24   31 1  
    28   25   26 1  
    29   27   26 1  
    30   27   28 1  
    31   31   27 1  
    32   29   28 1  
    33   30   29 1  
    34   31   30 1  
    35   38   32 1  
    36   33   34 ar 
    37   33   38 ar 
    38   34   35 ar 
    39   35   36 ar 
    40   36   37 ar 
    41   37   38 ar 
    42    1   39 1  
    43    1   40 1  
    44    3   41 1  
    45    4   42 1  
    46    6   43 1  
    47    7   44 1  
    48   12   45 1  
    49   12   46 1  
    50   13   47 1  
    51   14   48 1  
    52   14   49 1  
    53   14   50 1  
    54   15   51 1  
    55   15   52 1  
    56   15   53 1  
    57   16   54 1  
    58   16   55 1  
    59   17   56 1  
    60   18   57 1  
    61   19   58 1  
    62   20   59 1  
    63   24   60 1  
    64   25   61 1  
    65   25   62 1  
    66   27   63 1  
    67   29   64 1  
    68   29   65 1  
    69   30   66 1  
    70   30   67 1  
    71   31   68 1  
    72   32   69 1  
    73   32   70 1  
    74   33   71 1  
    75   34   72 1  
    76   35   73 1  
    77   36   74 1  
    78   37   75 1  
@<TRIPOS>SUBSTRUCTURE
     1 017         1

