### 
### Created by X-TOOL on Mon Sep 10 21:13:23 2018
### 

@<TRIPOS>MOLECULE
4q1x_ligand
   75    78     1     0     0
SMALL
GAST_HUCK


@<TRIPOS>ATOM
      1 N1         14.2650   35.0130   18.2520 N.pl3     1 017        -0.3369
      2 C2         15.1800   34.4890   17.3980 C.ar      1 017         0.0353
      3 C3         16.2710   35.2340   16.9310 C.ar      1 017        -0.0429
      4 C4         17.1810   34.6470   16.0480 C.ar      1 017        -0.0471
      5 C5         17.0160   33.3270   15.6140 C.ar      1 017         0.0949
      6 C6         15.9230   32.6060   16.0790 C.ar      1 017        -0.0471
      7 C7         15.0040   33.1850   16.9530 C.ar      1 017        -0.0429
      8 S8         18.0450   32.5820   14.6160 S.o2      1 017         0.0648
      9 O9         17.3450   31.5000   13.9740 O.2       1 017        -0.1518
     10 O10        18.5960   33.4760   13.6520 O.2       1 017        -0.1518
     11 N11        19.3160   31.9860   15.4240 N.am      1 017        -0.2327
     12 C12        19.9950   32.9950   16.2780 C.3       1 017         0.0319
     13 C13        21.4910   32.6970   16.4040 C.3       1 017        -0.0296
     14 C14        22.1930   32.6270   15.0410 C.3       1 017        -0.0612
     15 C15        22.1490   33.7440   17.3010 C.3       1 017        -0.0612
     16 C16        19.0320   30.7370   16.1420 C.3       1 017         0.0578
     17 C17        19.9140   29.6070   15.6090 C.3       1 017         0.0967
     18 O18        19.8280   28.4880   16.5240 O.3       1 017        -0.3877
     19 C19        19.5590   29.2160   14.1780 C.3       1 017         0.0807
     20 N20        20.6670   28.4200   13.6740 N.am      1 017        -0.2550
     21 C21        21.5230   28.8100   12.7340 C.2       1 017         0.3203
     22 O22        21.5350   29.8810   12.1480 O.2       1 017        -0.3775
     23 O23        22.4970   27.7880   12.4510 O.3       1 017        -0.2578
     24 C24        23.3550   27.8430   11.3150 C.3       1 017         0.1189
     25 C25        24.6780   27.2520   11.7610 C.3       1 017         0.0815
     26 O26        24.5000   25.8350   11.6610 O.3       1 017        -0.3480
     27 C27        23.5510   25.5830   10.6170 C.3       1 017         0.1648
     28 O28        22.5050   24.7100   11.0300 O.3       1 017        -0.3509
     29 C29        21.2440   25.3960   11.0380 C.3       1 017         0.0512
     30 C30        21.4040   26.6080   10.1320 C.3       1 017        -0.0191
     31 C31        22.9020   26.8980   10.2180 C.3       1 017         0.0449
     32 C32        18.2480   28.4300   14.0120 C.3       1 017         0.0064
     33 C33        18.1180   26.6900   12.1940 C.ar      1 017        -0.0603
     34 C34        17.9330   26.2820   10.8800 C.ar      1 017        -0.0686
     35 C35        17.6480   27.2250    9.9120 C.ar      1 017        -0.0687
     36 C36        17.5420   28.5610   10.2700 C.ar      1 017        -0.0686
     37 C37        17.7330   28.9740   11.5880 C.ar      1 017        -0.0603
     38 C38        18.0270   28.0310   12.5640 C.ar      1 017        -0.0408
     39 H1         14.3744   35.9778   18.5955 H         1 017         0.1719
     40 H2         13.4610   34.4459   18.5568 H         1 017         0.1719
     41 H3         16.4083   36.2600   17.2529 H         1 017         0.0515
     42 H4         18.0280   35.2232   15.6936 H         1 017         0.0602
     43 H5         15.7831   31.5801   15.7581 H         1 017         0.0602
     44 H6         14.1459   32.6134   17.2877 H         1 017         0.0515
     45 H7         19.5409   32.9812   17.2798 H         1 017         0.0480
     46 H8         19.8641   33.9909   15.8297 H         1 017         0.0480
     47 H9         21.6001   31.7142   16.8859 H         1 017         0.0311
     48 H10        23.2614   32.4113   15.1895 H         1 017         0.0233
     49 H11        22.0822   33.5903   14.5216 H         1 017         0.0233
     50 H12        21.7387   31.8292   14.4351 H         1 017         0.0233
     51 H13        21.6293   33.7754   18.2700 H         1 017         0.0233
     52 H14        22.0865   34.7310   16.8194 H         1 017         0.0233
     53 H15        23.2049   33.4796   17.4596 H         1 017         0.0233
     54 H16        17.9744   30.4694   16.0007 H         1 017         0.0504
     55 H17        19.2340   30.8804   17.2137 H         1 017         0.0504
     56 H18        20.9551   29.9621   15.6016 H         1 017         0.0634
     57 H19        18.9257   28.1964   16.5820 H         1 017         0.2100
     58 H20        19.4719   30.1373   13.5834 H         1 017         0.0604
     59 H21        20.7951   27.5085   14.0647 H         1 017         0.1873
     60 H22        23.4529   28.8741   10.9445 H         1 017         0.0675
     61 H23        24.9014   27.5418   12.7983 H         1 017         0.0590
     62 H24        25.4932   27.5871   11.1029 H         1 017         0.0590
     63 H25        24.0744   25.1428    9.7555 H         1 017         0.0913
     64 H26        20.9924   25.7163   12.0598 H         1 017         0.0561
     65 H27        20.4509   24.7373   10.6545 H         1 017         0.0561
     66 H28        20.8136   27.4596   10.5011 H         1 017         0.0293
     67 H29        21.1042   26.3738    9.0999 H         1 017         0.0293
     68 H30        23.2594   27.2592    9.2424 H         1 017         0.0380
     69 H31        17.4083   29.0587   14.3431 H         1 017         0.0449
     70 H32        18.2930   27.5221   14.6315 H         1 017         0.0449
     71 H33        18.3389   25.9469   12.9517 H         1 017         0.0557
     72 H34        18.0115   25.2335   10.6163 H         1 017         0.0599
     73 H35        17.5082   26.9234    8.8802 H         1 017         0.0559
     74 H36        17.3062   29.2979    9.5107 H         1 017         0.0599
     75 H37        17.6526   30.0231   11.8487 H         1 017         0.0557
@<TRIPOS>BOND
     1    2    1 1  
     2    3    2 ar 
     3    7    2 ar 
     4    4    3 ar 
     5    5    4 ar 
     6    5    6 ar 
     7    8    5 1  
     8    6    7 ar 
     9    8    9 2  
    10    8   10 2  
    11   11    8 am 
    12   11   12 1  
    13   16   11 1  
    14   12   13 1  
    15   13   14 1  
    16   13   15 1  
    17   17   16 1  
    18   17   18 1  
    19   19   17 1  
    20   19   20 1  
    21   32   19 1  
    22   20   21 am 
    23   21   22 2  
    24   21   23 1  
    25   23   24 1  
    26   24   25 1  
    27   24   31 1  
    28   25   26 1  
    29   27   26 1  
    30   27   28 1  
    31   31   27 1  
    32   29   28 1  
    33   30   29 1  
    34   31   30 1  
    35   38   32 1  
    36   33   34 ar 
    37   33   38 ar 
    38   34   35 ar 
    39   35   36 ar 
    40   36   37 ar 
    41   37   38 ar 
    42    1   39 1  
    43    1   40 1  
    44    3   41 1  
    45    4   42 1  
    46    6   43 1  
    47    7   44 1  
    48   12   45 1  
    49   12   46 1  
    50   13   47 1  
    51   14   48 1  
    52   14   49 1  
    53   14   50 1  
    54   15   51 1  
    55   15   52 1  
    56   15   53 1  
    57   16   54 1  
    58   16   55 1  
    59   17   56 1  
    60   18   57 1  
    61   19   58 1  
    62   20   59 1  
    63   24   60 1  
    64   25   61 1  
    65   25   62 1  
    66   27   63 1  
    67   29   64 1  
    68   29   65 1  
    69   30   66 1  
    70   30   67 1  
    71   31   68 1  
    72   32   69 1  
    73   32   70 1  
    74   33   71 1  
    75   34   72 1  
    76   35   73 1  
    77   36   74 1  
    78   37   75 1  
@<TRIPOS>SUBSTRUCTURE
     1 017         1

