### 
### Created by X-TOOL on Mon Sep 10 21:13:23 2018
### 

@<TRIPOS>MOLECULE
4q1y_ligand
   75    78     1     0     0
SMALL
GAST_HUCK


@<TRIPOS>ATOM
      1 N1         14.2420   34.9950   18.0240 N.pl3     1 017        -0.3369
      2 C2         15.1890   34.4520   17.2070 C.ar      1 017         0.0353
      3 C3         15.0180   33.1430   16.7880 C.ar      1 017        -0.0429
      4 C4         15.9820   32.5760   15.9500 C.ar      1 017        -0.0471
      5 C5         17.1030   33.2920   15.5100 C.ar      1 017         0.0949
      6 C6         17.2580   34.6150   15.9270 C.ar      1 017        -0.0471
      7 C7         16.2820   35.2020   16.7770 C.ar      1 017        -0.0429
      8 S8         18.1920   32.5390   14.5510 S.o2      1 017         0.0648
      9 O9         17.5110   31.4580   13.9340 O.2       1 017        -0.1518
     10 O10        18.8450   33.4870   13.6920 O.2       1 017        -0.1518
     11 N11        19.4320   31.9370   15.4220 N.am      1 017        -0.2327
     12 C12        20.2190   32.9130   16.2250 C.3       1 017         0.0319
     13 C13        21.6980   32.5360   16.2890 C.3       1 017        -0.0296
     14 C14        22.3930   33.5330   17.2170 C.3       1 017        -0.0612
     15 C15        22.3290   32.5620   14.9000 C.3       1 017        -0.0612
     16 C16        19.1180   30.6680   16.1330 C.3       1 017         0.0578
     17 C17        20.0520   29.5620   15.6240 C.3       1 017         0.0967
     18 O18        19.9790   28.4060   16.4980 O.3       1 017        -0.3877
     19 C19        19.7020   29.1080   14.2090 C.3       1 017         0.0807
     20 N20        20.8050   28.2910   13.7280 N.am      1 017        -0.2550
     21 C21        21.6900   28.6610   12.8270 C.2       1 017         0.3203
     22 O22        21.7760   29.6980   12.2240 O.2       1 017        -0.3775
     23 O23        22.6590   27.6520   12.6160 O.3       1 017        -0.2578
     24 C24        23.4950   27.8180   11.4680 C.3       1 017         0.1189
     25 C25        24.8210   27.2000   11.8460 C.3       1 017         0.0815
     26 O26        24.5770   25.8070   11.7410 O.3       1 017        -0.3480
     27 C27        23.6880   25.5800   10.6590 C.3       1 017         0.1648
     28 O28        22.6770   24.6860   11.0720 O.3       1 017        -0.3509
     29 C29        21.4020   25.3420   11.1580 C.3       1 017         0.0512
     30 C30        21.5220   26.5950   10.2950 C.3       1 017        -0.0191
     31 C31        23.0100   26.9110   10.3570 C.3       1 017         0.0449
     32 C32        18.4180   28.3030   14.0580 C.3       1 017         0.0064
     33 C33        17.8850   28.8480   11.6300 C.ar      1 017        -0.0603
     34 C34        17.6750   28.4690   10.3100 C.ar      1 017        -0.0686
     35 C35        17.7200   27.1330    9.9540 C.ar      1 017        -0.0687
     36 C36        17.9970   26.1890   10.9310 C.ar      1 017        -0.0686
     37 C37        18.1930   26.5760   12.2600 C.ar      1 017        -0.0603
     38 C38        18.1690   27.9070   12.6050 C.ar      1 017        -0.0408
     39 H1         13.4405   34.4263   18.3324 H         1 017         0.1719
     40 H2         14.3282   35.9738   18.3328 H         1 017         0.1719
     41 H3         14.1538   32.5698   17.1037 H         1 017         0.0515
     42 H4         15.8583   31.5478   15.6297 H         1 017         0.0602
     43 H5         18.1176   35.1912   15.6044 H         1 017         0.0602
     44 H6         16.3878   36.2341   17.0912 H         1 017         0.0515
     45 H7         19.8144   32.9406   17.2475 H         1 017         0.0480
     46 H8         20.1252   33.9085   15.7665 H         1 017         0.0480
     47 H9         21.7973   31.5218   16.7030 H         1 017         0.0311
     48 H10        23.4631   33.2871   17.2839 H         1 017         0.0233
     49 H11        21.9410   33.4784   18.2184 H         1 017         0.0233
     50 H12        22.2750   34.5506   16.8163 H         1 017         0.0233
     51 H13        21.8147   31.8387   14.2501 H         1 017         0.0233
     52 H14        23.3933   32.2948   14.9757 H         1 017         0.0233
     53 H15        22.2338   33.5712   14.4728 H         1 017         0.0233
     54 H16        18.0728   30.3857   15.9383 H         1 017         0.0504
     55 H17        19.2654   30.8056   17.2144 H         1 017         0.0504
     56 H18        21.0808   29.9513   15.6250 H         1 017         0.0634
     57 H19        19.0873   28.0786   16.5144 H         1 017         0.2100
     58 H20        19.6095   30.0061   13.5806 H         1 017         0.0604
     59 H21        20.8985   27.3730   14.1135 H         1 017         0.1873
     60 H22        23.5712   28.8702   11.1565 H         1 017         0.0675
     61 H23        25.1041   27.4735   12.8731 H         1 017         0.0590
     62 H24        25.6138   27.5140   11.1512 H         1 017         0.0590
     63 H25        24.2244   25.1919    9.7805 H         1 017         0.0913
     64 H26        21.1805   25.6144   12.2005 H         1 017         0.0561
     65 H27        20.6068   24.6864   10.7734 H         1 017         0.0561
     66 H28        20.9248   27.4201   10.7104 H         1 017         0.0293
     67 H29        21.2028   26.3955    9.2614 H         1 017         0.0293
     68 H30        23.3283   27.3228    9.3879 H         1 017         0.0380
     69 H31        17.5722   28.9107   14.4120 H         1 017         0.0449
     70 H32        18.4949   27.3909   14.6681 H         1 017         0.0449
     71 H33        17.8256   29.8960   11.9005 H         1 017         0.0557
     72 H34        17.4753   29.2225    9.5567 H         1 017         0.0599
     73 H35        17.5418   26.8293    8.9288 H         1 017         0.0559
     74 H36        18.0622   25.1410   10.6618 H         1 017         0.0599
     75 H37        18.3646   25.8239   13.0216 H         1 017         0.0557
@<TRIPOS>BOND
     1    2    1 1  
     2    3    2 ar 
     3    7    2 ar 
     4    4    3 ar 
     5    5    4 ar 
     6    5    6 ar 
     7    8    5 1  
     8    6    7 ar 
     9    8    9 2  
    10    8   10 2  
    11   11    8 am 
    12   11   12 1  
    13   16   11 1  
    14   12   13 1  
    15   13   14 1  
    16   13   15 1  
    17   17   16 1  
    18   17   18 1  
    19   19   17 1  
    20   19   20 1  
    21   32   19 1  
    22   20   21 am 
    23   21   22 2  
    24   21   23 1  
    25   23   24 1  
    26   24   25 1  
    27   24   31 1  
    28   25   26 1  
    29   27   26 1  
    30   27   28 1  
    31   31   27 1  
    32   29   28 1  
    33   30   29 1  
    34   31   30 1  
    35   38   32 1  
    36   33   34 ar 
    37   33   38 ar 
    38   34   35 ar 
    39   35   36 ar 
    40   36   37 ar 
    41   37   38 ar 
    42    1   39 1  
    43    1   40 1  
    44    3   41 1  
    45    4   42 1  
    46    6   43 1  
    47    7   44 1  
    48   12   45 1  
    49   12   46 1  
    50   13   47 1  
    51   14   48 1  
    52   14   49 1  
    53   14   50 1  
    54   15   51 1  
    55   15   52 1  
    56   15   53 1  
    57   16   54 1  
    58   16   55 1  
    59   17   56 1  
    60   18   57 1  
    61   19   58 1  
    62   20   59 1  
    63   24   60 1  
    64   25   61 1  
    65   25   62 1  
    66   27   63 1  
    67   29   64 1  
    68   29   65 1  
    69   30   66 1  
    70   30   67 1  
    71   31   68 1  
    72   32   69 1  
    73   32   70 1  
    74   33   71 1  
    75   34   72 1  
    76   35   73 1  
    77   36   74 1  
    78   37   75 1  
@<TRIPOS>SUBSTRUCTURE
     1 017         1

