### 
### Created by X-TOOL on Mon Sep 10 21:13:19 2018
### 

@<TRIPOS>MOLECULE
4q2k_ligand
   82    86     1     0     0
SMALL
GAST_HUCK


@<TRIPOS>ATOM
      1 C01        60.7910    6.4560   32.9440 C.ar      1 5BF        -0.0396
      2 C02        59.9140    5.3720   32.9180 C.ar      1 5BF        -0.0685
      3 C03        59.2600    5.0120   31.7460 C.ar      1 5BF        -0.0493
      4 C04        58.2950    3.8450   31.7820 C.3       1 5BF         0.0163
      5 C05        59.4850    5.7500   30.5830 C.ar      1 5BF        -0.0685
      6 C06        60.3690    6.8180   30.6060 C.ar      1 5BF        -0.0396
      7 C07        61.0340    7.1820   31.7750 C.ar      1 5BF         0.0840
      8 O08        61.8820    8.2690   31.7330 O.3       1 5BF        -0.3224
      9 C09        63.1530    8.3050   32.3610 C.3       1 5BF         0.0690
     10 C10        63.8360    6.9750   32.0920 C.3       1 5BF        -0.0229
     11 C11        64.7700    7.0660   30.9070 C.3       1 5BF        -0.0229
     12 C12        64.1310    6.5060   29.6560 C.3       1 5BF         0.0690
     13 O13        65.2370    5.8630   29.0590 O.3       1 5BF        -0.3224
     14 C14        65.1310    5.0820   27.9600 C.ar      1 5BF         0.0840
     15 C15        64.7240    5.5610   26.7110 C.ar      1 5BF        -0.0396
     16 C16        64.6710    4.6590   25.6510 C.ar      1 5BF        -0.0686
     17 C17        65.4850    3.7710   28.1680 C.ar      1 5BF        -0.0396
     18 C18        65.4460    2.8870   27.1210 C.ar      1 5BF        -0.0686
     19 C19        65.0440    3.3270   25.8830 C.ar      1 5BF        -0.0516
     20 C20        65.0230    2.2660   24.8240 C.3       1 5BF        -0.0092
     21 C21        63.6000    1.7400   24.7630 C.3       1 5BF         0.0310
     22 C22        63.2180    1.0440   26.0450 C.2       1 5BF         0.1513
     23 O23        63.7260   -0.0080   26.4190 O.2       1 5BF        -0.3828
     24 C24        62.1850    1.7140   26.8600 C.2       1 5BF         0.1145
     25 N25        61.7570    1.1890   28.0060 N.pl3     1 5BF        -0.2643
     26 C26        61.5200    2.9210   26.6130 C.2       1 5BF        -0.0518
     27 C27        60.6500    3.1220   27.6630 C.2       1 5BF        -0.0503
     28 C28        60.8410    2.0220   28.4950 C.2       1 5BF         0.1327
     29 C29        60.1660    1.7440   29.7500 C.2       1 5BF         0.2252
     30 O30        60.5140    0.7950   30.4450 O.2       1 5BF        -0.3877
     31 N31        59.1490    2.5880   30.0490 N.am      1 5BF        -0.2632
     32 C32        58.9270    2.5010   31.4690 C.3       1 5BF         0.1383
     33 C33        57.9440    1.3880   31.6990 C.2       1 5BF         0.2058
     34 O34        57.2040    0.9860   30.6740 O.2       1 5BF        -0.3942
     35 N35        57.8350    0.8750   32.8510 N.am      1 5BF        -0.2631
     36 C36        56.8270   -0.1410   33.1150 C.3       1 5BF         0.1223
     37 C37        55.7140    0.5360   33.8790 C.2       1 5BF         0.1265
     38 O38        54.7290   -0.1250   34.1810 O.2       1 5BF        -0.3723
     39 C39        57.3450   -1.2090   34.0610 C.3       1 5BF         0.0201
     40 C40        58.5450   -1.8270   33.4210 C.ar      1 5BF        -0.0385
     41 C41        58.5070   -2.1830   32.0750 C.ar      1 5BF        -0.0601
     42 C42        59.6320   -2.7330   31.4830 C.ar      1 5BF        -0.0686
     43 C43        60.7800   -2.9240   32.2500 C.ar      1 5BF        -0.0687
     44 C44        60.8040   -2.5620   33.5980 C.ar      1 5BF        -0.0686
     45 C45        59.6820   -1.9990   34.1900 C.ar      1 5BF        -0.0601
     46 H1         61.2830    6.7347   33.8688 H         1 5BF         0.0525
     47 H2         59.7402    4.8028   33.8240 H         1 5BF         0.0530
     48 H3         57.5007    4.0321   31.0444 H         1 5BF         0.0453
     49 H4         57.8554    3.7926   32.7890 H         1 5BF         0.0453
     50 H5         58.9706    5.4892   29.6651 H         1 5BF         0.0530
     51 H6         60.5462    7.3808   29.6966 H         1 5BF         0.0525
     52 H7         63.0321    8.4522   33.4444 H         1 5BF         0.0611
     53 H8         63.7542    9.1264   31.9442 H         1 5BF         0.0611
     54 H9         63.0692    6.2138   31.8859 H         1 5BF         0.0292
     55 H10        64.4134    6.6825   32.9814 H         1 5BF         0.0292
     56 H11        65.6845    6.4959   31.1276 H         1 5BF         0.0292
     57 H12        65.0283    8.1213   30.7351 H         1 5BF         0.0292
     58 H13        63.7316    7.3043   29.0133 H         1 5BF         0.0611
     59 H14        63.3289    5.7924   29.8958 H         1 5BF         0.0611
     60 H15        64.4578    6.6026   26.5719 H         1 5BF         0.0525
     61 H16        64.3482    4.9798   24.6672 H         1 5BF         0.0530
     62 H17        65.7928    3.4381   29.1526 H         1 5BF         0.0525
     63 H18        65.7295    1.8511   27.2683 H         1 5BF         0.0530
     64 H19        65.7166    1.4538   25.0870 H         1 5BF         0.0429
     65 H20        65.3111    2.6940   23.8525 H         1 5BF         0.0429
     66 H21        63.5169    1.0269   23.9296 H         1 5BF         0.0502
     67 H22        62.9133    2.5826   24.5944 H         1 5BF         0.0502
     68 H23        62.0740    0.3068   28.4328 H         1 5BF         0.2368
     69 H24        61.6629    3.5761   25.7549 H         1 5BF         0.0412
     70 H25        59.9652    3.9560   27.8094 H         1 5BF         0.0409
     71 H26        58.6465    3.1637   29.4040 H         1 5BF         0.1872
     72 H27        59.8543    2.3362   32.0373 H         1 5BF         0.0820
     73 H28        58.4462    1.1701   33.5854 H         1 5BF         0.1886
     74 H29        56.4705   -0.5860   32.1744 H         1 5BF         0.0814
     75 H30        55.7860    1.5871   34.1546 H         1 5BF         0.1375
     76 H31        56.5711   -1.9731   34.2257 H         1 5BF         0.0475
     77 H32        57.6236   -0.7558   35.0238 H         1 5BF         0.0475
     78 H33        57.6039   -2.0308   31.4951 H         1 5BF         0.0557
     79 H34        59.6197   -3.0116   30.4355 H         1 5BF         0.0599
     80 H35        61.6631   -3.3580   31.7952 H         1 5BF         0.0559
     81 H36        61.7018   -2.7211   34.1843 H         1 5BF         0.0599
     82 H37        59.6963   -1.7006   35.2320 H         1 5BF         0.0557
@<TRIPOS>BOND
     1    1    2 ar 
     2    1    7 ar 
     3    2    3 ar 
     4    3    4 1  
     5    3    5 ar 
     6    4   32 1  
     7    5    6 ar 
     8    6    7 ar 
     9    7    8 1  
    10    8    9 1  
    11    9   10 1  
    12   10   11 1  
    13   11   12 1  
    14   12   13 1  
    15   13   14 1  
    16   14   15 ar 
    17   14   17 ar 
    18   15   16 ar 
    19   16   19 ar 
    20   17   18 ar 
    21   18   19 ar 
    22   19   20 1  
    23   20   21 1  
    24   21   22 1  
    25   22   23 2  
    26   22   24 1  
    27   24   25 1  
    28   24   26 2  
    29   25   28 1  
    30   26   27 1  
    31   27   28 2  
    32   28   29 1  
    33   29   30 2  
    34   29   31 am 
    35   31   32 1  
    36   32   33 1  
    37   33   34 2  
    38   33   35 am 
    39   35   36 1  
    40   36   37 1  
    41   36   39 1  
    42   37   38 2  
    43   39   40 1  
    44   40   41 ar 
    45   40   45 ar 
    46   41   42 ar 
    47   42   43 ar 
    48   43   44 ar 
    49   44   45 ar 
    50    1   46 1  
    51    2   47 1  
    52    4   48 1  
    53    4   49 1  
    54    5   50 1  
    55    6   51 1  
    56    9   52 1  
    57    9   53 1  
    58   10   54 1  
    59   10   55 1  
    60   11   56 1  
    61   11   57 1  
    62   12   58 1  
    63   12   59 1  
    64   15   60 1  
    65   16   61 1  
    66   17   62 1  
    67   18   63 1  
    68   20   64 1  
    69   20   65 1  
    70   21   66 1  
    71   21   67 1  
    72   25   68 1  
    73   26   69 1  
    74   27   70 1  
    75   31   71 1  
    76   32   72 1  
    77   35   73 1  
    78   36   74 1  
    79   37   75 1  
    80   39   76 1  
    81   39   77 1  
    82   41   78 1  
    83   42   79 1  
    84   43   80 1  
    85   44   81 1  
    86   45   82 1  
@<TRIPOS>SUBSTRUCTURE
     1 5BF         1

