### 
### Created by X-TOOL on Mon Sep 10 21:13:17 2018
### 

@<TRIPOS>MOLECULE
4q3t_ligand
   28    27     1     0     0
SMALL
GAST_HUCK


@<TRIPOS>ATOM
      1 N         -44.4580  -17.2020   51.0330 N.4       1 HAR         0.2327
      2 CA        -43.5320  -18.2650   51.3930 C.3       1 HAR         0.0284
      3 C         -42.2220  -17.6960   51.9440 C.2       1 HAR         0.0844
      4 O         -42.2690  -16.3390   52.0800 O.co2     1 HAR        -0.5643
      5 CB        -43.1970  -19.2780   50.2790 C.3       1 HAR         0.0045
      6 CG        -42.0020  -18.8850   49.4340 C.3       1 HAR        -0.0240
      7 CD        -41.6500  -20.1170   48.5950 C.3       1 HAR         0.0284
      8 NE        -40.3420  -20.0700   47.9670 N.pl3     1 HAR        -0.3084
      9 CZ        -40.1690  -20.1210   46.5440 C.cat     1 HAR         0.2806
     10 NH1       -41.4840  -20.1840   45.8320 N.pl3     1 HAR        -0.0589
     11 NH2       -38.9780  -20.0970   45.9860 N.pl3     1 HAR        -0.3213
     12 OH1       -41.5740  -20.2350   44.5020 O.3       1 HAR        -0.1070
     13 OXT       -41.1730  -18.2740   52.2870 O.co2     1 HAR        -0.5643
     14 H         -45.3093  -17.6052   50.6742 H         1 HAR         0.2010
     15 H         -44.0398  -16.6169   50.3268 H         1 HAR         0.2010
     16 H         -44.6665  -16.6475   51.8485 H         1 HAR         0.2010
     17 H         -44.0158  -18.8327   52.2015 H         1 HAR         0.1024
     18 H         -44.0726  -19.3705   49.6196 H         1 HAR         0.0339
     19 H         -42.9859  -20.2509   50.7469 H         1 HAR         0.0339
     20 H         -41.1544  -18.6069   50.0776 H         1 HAR         0.0291
     21 H         -42.2589  -18.0387   48.7799 H         1 HAR         0.0291
     22 H         -42.4066  -20.2199   47.8032 H         1 HAR         0.0548
     23 H         -41.6835  -20.9993   49.2511 H         1 HAR         0.0548
     24 H         -39.5070  -19.9973   48.5656 H         1 HAR         0.1886
     25 H         -42.3505  -20.1881   46.3889 H         1 HAR         0.3884
     26 H         -38.1341  -20.0529   46.5750 H         1 HAR         0.1856
     27 H         -38.8893  -20.1223   44.9601 H         1 HAR         0.1856
     28 H         -41.1703  -19.4604   44.1285 H         1 HAR         0.4002
@<TRIPOS>BOND
     1    1    2 1  
     2    2    3 1  
     3    2    5 1  
     4    3    4 ar 
     5    3   13 ar 
     6    5    6 1  
     7    6    7 1  
     8    7    8 1  
     9    8    9 ar 
    10    9   10 ar 
    11    9   11 ar 
    12   10   12 1  
    13    1   14 1  
    14    1   15 1  
    15    1   16 1  
    16    2   17 1  
    17    5   18 1  
    18    5   19 1  
    19    6   20 1  
    20    6   21 1  
    21    7   22 1  
    22    7   23 1  
    23    8   24 1  
    24   10   25 1  
    25   11   26 1  
    26   11   27 1  
    27   12   28 1  
@<TRIPOS>SUBSTRUCTURE
     1 HAR         1

