### 
### Created by X-TOOL on Mon Sep 10 21:13:17 2018
### 

@<TRIPOS>MOLECULE
4q3u_ligand
   25    24     1     0     0
SMALL
GAST_HUCK


@<TRIPOS>ATOM
      1 N         -44.3650   17.4280   38.8280 N.4       1 NNH         0.2327
      2 CA        -43.5840   18.2620   37.9430 C.3       1 NNH         0.0305
      3 C         -42.4150   17.4940   37.3300 C.2       1 NNH         0.0845
      4 O         -41.4770   18.2850   36.7420 O.co2     1 NNH        -0.5643
      5 CB        -42.9750   19.5210   38.5760 C.3       1 NNH         0.0245
      6 CG        -42.1870   19.2020   39.8460 C.3       1 NNH         0.0348
      7 ND        -41.6100   20.4520   40.2940 N.pl3     1 NNH        -0.3081
      8 CE        -41.3820   20.8830   41.6450 C.cat     1 NNH         0.2806
      9 NH1       -41.7730   19.9150   42.7000 N.pl3     1 NNH        -0.0589
     10 NH2       -40.8590   22.0490   41.8810 N.pl3     1 NNH        -0.3213
     11 OH1       -41.6070   20.2050   43.9990 O.3       1 NNH        -0.1070
     12 OXT       -42.2120   16.2840   37.2820 O.co2     1 NNH        -0.5643
     13 H         -45.1253   17.9663   39.2130 H         1 NNH         0.2010
     14 H         -43.7794   17.0911   39.5760 H         1 NNH         0.2010
     15 H         -44.7351   16.6450   38.3123 H         1 NNH         0.2010
     16 H         -44.2571   18.5833   37.1345 H         1 NNH         0.1025
     17 H         -43.7866   20.2194   38.8282 H         1 NNH         0.0361
     18 H         -42.2986   19.9924   37.8479 H         1 NNH         0.0361
     19 H         -41.3927   18.4730   39.6278 H         1 NNH         0.0551
     20 H         -42.8571   18.7944   40.6172 H         1 NNH         0.0551
     21 H         -41.3291   21.1118   39.5547 H         1 NNH         0.1886
     22 H         -42.1778   19.0070   42.4306 H         1 NNH         0.3884
     23 H         -40.6116   22.6705   41.0978 H         1 NNH         0.1856
     24 H         -40.6919   22.3516   42.8513 H         1 NNH         0.1856
     25 H         -41.9099   19.4752   44.5265 H         1 NNH         0.4002
@<TRIPOS>BOND
     1    1    2 1  
     2    2    3 1  
     3    2    5 1  
     4    3    4 ar 
     5    3   12 ar 
     6    5    6 1  
     7    6    7 1  
     8    7    8 ar 
     9    8    9 ar 
    10    8   10 ar 
    11    9   11 1  
    12    1   13 1  
    13    1   14 1  
    14    1   15 1  
    15    2   16 1  
    16    5   17 1  
    17    5   18 1  
    18    6   19 1  
    19    6   20 1  
    20    7   21 1  
    21    9   22 1  
    22   10   23 1  
    23   10   24 1  
    24   11   25 1  
@<TRIPOS>SUBSTRUCTURE
     1 NNH         1

