### 
### Created by X-TOOL on Mon Sep 10 21:13:20 2018
### 

@<TRIPOS>MOLECULE
4q4e_ligand
   62    62     1     0     0
SMALL
GAST_HUCK


@<TRIPOS>ATOM
      1 C5         42.7600  -38.3760  -35.3410 C.3       1 BB2         0.0585
      2 C3         43.8580  -39.3820  -35.5320 C.2       1 BB2         0.2013
      3 O4         43.6130  -40.4710  -36.0210 O.2       1 BB2        -0.3968
      4 N1         45.0820  -39.1990  -35.0660 N.am      1 BB2        -0.1641
      5 O2         45.9540  -40.2620  -35.2240 O.3       1 BB2        -0.2717
      6 C6         41.7020  -38.8560  -34.3230 C.3       1 BB2         0.0654
      7 C12        40.5100  -37.9050  -34.3370 C.2       1 BB2         0.1836
      8 O13        40.6570  -36.6880  -34.2680 O.2       1 BB2        -0.3965
      9 C7         42.3030  -38.8360  -32.9310 C.3       1 BB2        -0.0311
     10 C8         41.4520  -39.0890  -31.6590 C.3       1 BB2        -0.0506
     11 C9         40.7540  -40.3820  -31.8500 C.3       1 BB2        -0.0532
     12 C10        41.6390  -41.5830  -31.5830 C.3       1 BB2        -0.0559
     13 C11        41.3560  -42.1620  -30.2230 C.3       1 BB2        -0.0653
     14 N14        39.3160  -38.4720  -34.4900 N.am      1 BB2        -0.2650
     15 C15        38.0850  -37.6650  -34.6150 C.3       1 BB2         0.1332
     16 C16        36.9780  -38.5780  -35.0960 C.3       1 BB2        -0.0063
     17 C18        35.6670  -37.8100  -35.2190 C.3       1 BB2        -0.0584
     18 C17        37.3960  -39.2270  -36.4320 C.3       1 BB2        -0.0584
     19 C19        37.7990  -37.0130  -33.2910 C.2       1 BB2         0.2047
     20 O20        37.9340  -37.7570  -32.2880 O.2       1 BB2        -0.3943
     21 N21        37.6570  -35.6840  -33.1650 N.am      1 BB2        -0.2661
     22 C22        37.7040  -35.0440  -31.8210 C.3       1 BB2         0.0681
     23 C23        37.6150  -34.6880  -34.2180 C.3       1 BB2         0.0344
     24 C24        37.3760  -33.3750  -33.4930 C.3       1 BB2        -0.0303
     25 C25        37.8810  -33.5520  -32.0880 C.3       1 BB2        -0.0257
     26 C26        36.3990  -35.2710  -31.0350 C.3       1 BB2         0.0673
     27 O27        35.3160  -35.0730  -31.9220 O.3       1 BB2        -0.3927
     28 H1         42.2671  -38.2010  -36.3087 H         1 BB2         0.0529
     29 H2         43.2000  -37.4354  -34.9782 H         1 BB2         0.0529
     30 H3         45.3604  -38.3450  -34.6265 H         1 BB2         0.2216
     31 H4         46.8007  -40.0325  -34.8594 H         1 BB2         0.2490
     32 H5         41.3743  -39.8745  -34.5786 H         1 BB2         0.0563
     33 H6         42.7536  -37.8404  -32.8056 H         1 BB2         0.0294
     34 H7         43.0945  -39.5999  -32.9275 H         1 BB2         0.0294
     35 H8         40.7181  -38.2800  -31.5292 H         1 BB2         0.0267
     36 H9         42.1029  -39.1391  -30.7737 H         1 BB2         0.0267
     37 H10        40.3956  -40.4358  -32.8886 H         1 BB2         0.0265
     38 H11        39.8955  -40.4207  -31.1633 H         1 BB2         0.0265
     39 H12        42.6931  -41.2722  -31.6306 H         1 BB2         0.0263
     40 H13        41.4477  -42.3495  -32.3484 H         1 BB2         0.0263
     41 H14        42.0085  -43.0307  -30.0514 H         1 BB2         0.0230
     42 H15        40.3037  -42.4779  -30.1707 H         1 BB2         0.0230
     43 H16        41.5490  -41.4006  -29.4529 H         1 BB2         0.0230
     44 H17        39.2503  -39.4694  -34.5211 H         1 BB2         0.1883
     45 H18        38.2373  -36.8748  -35.3649 H         1 BB2         0.0802
     46 H19        36.8360  -39.3774  -34.3539 H         1 BB2         0.0343
     47 H20        34.8757  -38.4891  -35.5692 H         1 BB2         0.0234
     48 H21        35.7898  -36.9878  -35.9394 H         1 BB2         0.0234
     49 H22        35.3893  -37.3989  -34.2372 H         1 BB2         0.0234
     50 H23        38.3438  -39.7684  -36.2959 H         1 BB2         0.0234
     51 H24        37.5267  -38.4450  -37.1945 H         1 BB2         0.0234
     52 H25        36.6156  -39.9303  -36.7580 H         1 BB2         0.0234
     53 H26        38.5524  -35.4382  -31.2424 H         1 BB2         0.0581
     54 H27        36.7947  -34.8990  -34.9199 H         1 BB2         0.0522
     55 H28        38.5686  -34.6613  -34.7657 H         1 BB2         0.0522
     56 H29        36.3016  -33.1396  -33.4816 H         1 BB2         0.0285
     57 H30        37.9242  -32.5624  -33.9921 H         1 BB2         0.0285
     58 H31        38.9399  -33.2637  -32.0133 H         1 BB2         0.0289
     59 H32        37.2875  -32.9544  -31.3804 H         1 BB2         0.0289
     60 H33        36.3353  -34.5553  -30.2021 H         1 BB2         0.0580
     61 H34        36.3749  -36.2971  -30.6394 H         1 BB2         0.0580
     62 H35        34.4986  -35.2083  -31.4571 H         1 BB2         0.2095
@<TRIPOS>BOND
     1    1    2 1  
     2    1    6 1  
     3    2    3 2  
     4    2    4 am 
     5    4    5 1  
     6    6    7 1  
     7    6    9 1  
     8    7    8 2  
     9    7   14 am 
    10    9   10 1  
    11   10   11 1  
    12   11   12 1  
    13   12   13 1  
    14   14   15 1  
    15   15   16 1  
    16   15   19 1  
    17   16   17 1  
    18   16   18 1  
    19   19   20 2  
    20   19   21 am 
    21   21   22 1  
    22   21   23 1  
    23   22   25 1  
    24   22   26 1  
    25   23   24 1  
    26   24   25 1  
    27   26   27 1  
    28    1   28 1  
    29    1   29 1  
    30    4   30 1  
    31    5   31 1  
    32    6   32 1  
    33    9   33 1  
    34    9   34 1  
    35   10   35 1  
    36   10   36 1  
    37   11   37 1  
    38   11   38 1  
    39   12   39 1  
    40   12   40 1  
    41   13   41 1  
    42   13   42 1  
    43   13   43 1  
    44   14   44 1  
    45   15   45 1  
    46   16   46 1  
    47   17   47 1  
    48   17   48 1  
    49   17   49 1  
    50   18   50 1  
    51   18   51 1  
    52   18   52 1  
    53   22   53 1  
    54   23   54 1  
    55   23   55 1  
    56   24   56 1  
    57   24   57 1  
    58   25   58 1  
    59   25   59 1  
    60   26   60 1  
    61   26   61 1  
    62   27   62 1  
@<TRIPOS>SUBSTRUCTURE
     1 BB2         1

