### 
### Created by X-TOOL on Mon Sep 10 21:13:20 2018
### 

@<TRIPOS>MOLECULE
4q4i_ligand
   70    69     1     0     0
SMALL
GAST_HUCK


@<TRIPOS>ATOM
      1 N          56.2360  -19.7120   37.5560 N.4       1 L2O         0.2243
      2 C1         55.2230  -19.0470   36.7670 C.3       1 L2O         0.0198
      3 C2         53.8700  -19.6930   37.0090 C.3       1 L2O        -0.0028
      4 C3         53.0910  -19.0420   38.1760 C.3       1 L2O        -0.0414
      5 C4         52.0960  -20.0520   38.7420 C.3       1 L2O        -0.0625
      6 C5         52.2820  -17.7650   37.8090 C.3       1 L2O        -0.0625
      7 C6         55.5730  -19.0090   35.2790 C.3       1 L2O         0.1863
      8 O1         56.9760  -19.0730   35.0810 O.3       1 L2O        -0.3665
      9 C          55.1260  -17.7080   34.6980 C.2       1 L2O         0.2128
     10 O          55.7350  -16.6800   34.9610 O.2       1 L2O        -0.3938
     11 N          54.0340  -17.7250   33.9360 N.am      1 VAL        -0.2631
     12 CA         53.4570  -16.5130   33.3410 C.3       1 VAL         0.1333
     13 C          52.0380  -16.5690   33.8160 C.2       1 VAL         0.2042
     14 O          51.4080  -17.6390   33.8090 O.2       1 VAL        -0.3944
     15 CB         53.6810  -16.6110   31.8360 C.3       1 VAL        -0.0063
     16 CG1        52.6660  -15.8270   31.0200 C.3       1 VAL        -0.0584
     17 CG2        55.1070  -16.1450   31.4880 C.3       1 VAL        -0.0584
     18 N          51.5290  -15.4460   34.3160 N.am      1 VAL        -0.2635
     19 CA         50.1820  -15.4620   34.8880 C.3       1 VAL         0.1332
     20 C          49.0410  -15.3590   33.9360 C.2       1 VAL         0.2037
     21 O          48.0970  -16.1150   34.0880 O.2       1 VAL        -0.3944
     22 CB         50.0200  -14.3110   35.9020 C.3       1 VAL        -0.0063
     23 CG1        48.8500  -14.6600   36.8120 C.3       1 VAL        -0.0584
     24 CG2        51.2230  -13.9490   36.7550 C.3       1 VAL        -0.0584
     25 N          49.0980  -14.4060   33.0130 N.am      1 ASP        -0.2679
     26 CA         47.9960  -14.2080   32.0530 C.3       1 ASP         0.1057
     27 C          48.3400  -14.4390   30.6150 C.2       1 ASP         0.0618
     28 O          47.3910  -14.8110   29.8790 O.co2     1 ASP        -0.5665
     29 CB         47.6350  -12.7240   32.1320 C.3       1 ASP         0.0351
     30 CG         46.6670  -12.5560   33.2740 C.2       1 ASP         0.0387
     31 OD1        46.7550  -11.4770   33.9090 O.co2     1 ASP        -0.5688
     32 OD2        45.8480  -13.4870   33.5490 O.co2     1 ASP        -0.5688
     33 OXT        49.5360  -14.2170   30.2520 O.co2     1 ASP        -0.5665
     34 H1         55.9607  -19.7114   38.5257 H         1 L2O         0.1999
     35 H2         57.1132  -19.2257   37.4555 H         1 L2O         0.1999
     36 H3         56.3402  -20.6625   37.2370 H         1 L2O         0.1999
     37 H4         55.1631  -18.0049   37.1141 H         1 L2O         0.0902
     38 H5         54.0257  -20.7568   37.2415 H         1 L2O         0.0325
     39 H6         53.2689  -19.6022   36.0923 H         1 L2O         0.0325
     40 H7         53.8199  -18.7726   38.9546 H         1 L2O         0.0297
     41 H8         51.5398  -19.5928   39.5725 H         1 L2O         0.0232
     42 H9         52.6389  -20.9356   39.1086 H         1 L2O         0.0232
     43 H10        51.3923  -20.3553   37.9528 H         1 L2O         0.0232
     44 H11        52.9624  -17.0063   37.3951 H         1 L2O         0.0232
     45 H12        51.7950  -17.3674   38.7116 H         1 L2O         0.0232
     46 H13        51.5166  -18.0183   37.0607 H         1 L2O         0.0232
     47 H14        55.0809  -19.8480   34.7653 H         1 L2O         0.0896
     48 H15        57.1648  -19.0477   34.1503 H         1 L2O         0.2135
     49 H16        53.5870  -18.6023   33.7612 H         1 VAL         0.1884
     50 H17        53.9412  -15.5996   33.7167 H         1 VAL         0.0802
     51 H18        53.5860  -17.6701   31.5545 H         1 VAL         0.0343
     52 H19        52.8883  -15.9431   29.9490 H         1 VAL         0.0234
     53 H20        52.7200  -14.7626   31.2924 H         1 VAL         0.0234
     54 H21        51.6553  -16.2080   31.2280 H         1 VAL         0.0234
     55 H22        55.8349  -16.7168   32.0823 H         1 VAL         0.0234
     56 H23        55.2085  -15.0737   31.7159 H         1 VAL         0.0234
     57 H24        55.2962  -16.3117   30.4173 H         1 VAL         0.0234
     58 H25        52.0614  -14.5996   34.3011 H         1 VAL         0.1883
     59 H26        50.0776  -16.4185   35.4212 H         1 VAL         0.0802
     60 H27        49.7606  -13.4108   35.3255 H         1 VAL         0.0343
     61 H28        48.7069  -13.8567   37.5497 H         1 VAL         0.0234
     62 H29        49.0611  -15.6045   37.3348 H         1 VAL         0.0234
     63 H30        47.9368  -14.7709   36.2089 H         1 VAL         0.0234
     64 H31        52.0719  -13.6958   36.1029 H         1 VAL         0.0234
     65 H32        51.4921  -14.8048   37.3915 H         1 VAL         0.0234
     66 H33        50.9765  -13.0841   37.3884 H         1 VAL         0.0234
     67 H34        49.9017  -13.8126   32.9681 H         1 ASP         0.1876
     68 H35        47.1466  -14.8471   32.3360 H         1 ASP         0.0745
     69 H36        47.1661  -12.4005   31.1910 H         1 ASP         0.0471
     70 H37        48.5400  -12.1261   32.3152 H         1 ASP         0.0471
@<TRIPOS>BOND
     1    1    2 1  
     2    2    3 1  
     3    2    7 1  
     4    3    4 1  
     5    4    5 1  
     6    4    6 1  
     7    7    8 1  
     8    7    9 1  
     9    9   10 2  
    10    9   11 am 
    11   11   12 1  
    12   12   13 1  
    13   12   15 1  
    14   13   14 2  
    15   13   18 am 
    16   15   16 1  
    17   15   17 1  
    18   18   19 1  
    19   19   20 1  
    20   19   22 1  
    21   20   21 2  
    22   20   25 am 
    23   22   23 1  
    24   22   24 1  
    25   25   26 1  
    26   26   27 1  
    27   26   29 1  
    28   27   28 ar 
    29   27   33 ar 
    30   29   30 1  
    31   30   31 ar 
    32   30   32 ar 
    33    1   34 1  
    34    1   35 1  
    35    1   36 1  
    36    2   37 1  
    37    3   38 1  
    38    3   39 1  
    39    4   40 1  
    40    5   41 1  
    41    5   42 1  
    42    5   43 1  
    43    6   44 1  
    44    6   45 1  
    45    6   46 1  
    46    7   47 1  
    47    8   48 1  
    48   11   49 1  
    49   12   50 1  
    50   15   51 1  
    51   16   52 1  
    52   16   53 1  
    53   16   54 1  
    54   17   55 1  
    55   17   56 1  
    56   17   57 1  
    57   18   58 1  
    58   19   59 1  
    59   22   60 1  
    60   23   61 1  
    61   23   62 1  
    62   23   63 1  
    63   24   64 1  
    64   24   65 1  
    65   24   66 1  
    66   25   67 1  
    67   26   68 1  
    68   29   69 1  
    69   29   70 1  
@<TRIPOS>SUBSTRUCTURE
     1 L2O         1

