### 
### Created by X-TOOL on Mon Sep 10 21:13:16 2018
### 

@<TRIPOS>MOLECULE
4q4o_ligand
   47    50     1     0     0
SMALL
GAST_HUCK


@<TRIPOS>ATOM
      1 O         108.3850   18.3520   24.1940 O.2       1 2YM        -0.3882
      2 C1        107.3190   17.9750   23.7150 C.2       1 2YM         0.2089
      3 N1        106.2200   17.6520   24.4990 N.am      1 2YM        -0.2586
      4 C2        107.1090   17.8460   22.2710 C.ar      1 2YM         0.1178
      5 C15       105.8470   17.4260   21.7980 C.ar      1 2YM         0.1328
      6 N6        104.8480   17.0920   22.7080 N.pl3     1 2YM        -0.2480
      7 C         105.0350   17.2140   24.0360 C.cat     1 2YM         0.1874
      8 N         104.0700   16.8860   24.8740 N.pl3     1 2YM        -0.3362
      9 C14       105.5760   17.4410   20.4230 C.ar      1 2YM         0.0491
     10 C13       106.5520   17.8870   19.5310 C.ar      1 2YM         0.1433
     11 C4        107.8020   18.2780   20.0130 C.ar      1 2YM         0.1175
     12 C3        108.0780   18.2580   21.3630 C.ar      1 2YM         0.0129
     13 N5        106.5000   18.0790   18.1510 N.pl3     1 2YM        -0.1846
     14 C5        107.6880   18.5650   17.8400 C.2       1 2YM         0.2969
     15 N2        108.5180   18.6870   18.9020 N.2       1 2YM        -0.1918
     16 N3        108.0870   18.9510   16.6280 N.pl3     1 2YM        -0.2343
     17 C6        107.2250   18.8700   15.4590 C.3       1 2YM         0.0882
     18 C7        107.9780   19.0830   14.1640 C.3       1 2YM        -0.0072
     19 N4        107.0810   19.1080   12.9630 N.4       1 2YM         0.2369
     20 C12       107.8210   18.7130   11.7270 C.3       1 2YM        -0.0318
     21 C11       106.8910   18.6580   10.5390 C.3       1 2YM        -0.0123
     22 C10       106.1980   19.9880   10.3230 C.3       1 2YM        -0.0434
     23 C9        105.5040   20.4450   11.5940 C.3       1 2YM        -0.0123
     24 C8        106.4510   20.4510   12.7740 C.3       1 2YM        -0.0318
     25 H         106.3169   17.7531   25.4891 H         1 2YM         0.1811
     26 H         103.9445   16.7433   22.3573 H         1 2YM         0.2306
     27 H         104.2155   16.9802   25.8893 H         1 2YM         0.1758
     28 H         103.1712   16.5357   24.5128 H         1 2YM         0.1758
     29 H         104.6127   17.1077   20.0542 H         1 2YM         0.0743
     30 H         109.0550   18.5649   21.7186 H         1 2YM         0.0890
     31 H         105.7120   17.8853   17.5166 H         1 2YM         0.2433
     32 H         109.0418   19.3206   16.5150 H         1 2YM         0.2173
     33 H         106.4442   19.6403   15.5431 H         1 2YM         0.0623
     34 H         106.7572   17.8748   15.4347 H         1 2YM         0.0623
     35 H         108.7043   18.2659   14.0422 H         1 2YM         0.0838
     36 H         108.5122   20.0428   14.2227 H         1 2YM         0.0838
     37 H         106.3445   18.4368   13.1150 H         1 2YM         0.2034
     38 H         108.2717   17.7210   11.8782 H         1 2YM         0.0814
     39 H         108.6137   19.4499   11.5304 H         1 2YM         0.0814
     40 H         106.1313   17.8819   10.7138 H         1 2YM         0.0317
     41 H         107.4723   18.4062    9.6397 H         1 2YM         0.0317
     42 H         105.4511   19.8801    9.5227 H         1 2YM         0.0269
     43 H         106.9445   20.7405   10.0288 H         1 2YM         0.0269
     44 H         104.6688   19.7625   11.8100 H         1 2YM         0.0317
     45 H         105.1158   21.4630   11.4426 H         1 2YM         0.0317
     46 H         107.2401   21.1969   12.5980 H         1 2YM         0.0814
     47 H         105.8913   20.7168   13.6829 H         1 2YM         0.0814
@<TRIPOS>BOND
     1    1    2 2  
     2    2    3 am 
     3    2    4 1  
     4    3    7 ar 
     5    4    5 ar 
     6    4   12 ar 
     7    5    6 1  
     8    5    9 ar 
     9    6    7 ar 
    10    7    8 ar 
    11    9   10 ar 
    12   10   11 ar 
    13   10   13 1  
    14   11   12 ar 
    15   11   15 1  
    16   13   14 1  
    17   14   15 2  
    18   14   16 1  
    19   16   17 1  
    20   17   18 1  
    21   18   19 1  
    22   19   20 1  
    23   19   24 1  
    24   20   21 1  
    25   21   22 1  
    26   22   23 1  
    27   23   24 1  
    28    3   25 1  
    29    6   26 1  
    30    8   27 1  
    31    8   28 1  
    32    9   29 1  
    33   12   30 1  
    34   13   31 1  
    35   16   32 1  
    36   17   33 1  
    37   17   34 1  
    38   18   35 1  
    39   18   36 1  
    40   19   37 1  
    41   20   38 1  
    42   20   39 1  
    43   21   40 1  
    44   21   41 1  
    45   22   42 1  
    46   22   43 1  
    47   23   44 1  
    48   23   45 1  
    49   24   46 1  
    50   24   47 1  
@<TRIPOS>SUBSTRUCTURE
     1 2YM         1

