### 
### Created by X-TOOL on Mon Sep 10 21:13:16 2018
### 

@<TRIPOS>MOLECULE
4q4p_ligand
   44    47     1     0     0
SMALL
GAST_HUCK


@<TRIPOS>ATOM
      1 O         109.0460   18.4540   24.1300 O.2       1 2YO        -0.3998
      2 C1        107.9630   18.1050   23.6670 C.2       1 2YO         0.1616
      3 N1        106.8830   17.7850   24.4800 N.2       1 2YO        -0.2539
      4 C2        107.6990   18.0350   22.2280 C.ar      1 2YO         0.0470
      5 C15       106.4020   17.7000   21.7870 C.ar      1 2YO         0.0805
      6 N6        105.4170   17.3910   22.7210 N.pl3     1 2YO        -0.2386
      7 C         105.6600   17.4370   24.0430 C.2       1 2YO         0.1236
      8 C14       106.0950   17.7450   20.4230 C.ar      1 2YO        -0.0123
      9 C13       107.0750   18.1250   19.5020 C.ar      1 2YO         0.0724
     10 C4        108.3610   18.4240   19.9500 C.ar      1 2YO         0.0094
     11 C3        108.6710   18.3810   21.2920 C.ar      1 2YO        -0.0542
     12 N5        106.9990   18.3160   18.1240 N.pl3     1 2YO        -0.2308
     13 C5        108.2150   18.7070   17.7820 C.2       1 2YO         0.2112
     14 N2        109.0750   18.7800   18.8220 N.2       1 2YO        -0.3181
     15 N3        108.6210   19.0120   16.5470 N.pl3     1 2YO        -0.2707
     16 C6        107.7210   18.9920   15.4080 C.3       1 2YO         0.0732
     17 C7        108.4550   19.1210   14.0920 C.3       1 2YO        -0.0108
     18 N4        107.5390   19.0940   12.9080 N.4       1 2YO         0.2367
     19 C12       108.2860   18.7640   11.6580 C.3       1 2YO        -0.0318
     20 C11       107.3440   18.6610   10.4830 C.3       1 2YO        -0.0123
     21 C10       106.5570   19.9420   10.2960 C.3       1 2YO        -0.0434
     22 C9        105.8540   20.3320   11.5810 C.3       1 2YO        -0.0123
     23 C8        106.8180   20.3930   12.7450 C.3       1 2YO        -0.0318
     24 H         104.4793   17.1206   22.3916 H         1 2YO         0.2332
     25 H         104.8720   17.1942   24.7543 H         1 2YO         0.1577
     26 H         105.0995   17.4858   20.0813 H         1 2YO         0.0461
     27 H         109.6764   18.6176   21.6210 H         1 2YO         0.0555
     28 H         106.1818   18.1830   17.5113 H         1 2YO         0.2312
     29 H         109.6068   19.2704   16.3973 H         1 2YO         0.1894
     30 H         107.0137   19.8292   15.5017 H         1 2YO         0.0579
     31 H         107.1670   18.0417   15.4119 H         1 2YO         0.0579
     32 H         109.1667   18.2869   14.0040 H         1 2YO         0.0835
     33 H         109.0045   20.0739   14.0887 H         1 2YO         0.0835
     34 H         106.8527   18.3724   13.0639 H         1 2YO         0.2034
     35 H         108.8041   17.8027   11.7904 H         1 2YO         0.0814
     36 H         109.0248   19.5545   11.4598 H         1 2YO         0.0814
     37 H         106.6427   17.8316   10.6573 H         1 2YO         0.0317
     38 H         107.9275   18.4625    9.5719 H         1 2YO         0.0317
     39 H         105.8070   19.7928    9.5053 H         1 2YO         0.0269
     40 H         107.2447   20.7485   10.0017 H         1 2YO         0.0269
     41 H         105.0743   19.5881   11.8016 H         1 2YO         0.0317
     42 H         105.3906   21.3208   11.4488 H         1 2YO         0.0317
     43 H         107.5518   21.1921   12.5635 H         1 2YO         0.0814
     44 H         106.2575   20.6120   13.6658 H         1 2YO         0.0814
@<TRIPOS>BOND
     1    1    2 2  
     2    2    3 1  
     3    2    4 1  
     4    3    7 2  
     5    4    5 ar 
     6    4   11 ar 
     7    5    6 1  
     8    5    8 ar 
     9    6    7 1  
    10    8    9 ar 
    11    9   10 ar 
    12    9   12 1  
    13   10   11 ar 
    14   10   14 1  
    15   12   13 1  
    16   13   14 2  
    17   13   15 1  
    18   15   16 1  
    19   16   17 1  
    20   17   18 1  
    21   18   19 1  
    22   18   23 1  
    23   19   20 1  
    24   20   21 1  
    25   21   22 1  
    26   22   23 1  
    27    6   24 1  
    28    7   25 1  
    29    8   26 1  
    30   11   27 1  
    31   12   28 1  
    32   15   29 1  
    33   16   30 1  
    34   16   31 1  
    35   17   32 1  
    36   17   33 1  
    37   18   34 1  
    38   19   35 1  
    39   19   36 1  
    40   20   37 1  
    41   20   38 1  
    42   21   39 1  
    43   21   40 1  
    44   22   41 1  
    45   22   42 1  
    46   23   43 1  
    47   23   44 1  
@<TRIPOS>SUBSTRUCTURE
     1 2YO         1

