### 
### Created by X-TOOL on Mon Sep 10 21:13:16 2018
### 

@<TRIPOS>MOLECULE
4q4q_ligand
   32    35     1     0     0
SMALL
GAST_HUCK


@<TRIPOS>ATOM
      1 N1        -17.3590   17.9880  -23.8880 N.am      1 SAQ        -0.2015
      2 N3        -15.8210   17.5840  -22.1360 N.2       1 SAQ        -0.3057
      3 C4        -16.8350   17.8710  -21.2240 C.ar      1 SAQ         0.0079
      4 C5        -18.1340   18.2150  -21.6380 C.ar      1 SAQ         0.0478
      5 C6        -18.4210   18.2900  -23.0750 C.2       1 SAQ         0.2305
      6 C7        -19.1080   18.5050  -20.6880 C.ar      1 SAQ        -0.0518
      7 C8        -18.7900   18.4910  -19.3440 C.ar      1 SAQ         0.0125
      8 C10       -16.5220   17.8430  -19.8580 C.ar      1 SAQ        -0.0333
      9 N12       -19.4920   18.8140  -18.1990 N.2       1 SAQ        -0.3152
     10 C13       -18.6240   18.7050  -17.1680 C.2       1 SAQ         0.2147
     11 C2        -16.1160   17.6480  -23.4320 C.2       1 SAQ         0.1223
     12 C9        -17.5010   18.1720  -18.9160 C.ar      1 SAQ         0.0736
     13 N14       -17.4170   18.3140  -17.5290 N.pl3     1 SAQ        -0.2296
     14 N15       -19.0190   18.9910  -15.9230 N.pl3     1 SAQ        -0.2618
     15 O16       -19.5060   18.6270  -23.5410 O.2       1 SAQ        -0.3875
     16 C25       -18.1080   18.9300  -14.8030 C.3       1 SAQ         0.0785
     17 C11       -17.3830   20.2290  -14.6990 C.2       1 SAQ         0.0348
     18 S1        -18.2280   21.7100  -14.5990 S.3       1 SAQ        -0.0423
     19 C12       -16.7810   22.6060  -14.5510 C.2       1 SAQ        -0.0195
     20 C131      -15.6900   21.8190  -14.6070 C.2       1 SAQ        -0.0931
     21 C14       -16.0230   20.4360  -14.6930 C.2       1 SAQ        -0.0797
     22 H         -17.5029   18.0184  -24.8771 H         1 SAQ         0.2537
     23 H         -20.1177   18.7422  -21.0029 H         1 SAQ         0.0561
     24 H         -15.5251   17.5674  -19.5335 H         1 SAQ         0.0475
     25 H         -15.3366   17.4206  -24.1578 H         1 SAQ         0.1489
     26 H         -16.5986   18.1506  -16.9253 H         1 SAQ         0.2314
     27 H         -19.9989   19.2621  -15.7579 H         1 SAQ         0.1926
     28 H         -17.3855   18.1153  -14.9586 H         1 SAQ         0.0717
     29 H         -18.6729   18.7473  -13.8770 H         1 SAQ         0.0717
     30 H         -16.7423   23.6922  -14.4828 H         1 SAQ         0.0598
     31 H         -14.6687   22.1965  -14.5887 H         1 SAQ         0.0371
     32 H         -15.2863   19.6359  -14.7476 H         1 SAQ         0.0277
@<TRIPOS>BOND
     1    1    5 am 
     2   11    1 1  
     3    2    3 1  
     4    2   11 2  
     5    3    4 ar 
     6    3    8 ar 
     7    4    5 1  
     8    4    6 ar 
     9    5   15 2  
    10    6    7 ar 
    11    7    9 1  
    12    7   12 ar 
    13    8   12 ar 
    14    9   10 2  
    15   10   13 1  
    16   10   14 1  
    17   12   13 1  
    18   14   16 1  
    19   16   17 1  
    20   17   18 1  
    21   17   21 2  
    22   18   19 1  
    23   19   20 2  
    24   20   21 1  
    25    1   22 1  
    26    6   23 1  
    27    8   24 1  
    28   11   25 1  
    29   13   26 1  
    30   14   27 1  
    31   16   28 1  
    32   16   29 1  
    33   19   30 1  
    34   20   31 1  
    35   21   32 1  
@<TRIPOS>SUBSTRUCTURE
     1 SAQ         1

