### 
### Created by X-TOOL on Mon Sep 10 21:13:16 2018
### 

@<TRIPOS>MOLECULE
4q4r_ligand
   42    45     1     0     0
SMALL
GAST_HUCK


@<TRIPOS>ATOM
      1 N1        106.9150   17.7540   24.4610 N.am      1 SQO        -0.2015
      2 N3        105.3960   17.3400   22.6940 N.2       1 SQO        -0.3057
      3 C4        106.4020   17.6830   21.7930 C.ar      1 SQO         0.0079
      4 C5        107.6910   18.0460   22.2190 C.ar      1 SQO         0.0478
      5 C6        107.9710   18.0990   23.6560 C.2       1 SQO         0.2305
      6 C7        108.6590   18.3950   21.2830 C.ar      1 SQO        -0.0518
      7 C8        108.3410   18.4280   19.9420 C.ar      1 SQO         0.0125
      8 C10       106.0870   17.7100   20.4270 C.ar      1 SQO        -0.0333
      9 N12       109.0400   18.8010   18.8110 N.2       1 SQO        -0.3153
     10 C13       108.1750   18.7150   17.7770 C.2       1 SQO         0.2127
     11 C2        105.6840   17.3860   23.9930 C.2       1 SQO         0.1223
     12 C9        107.0580   18.1040   19.5020 C.ar      1 SQO         0.0736
     13 N14       106.9690   18.2990   18.1240 N.pl3     1 SQO        -0.2297
     14 N15       108.5620   19.0390   16.5380 N.pl3     1 SQO        -0.2700
     15 O16       109.0420   18.4630   24.1310 O.2       1 SQO        -0.3875
     16 C25       107.6540   18.9930   15.4030 C.3       1 SQO         0.0734
     17 C11       108.3730   19.2130   14.1000 C.3       1 SQO        -0.0106
     18 N6        107.4350   19.2530   12.9740 N.4       1 SQO         0.2399
     19 C12       108.0830   18.8720   11.7190 C.3       1 SQO        -0.0078
     20 C131      107.0850   18.9080   10.5920 C.3       1 SQO         0.0878
     21 O2        106.5050   20.2000   10.4490 O.3       1 SQO        -0.3693
     22 C14       105.8700   20.5850   11.6660 C.3       1 SQO         0.0878
     23 C15       106.8390   20.5830   12.8210 C.3       1 SQO        -0.0078
     24 H         107.0541   17.7728   25.4511 H         1 SQO         0.2537
     25 H         109.6634   18.6410   21.6080 H         1 SQO         0.0561
     26 H         105.0963   17.4270   20.0903 H         1 SQO         0.0475
     27 H         104.9092   17.1203   24.7106 H         1 SQO         0.1489
     28 H         106.1508   18.1524   17.5157 H         1 SQO         0.2314
     29 H         109.5373   19.3313   16.3825 H         1 SQO         0.1897
     30 H         106.8919   19.7767   15.5253 H         1 SQO         0.0579
     31 H         107.1659   18.0076   15.3778 H         1 SQO         0.0579
     32 H         109.0876   18.3918   13.9420 H         1 SQO         0.0835
     33 H         108.9166   20.1681   14.1475 H         1 SQO         0.0835
     34 H         106.6964   18.5935   13.1627 H         1 SQO         0.2036
     35 H         108.4893   17.8542   11.8132 H         1 SQO         0.0837
     36 H         108.9012   19.5749   11.5035 H         1 SQO         0.0837
     37 H         106.2873   18.1791   10.7977 H         1 SQO         0.0613
     38 H         107.5945   18.6394    9.6548 H         1 SQO         0.0613
     39 H         105.0548   19.8789   11.8825 H         1 SQO         0.0613
     40 H         105.4566   21.5975   11.5484 H         1 SQO         0.0613
     41 H         107.6343   21.3187   12.6303 H         1 SQO         0.0837
     42 H         106.3051   20.8512   13.7446 H         1 SQO         0.0837
@<TRIPOS>BOND
     1    1    5 am 
     2   11    1 1  
     3    2    3 1  
     4    2   11 2  
     5    3    4 ar 
     6    3    8 ar 
     7    4    5 1  
     8    4    6 ar 
     9    5   15 2  
    10    6    7 ar 
    11    7    9 1  
    12    7   12 ar 
    13    8   12 ar 
    14    9   10 2  
    15   10   13 1  
    16   10   14 1  
    17   12   13 1  
    18   14   16 1  
    19   16   17 1  
    20   17   18 1  
    21   18   19 1  
    22   18   23 1  
    23   19   20 1  
    24   20   21 1  
    25   21   22 1  
    26   22   23 1  
    27    1   24 1  
    28    6   25 1  
    29    8   26 1  
    30   11   27 1  
    31   13   28 1  
    32   14   29 1  
    33   16   30 1  
    34   16   31 1  
    35   17   32 1  
    36   17   33 1  
    37   18   34 1  
    38   19   35 1  
    39   19   36 1  
    40   20   37 1  
    41   20   38 1  
    42   22   39 1  
    43   22   40 1  
    44   23   41 1  
    45   23   42 1  
@<TRIPOS>SUBSTRUCTURE
     1 SQO         1

