### 
### Created by X-TOOL on Mon Sep 10 21:13:16 2018
### 

@<TRIPOS>MOLECULE
4q4s_ligand
   28    30     1     0     0
SMALL
GAST_HUCK


@<TRIPOS>ATOM
      1 N2        -18.9830   18.7670  -18.1450 N.2       1 S98        -0.1918
      2 C3        -18.3250   18.3580  -19.2890 C.ar      1 S98         0.1175
      3 C12       -17.0760   17.9040  -18.8610 C.ar      1 S98         0.1433
      4 N13       -16.9710   18.0490  -17.4770 N.pl3     1 S98        -0.1846
      5 C1        -18.1310   18.5690  -17.1130 C.2       1 S98         0.2965
      6 N14       -18.4310   18.8960  -15.8590 N.pl3     1 S98        -0.2425
      7 C15       -17.5260   18.6970  -14.7430 C.3       1 S98         0.0372
      8 C11       -16.1380   17.4680  -19.8020 C.ar      1 S98         0.0491
      9 C10       -16.4430   17.5480  -21.1690 C.ar      1 S98         0.1328
     10 C5        -17.6980   18.0280  -21.5840 C.ar      1 S98         0.1178
     11 C6        -17.9490   18.2060  -23.0220 C.2       1 S98         0.2089
     12 O21       -19.0100   18.6110  -23.4870 O.2       1 S98        -0.3882
     13 N7        -16.8870   17.8880  -23.8350 N.am      1 S98        -0.2586
     14 C8        -15.6910   17.4070  -23.3740 C.cat     1 S98         0.1874
     15 N22       -14.7500   17.1280  -24.2760 N.pl3     1 S98        -0.3362
     16 N9        -15.4440   17.2180  -22.0800 N.pl3     1 S98        -0.2480
     17 C4        -18.6430   18.4020  -20.6330 C.ar      1 S98         0.0129
     18 H         -16.1711   17.8060  -16.8753 H         1 S98         0.2433
     19 H         -19.3541   19.3122  -15.6706 H         1 S98         0.2168
     20 H         -18.0046   19.0461  -13.8161 H         1 S98         0.0533
     21 H         -16.6009   19.2667  -14.9150 H         1 S98         0.0533
     22 H         -17.2863   17.6274  -14.6515 H         1 S98         0.0533
     23 H         -15.1827   17.0713  -19.4777 H         1 S98         0.0743
     24 H         -16.9944   18.0155  -24.8210 H         1 S98         0.1811
     25 H         -13.8360   16.7641  -23.9710 H         1 S98         0.1758
     26 H         -14.9369   17.2763  -25.2780 H         1 S98         0.1758
     27 H         -14.5406   16.8389  -21.7623 H         1 S98         0.2306
     28 H         -19.6282   18.7277  -20.9466 H         1 S98         0.0890
@<TRIPOS>BOND
     1    1    2 1  
     2    1    5 2  
     3    2    3 ar 
     4    2   17 ar 
     5    3    4 1  
     6    3    8 ar 
     7    4    5 1  
     8    5    6 1  
     9    6    7 1  
    10    8    9 ar 
    11    9   10 ar 
    12    9   16 1  
    13   10   11 1  
    14   10   17 ar 
    15   11   12 2  
    16   11   13 am 
    17   13   14 ar 
    18   14   15 ar 
    19   14   16 ar 
    20    4   18 1  
    21    6   19 1  
    22    7   20 1  
    23    7   21 1  
    24    7   22 1  
    25    8   23 1  
    26   13   24 1  
    27   15   25 1  
    28   15   26 1  
    29   16   27 1  
    30   17   28 1  
@<TRIPOS>SUBSTRUCTURE
     1 S98         1

