### 
### Created by X-TOOL on Mon Sep 10 21:13:16 2018
### 

@<TRIPOS>MOLECULE
4q6d_ligand
   37    38     1     0     0
SMALL
GAST_HUCK


@<TRIPOS>ATOM
      1 O9         -7.3840    0.8530   16.6770 O.2       1 WW3        -0.1507
      2 S7         -5.9560    0.8100   16.7890 S.o2      1 WW3         0.0650
      3 O8         -5.3930    0.8940   18.1220 O.2       1 WW3        -0.1507
      4 N10        -5.3840   -0.4970   16.0340 N.am      1 WW3        -0.2612
      5 C3         -5.4080    2.2380   15.9480 C.ar      1 WW3         0.1060
      6 C2         -6.2840    3.2410   15.5430 C.ar      1 WW3        -0.0358
      7 C4         -4.0160    2.3900   15.6600 C.ar      1 WW3        -0.0358
      8 C5         -3.5800    3.5380   14.9560 C.ar      1 WW3        -0.0422
      9 C6         -4.5060    4.4950   14.5600 C.ar      1 WW3         0.0491
     10 C1         -5.8320    4.3490   14.8510 C.ar      1 WW3        -0.0422
     11 N11        -4.1190    5.6210   13.8120 N.2       1 WW3        -0.1862
     12 N12        -2.8920    5.8960   13.8480 N.2       1 WW3        -0.0731
     13 N13        -2.3920    7.0110   13.2950 N.pl3     1 WW3        -0.2076
     14 C16        -1.3260    7.4550   14.1650 C.3       1 WW3         0.0533
     15 C15        -0.3130    8.5280   13.8420 C.3       1 WW3        -0.0296
     16 C17        -1.0930    9.7850   14.1500 C.3       1 WW3        -0.0510
     17 C18        -2.1350   10.0250   13.0600 C.3       1 WW3        -0.0510
     18 C19        -2.3820    9.0030   11.9310 C.3       1 WW3        -0.0296
     19 C14        -3.1360    7.7530   12.3340 C.3       1 WW3         0.0533
     20 H          -5.6752   -0.7022   15.0996 H         1 WW3         0.1634
     21 H          -4.7384   -1.1016   16.5007 H         1 WW3         0.1634
     22 H          -7.3393    3.1517   15.7743 H         1 WW3         0.0632
     23 H          -3.3040    1.6363   15.9765 H         1 WW3         0.0632
     24 H          -2.5287    3.6698   14.7270 H         1 WW3         0.0613
     25 H          -6.5373    5.1096   14.5362 H         1 WW3         0.0613
     26 H          -0.7340    6.5535   14.3812 H         1 WW3         0.0557
     27 H          -1.8251    7.7952   15.0843 H         1 WW3         0.0557
     28 H          -0.0126    8.4911   12.7845 H         1 WW3         0.0287
     29 H           0.5791    8.4429   14.4798 H         1 WW3         0.0287
     30 H          -0.4042   10.6416   14.1920 H         1 WW3         0.0266
     31 H          -1.5985    9.6729   15.1205 H         1 WW3         0.0266
     32 H          -1.8547   10.9676   12.5671 H         1 WW3         0.0266
     33 H          -3.0978   10.1533   13.5762 H         1 WW3         0.0266
     34 H          -1.4038    8.6948   11.5334 H         1 WW3         0.0287
     35 H          -2.9578    9.5053   11.1397 H         1 WW3         0.0287
     36 H          -4.1052    8.0390   12.7685 H         1 WW3         0.0557
     37 H          -3.3031    7.1282   11.4442 H         1 WW3         0.0557
@<TRIPOS>BOND
     1    1    2 2  
     2    2    3 2  
     3    2    4 am 
     4    2    5 1  
     5    5    6 ar 
     6    5    7 ar 
     7    6   10 ar 
     8    7    8 ar 
     9    8    9 ar 
    10    9   10 ar 
    11    9   11 1  
    12   11   12 2  
    13   12   13 1  
    14   13   14 1  
    15   13   19 1  
    16   14   15 1  
    17   15   16 1  
    18   16   17 1  
    19   17   18 1  
    20   18   19 1  
    21    4   20 1  
    22    4   21 1  
    23    6   22 1  
    24    7   23 1  
    25    8   24 1  
    26   10   25 1  
    27   14   26 1  
    28   14   27 1  
    29   15   28 1  
    30   15   29 1  
    31   16   30 1  
    32   16   31 1  
    33   17   32 1  
    34   17   33 1  
    35   18   34 1  
    36   18   35 1  
    37   19   36 1  
    38   19   37 1  
@<TRIPOS>SUBSTRUCTURE
     1 WW3         1

