### 
### Created by X-TOOL on Mon Sep 10 21:13:16 2018
### 

@<TRIPOS>MOLECULE
4q6e_ligand
   40    41     1     0     0
SMALL
GAST_HUCK


@<TRIPOS>ATOM
      1 O25        -1.4630    7.6290   14.8130 O.2       1 KR5        -0.3548
      2 C22        -1.9260    7.7880   13.7050 C.2       1 KR5         0.2659
      3 N27        -1.9000    9.1550   13.3270 N.am      1 KR5        -0.1220
      4 C29        -1.2400   10.1920   14.1090 C.2       1 KR5         0.0881
      5 C33        -0.3690    9.8220   15.2700 C.3       1 KR5        -0.0015
      6 C30        -1.4110   11.4470   13.4700 C.2       1 KR5        -0.0525
      7 C31        -2.2640   11.1650   12.3590 C.2       1 KR5        -0.0119
      8 C37        -2.8250   12.1260   11.3810 C.3       1 KR5        -0.0341
      9 N28        -2.5550    9.8190   12.3020 N.2       1 KR5        -0.2160
     10 C19        -2.2660    6.8360   12.6570 C.3       1 KR5         0.0759
     11 C18        -2.6070    5.5220   13.2770 C.3       1 KR5         0.0423
     12 N17        -3.9710    5.5230   13.8660 N.pl3     1 KR5        -0.3205
     13 C8         -4.4150    4.3960   14.5740 C.ar      1 KR5         0.0379
     14 C7         -3.5530    3.3960   14.9500 C.ar      1 KR5        -0.0427
     15 C6         -4.0390    2.2740   15.6610 C.ar      1 KR5        -0.0471
     16 C9         -5.7780    4.3380   14.8900 C.ar      1 KR5        -0.0427
     17 C10        -6.2510    3.2340   15.5850 C.ar      1 KR5        -0.0471
     18 C5         -5.4030    2.1930   15.9700 C.ar      1 KR5         0.0945
     19 S2         -6.0160    0.7940   16.8330 S.o2      1 KR5         0.0600
     20 O3         -7.4090    0.8390   16.6960 O.2       1 KR5        -0.1522
     21 O4         -5.4580    0.8760   18.1760 O.2       1 KR5        -0.1522
     22 N1         -5.4490   -0.5260   16.0910 N.am      1 KR5        -0.2623
     23 H           0.0364   10.7353   15.7299 H         1 KR5         0.0422
     24 H           0.4596    9.1890   14.9197 H         1 KR5         0.0422
     25 H          -0.9633    9.2701   16.0131 H         1 KR5         0.0422
     26 H          -0.9880   12.4076   13.7604 H         1 KR5         0.0177
     27 H          -3.4428   11.5854   10.6488 H         1 KR5         0.0364
     28 H          -2.0040   12.6399   10.8596 H         1 KR5         0.0364
     29 H          -3.4447   12.8661   11.9083 H         1 KR5         0.0364
     30 H          -1.4074    6.7115   11.9808 H         1 KR5         0.0542
     31 H          -3.1301    7.2091   12.0877 H         1 KR5         0.0542
     32 H          -1.8774    5.3036   14.0707 H         1 KR5         0.0537
     33 H          -2.5540    4.7403   12.5049 H         1 KR5         0.0537
     34 H          -4.5846    6.3429   13.7557 H         1 KR5         0.1757
     35 H          -2.5001    3.4662   14.7021 H         1 KR5         0.0515
     36 H          -3.3619    1.4836   15.9642 H         1 KR5         0.0602
     37 H          -6.4488    5.1379   14.5981 H         1 KR5         0.0515
     38 H          -7.3042    3.1781   15.8352 H         1 KR5         0.0602
     39 H          -5.6876   -1.4342   16.4348 H         1 KR5         0.1633
     40 H          -4.8597   -0.4341   15.2883 H         1 KR5         0.1633
@<TRIPOS>BOND
     1    1    2 2  
     2    2    3 am 
     3    2   10 1  
     4    3    4 1  
     5    3    9 1  
     6    4    5 1  
     7    4    6 2  
     8    6    7 1  
     9    7    8 1  
    10    7    9 2  
    11   10   11 1  
    12   11   12 1  
    13   12   13 1  
    14   13   14 ar 
    15   13   16 ar 
    16   14   15 ar 
    17   15   18 ar 
    18   16   17 ar 
    19   17   18 ar 
    20   18   19 1  
    21   19   20 2  
    22   19   21 2  
    23   19   22 am 
    24    5   23 1  
    25    5   24 1  
    26    5   25 1  
    27    6   26 1  
    28    8   27 1  
    29    8   28 1  
    30    8   29 1  
    31   10   30 1  
    32   10   31 1  
    33   11   32 1  
    34   11   33 1  
    35   12   34 1  
    36   14   35 1  
    37   15   36 1  
    38   16   37 1  
    39   17   38 1  
    40   22   39 1  
    41   22   40 1  
@<TRIPOS>SUBSTRUCTURE
     1 KR5         1

