### 
### Created by X-TOOL on Mon Sep 10 21:13:17 2018
### 

@<TRIPOS>MOLECULE
4q6r_ligand
   56    60     1     0     0
SMALL
GAST_HUCK


@<TRIPOS>ATOM
      1 C2         34.9880   15.8700   24.2160 C.ar      1 30J         0.0571
      2 C3         34.4020   14.7010   23.7770 C.ar      1 30J        -0.0175
      3 C42        31.6340    9.1690   24.3870 C.ar      1 30J         0.1241
      4 C44        30.5100    7.2330   23.7880 C.ar      1 30J         0.0322
      5 C46        30.9480    6.5970   24.9350 C.ar      1 30J         0.1084
      6 C47        31.7510    7.2690   25.8310 C.ar      1 30J        -0.0200
      7 C49        32.0870    8.5740   25.5490 C.ar      1 30J        -0.0051
      8 C51        30.5830    5.2410   25.1630 C.1       1 30J         0.0963
      9 C53        32.1520   11.9790   25.9070 C.3       1 30J        -0.0396
     10 C11        36.0290   16.2450   22.1220 C.ar      1 30J        -0.0332
     11 C13        35.7860   16.6380   23.4060 C.ar      1 30J        -0.0318
     12 C15        36.5760   15.4510   19.4350 C.3       1 30J         0.0396
     13 C18        37.9830   14.9030   19.6500 C.ar      1 30J        -0.0246
     14 C19        39.0750   15.7440   19.6600 C.ar      1 30J        -0.0570
     15 C21        40.3460   15.2420   19.8690 C.ar      1 30J        -0.0677
     16 C23        40.5370   13.8840   20.0710 C.ar      1 30J        -0.0681
     17 C25        39.4520   13.0350   20.0770 C.ar      1 30J        -0.0677
     18 C27        38.1860   13.5490   19.8670 C.ar      1 30J        -0.0570
     19 C30        33.7790   12.0370   23.9870 C.3       1 30J         0.0591
     20 CL1        34.7210   16.4460   25.8090 Cl        1 30J        -0.0615
     21 C5         34.6360   14.3050   22.4820 C.ar      1 30J         0.0563
     22 C6         34.0840   13.1530   21.9480 C.ar      1 30J         0.1273
     23 N7         34.3670   12.8200   20.7060 N.ar      1 30J        -0.2902
     24 N8         35.1420   13.5660   19.9570 N.ar      1 30J        -0.2937
     25 C9         35.6780   14.6800   20.3820 C.ar      1 30J         0.0521
     26 C10        35.4450   15.0830   21.6680 C.ar      1 30J         0.0380
     27 N29        33.3360   12.2980   22.6360 N.pl3     1 30J        -0.2763
     28 C33        32.9110   11.1360   24.8710 C.3       1 30J         0.0614
     29 N35        31.9350   10.4320   24.0900 N.pl3     1 30J        -0.2821
     30 C36        31.2540   11.0980   23.0050 C.3       1 30J         0.0534
     31 C39        32.2570   11.6150   21.9820 C.3       1 30J         0.0565
     32 N43        30.8630    8.4920   23.5500 N.ar      1 30J        -0.2708
     33 N52        30.3230    4.1380   25.3240 N.1       1 30J        -0.3342
     34 H          33.7744   14.1111   24.4352 H         1 30J         0.0727
     35 H          29.8786    6.7046   23.0828 H         1 30J         0.0892
     36 H          32.1079    6.7838   26.7323 H         1 30J         0.0793
     37 H          32.7072    9.1350   26.2388 H         1 30J         0.0633
     38 H          32.8719   12.5346   26.5260 H         1 30J         0.0253
     39 H          31.5507   11.3178   26.5483 H         1 30J         0.0253
     40 H          31.4901   12.6883   25.3886 H         1 30J         0.0253
     41 H          36.6675   16.8342   21.4737 H         1 30J         0.0718
     42 H          36.2225   17.5549   23.7852 H         1 30J         0.0701
     43 H          36.2590   15.2924   18.3937 H         1 30J         0.0672
     44 H          36.5445   16.5255   19.6683 H         1 30J         0.0672
     45 H          38.9361   16.8075   19.5027 H         1 30J         0.0565
     46 H          41.1971   15.9134   19.8749 H         1 30J         0.0601
     47 H          41.5359   13.4917   20.2236 H         1 30J         0.0564
     48 H          39.5898   11.9730   20.2450 H         1 30J         0.0601
     49 H          37.3339   12.8790   19.8721 H         1 30J         0.0565
     50 H          33.8647   13.0085   24.4958 H         1 30J         0.0558
     51 H          34.7723   11.5692   23.9201 H         1 30J         0.0558
     52 H          33.5589   10.4120   25.3869 H         1 30J         0.0579
     53 H          30.6767   11.9444   23.4054 H         1 30J         0.0546
     54 H          30.5717   10.3875   22.5156 H         1 30J         0.0546
     55 H          32.6599   10.7665   21.4095 H         1 30J         0.0556
     56 H          31.7498   12.3112   21.2979 H         1 30J         0.0556
@<TRIPOS>BOND
     1    2    1 ar 
     2    1   11 ar 
     3    1   20 1  
     4   21    2 ar 
     5    3    7 ar 
     6   29    3 1  
     7    3   32 ar 
     8    4    5 ar 
     9   32    4 ar 
    10    6    5 ar 
    11    5    8 1  
    12    7    6 ar 
    13    8   33 3  
    14   28    9 1  
    15   10   11 ar 
    16   26   10 ar 
    17   12   13 1  
    18   25   12 1  
    19   13   14 ar 
    20   13   18 ar 
    21   14   15 ar 
    22   15   16 ar 
    23   17   16 ar 
    24   18   17 ar 
    25   19   27 1  
    26   28   19 1  
    27   22   21 ar 
    28   21   26 ar 
    29   22   23 ar 
    30   27   22 1  
    31   23   24 ar 
    32   24   25 ar 
    33   26   25 ar 
    34   27   31 1  
    35   28   29 1  
    36   29   30 1  
    37   30   31 1  
    38    2   34 1  
    39    4   35 1  
    40    6   36 1  
    41    7   37 1  
    42    9   38 1  
    43    9   39 1  
    44    9   40 1  
    45   10   41 1  
    46   11   42 1  
    47   12   43 1  
    48   12   44 1  
    49   14   45 1  
    50   15   46 1  
    51   16   47 1  
    52   17   48 1  
    53   18   49 1  
    54   19   50 1  
    55   19   51 1  
    56   28   52 1  
    57   30   53 1  
    58   30   54 1  
    59   31   55 1  
    60   31   56 1  
@<TRIPOS>SUBSTRUCTURE
     1 30J         1

