### 
### Created by X-TOOL on Mon Sep 10 21:13:22 2018
### 

@<TRIPOS>MOLECULE
4q7p_ligand
   16    16     1     0     0
SMALL
GAST_HUCK


@<TRIPOS>ATOM
      1 S1         14.9530    0.1600   16.9840 S.2       1 3MH        -0.3549
      2 C1         15.4520    1.3640   15.8250 C.2       1 3MH         0.1125
      3 C2         15.0340    2.7110   15.9760 C.2       1 3MH        -0.0092
      4 C6         14.2420    3.1260   17.1990 C.3       1 3MH        -0.0345
      5 C3         15.3750    3.6280   15.0510 C.2       1 3MH        -0.0687
      6 C4         16.1540    3.2590   13.9590 C.2       1 3MH        -0.0375
      7 C5         16.5240    1.9430   13.7910 C.2       1 3MH         0.1054
      8 N1         16.2010    1.0040   14.7560 N.am      1 3MH        -0.0929
      9 O1         16.5560   -0.2740   14.5890 O.3       1 3MH        -0.2181
     10 H1         14.0105    4.1997   17.1389 H         1 3MH         0.0356
     11 H2         14.8351    2.9289   18.1042 H         1 3MH         0.0356
     12 H3         13.3053    2.5509   17.2418 H         1 3MH         0.0356
     13 H4         15.0409    4.6590   15.1577 H         1 3MH         0.0580
     14 H5         16.4711    4.0104   13.2373 H         1 3MH         0.0410
     15 H6         17.0707    1.6409   12.8990 H         1 3MH         0.1228
     16 H7         16.1564   -0.6115   13.7959 H         1 3MH         0.2694
@<TRIPOS>BOND
     1    1    2 2  
     2    2    3 1  
     3    2    8 am 
     4    3    4 1  
     5    3    5 2  
     6    5    6 1  
     7    6    7 2  
     8    7    8 1  
     9    8    9 1  
    10    4   10 1  
    11    4   11 1  
    12    4   12 1  
    13    5   13 1  
    14    6   14 1  
    15    7   15 1  
    16    9   16 1  
@<TRIPOS>SUBSTRUCTURE
     1 3MH         1

