### 
### Created by X-TOOL on Mon Sep 10 21:13:23 2018
### 

@<TRIPOS>MOLECULE
4q7s_ligand
   16    16     1     0     0
SMALL
GAST_HUCK


@<TRIPOS>ATOM
      1 S1         14.9010    0.2290   17.0040 S.2       1 2YU        -0.3674
      2 C1         15.4220    1.2990   15.7810 C.2       1 2YU         0.0953
      3 C2         15.0830    2.6970   15.8550 C.2       1 2YU        -0.0326
      4 C3         15.5100    3.5510   14.8880 C.2       1 2YU        -0.0529
      5 C6         15.1320    4.9710   14.9420 C.3       1 2YU        -0.0292
      6 C4         16.3080    3.0660   13.8090 C.2       1 2YU        -0.0218
      7 C5         16.6510    1.7410   13.7530 C.2       1 2YU         0.1133
      8 N1         16.1970    0.8410   14.7640 N.am      1 2YU        -0.0915
      9 O1         16.5680   -0.4340   14.7350 O.3       1 2YU        -0.2171
     10 H1         14.4849    3.0694   16.6854 H         1 2YU         0.0344
     11 H2         15.5679    5.4994   14.0813 H         1 2YU         0.0423
     12 H3         15.5093    5.4157   15.8747 H         1 2YU         0.0423
     13 H4         14.0361    5.0602   14.9103 H         1 2YU         0.0423
     14 H5         16.6442    3.7490   13.0303 H         1 2YU         0.0415
     15 H6         17.2707    1.3737   12.9363 H         1 2YU         0.1314
     16 H7         17.5150   -0.4884   14.7874 H         1 2YU         0.2695
@<TRIPOS>BOND
     1    1    2 2  
     2    2    3 1  
     3    2    8 am 
     4    3    4 2  
     5    4    5 1  
     6    4    6 1  
     7    6    7 2  
     8    7    8 1  
     9    8    9 1  
    10    3   10 1  
    11    5   11 1  
    12    5   12 1  
    13    5   13 1  
    14    6   14 1  
    15    7   15 1  
    16    9   16 1  
@<TRIPOS>SUBSTRUCTURE
     1 2YU         1

