### 
### Created by X-TOOL on Mon Sep 10 21:13:22 2018
### 

@<TRIPOS>MOLECULE
4q7v_ligand
   16    16     1     0     0
SMALL
GAST_HUCK


@<TRIPOS>ATOM
      1 S1         14.8660    0.0320   17.0700 S.2       1 5MH        -0.3651
      2 C1         15.2540    1.3380   16.0150 C.2       1 5MH         0.1000
      3 C2         14.7020    2.6210   16.2450 C.2       1 5MH        -0.0307
      4 C3         15.0050    3.6400   15.4210 C.2       1 5MH        -0.0630
      5 C4         15.8480    3.4370   14.3600 C.2       1 5MH        -0.0103
      6 C6         16.1850    4.5740   13.4430 C.3       1 5MH        -0.0376
      7 C5         16.3890    2.1810   14.1350 C.2       1 5MH         0.1147
      8 N1         16.0790    1.1380   14.9780 N.am      1 5MH        -0.0941
      9 O1         16.6100   -0.0970   14.7580 O.3       1 5MH        -0.2178
     10 H1         14.0325    2.7829   17.0885 H         1 5MH         0.0452
     11 H2         14.5800    4.6271   15.5972 H         1 5MH         0.0666
     12 H3         16.8695    4.2211   12.6576 H         1 5MH         0.0333
     13 H4         16.6693    5.3773   14.0176 H         1 5MH         0.0333
     14 H5         15.2636    4.9579   12.9809 H         1 5MH         0.0333
     15 H6         17.0589    2.0194   13.2918 H         1 5MH         0.1224
     16 H7         16.3431   -0.4071   13.9006 H         1 5MH         0.2697
@<TRIPOS>BOND
     1    1    2 2  
     2    2    3 1  
     3    2    8 am 
     4    3    4 2  
     5    4    5 1  
     6    5    6 1  
     7    5    7 2  
     8    7    8 1  
     9    8    9 1  
    10    3   10 1  
    11    4   11 1  
    12    6   12 1  
    13    6   13 1  
    14    6   14 1  
    15    7   15 1  
    16    9   16 1  
@<TRIPOS>SUBSTRUCTURE
     1 5MH         1

