### 
### Created by X-TOOL on Mon Sep 10 21:13:23 2018
### 

@<TRIPOS>MOLECULE
4q7w_ligand
   16    16     1     0     0
SMALL
GAST_HUCK


@<TRIPOS>ATOM
      1 C6         16.1330    3.6560   13.5500 C.3       1 6MH         0.0183
      2 C5         15.5320    3.1580   14.8250 C.2       1 6MH         0.1315
      3 C4         14.8650    3.9910   15.6130 C.2       1 6MH        -0.0270
      4 C3         14.3290    3.5360   16.8090 C.2       1 6MH        -0.0782
      5 C2         14.4970    2.2560   17.1750 C.2       1 6MH        -0.0387
      6 C1         15.2250    1.3940   16.3680 C.2       1 6MH         0.0982
      7 S1         15.4860   -0.2540   16.8680 S.2       1 6MH        -0.3621
      8 N1         15.7270    1.8270   15.2180 N.am      1 6MH        -0.0835
      9 O1         16.4410    1.0030   14.4500 O.3       1 6MH        -0.2171
     10 H1         15.8733    4.7159   13.4117 H         1 6MH         0.0502
     11 H2         15.7409    3.0694   12.7061 H         1 6MH         0.0502
     12 H3         17.2269    3.5492   13.5940 H         1 6MH         0.0502
     13 H4         14.7381    5.0324   15.3210 H         1 6MH         0.0355
     14 H5         13.7721    4.2174   17.4505 H         1 6MH         0.0663
     15 H6         14.0619    1.8940   18.1054 H         1 6MH         0.0372
     16 H7         17.2007    0.7000   14.9334 H         1 6MH         0.2689
@<TRIPOS>BOND
     1    1    2 1  
     2    2    3 2  
     3    2    8 1  
     4    3    4 1  
     5    4    5 2  
     6    5    6 1  
     7    6    7 2  
     8    6    8 am 
     9    8    9 1  
    10    1   10 1  
    11    1   11 1  
    12    1   12 1  
    13    3   13 1  
    14    4   14 1  
    15    5   15 1  
    16    9   16 1  
@<TRIPOS>SUBSTRUCTURE
     1 6MH         1

