### 
### Created by X-TOOL on Mon Sep 10 21:13:23 2018
### 

@<TRIPOS>MOLECULE
4q81_ligand
   19    19     1     0     0
SMALL
GAST_HUCK


@<TRIPOS>ATOM
      1 C7         17.0950    1.3910   12.4500 C.3       1 7MH         0.0173
      2 C5         16.3690    1.8500   13.6830 C.2       1 7MH         0.1284
      3 C4         15.9930    3.1580   13.8090 C.2       1 7MH        -0.0237
      4 C3         15.3690    3.5910   14.9640 C.2       1 7MH        -0.0629
      5 C6         14.9470    5.0430   15.1000 C.3       1 7MH        -0.0315
      6 C2         15.0720    2.6980   15.9530 C.2       1 7MH        -0.0421
      7 C1         15.4410    1.3790   15.8200 C.2       1 7MH         0.0884
      8 S1         15.0650    0.2340   17.0870 S.2       1 7MH        -0.3712
      9 N1         16.1420    0.9710   14.7110 N.am      1 7MH        -0.0879
     10 O1         16.5470   -0.3030   14.6050 O.3       1 7MH        -0.2187
     11 H1         17.1815    2.2287   11.7423 H         1 7MH         0.0501
     12 H2         16.5350    0.5696   11.9791 H         1 7MH         0.0501
     13 H3         18.0999    1.0388   12.7259 H         1 7MH         0.0501
     14 H4         16.1852    3.8597   12.9987 H         1 7MH         0.0325
     15 H5         14.4709    5.1962   16.0797 H         1 7MH         0.0420
     16 H6         14.2325    5.2935   14.3020 H         1 7MH         0.0420
     17 H7         15.8317    5.6913   15.0169 H         1 7MH         0.0420
     18 H8         14.5438    3.0290   16.8459 H         1 7MH         0.0270
     19 H9         15.7904   -0.8772   14.6232 H         1 7MH         0.2683
@<TRIPOS>BOND
     1    1    2 1  
     2    2    3 2  
     3    2    9 1  
     4    3    4 1  
     5    4    5 1  
     6    4    6 2  
     7    6    7 1  
     8    7    8 2  
     9    7    9 am 
    10    9   10 1  
    11    1   11 1  
    12    1   12 1  
    13    1   13 1  
    14    3   14 1  
    15    5   15 1  
    16    5   16 1  
    17    5   17 1  
    18    6   18 1  
    19   10   19 1  
@<TRIPOS>SUBSTRUCTURE
     1 7MH         1

