### 
### Created by X-TOOL on Mon Sep 10 21:13:22 2018
### 

@<TRIPOS>MOLECULE
4q83_ligand
   16    16     1     0     0
SMALL
GAST_HUCK


@<TRIPOS>ATOM
      1 S1         14.8020    0.2060   16.9560 S.2       1 3FH        -0.2270
      2 C1         15.6310    1.2120   15.7950 C.2       1 3FH         0.1704
      3 C2         15.5700    2.7050   15.9150 C.2       1 3FH         0.0546
      4 C6         14.6590    3.3750   17.0150 C.3       1 3FH         0.3090
      5 F1         14.8010    4.7020   16.9600 F         1 3FH        -0.2880
      6 F2         13.4410    3.0700   16.8020 F         1 3FH        -0.2880
      7 F3         15.0390    2.9180   18.2800 F         1 3FH        -0.2880
      8 C3         16.2140    3.4490   15.0660 C.2       1 3FH        -0.0228
      9 C4         17.0090    2.8490   14.0610 C.2       1 3FH         0.0319
     10 C5         17.0390    1.4290   13.9270 C.2       1 3FH         0.1690
     11 N1         16.3890    0.6450   14.8320 N.am      1 3FH        -0.0424
     12 O1         16.4330   -0.6810   14.7140 O.3       1 3FH        -0.1994
     13 H1         16.1418    4.5338   15.1281 H         1 3FH         0.1027
     14 H2         17.5983    3.4715   13.3894 H         1 3FH         0.0707
     15 H3         17.5816    0.9716   13.1010 H         1 3FH         0.1718
     16 H4         16.0610   -0.9359   13.8778 H         1 3FH         0.2755
@<TRIPOS>BOND
     1    1    2 2  
     2    2    3 1  
     3    2   11 am 
     4    3    4 1  
     5    3    8 2  
     6    4    5 1  
     7    4    6 1  
     8    4    7 1  
     9    8    9 1  
    10    9   10 2  
    11   10   11 1  
    12   11   12 1  
    13    8   13 1  
    14    9   14 1  
    15   10   15 1  
    16   12   16 1  
@<TRIPOS>SUBSTRUCTURE
     1 3FH         1

