### 
### Created by X-TOOL on Mon Sep 10 21:13:22 2018
### 

@<TRIPOS>MOLECULE
4q87_ligand
   16    16     1     0     0
SMALL
GAST_HUCK


@<TRIPOS>ATOM
      1 S1         14.7830    0.3710   16.9820 S.2       1 4FH        -0.2613
      2 C1         15.4480    1.3790   15.7560 C.2       1 4FH         0.1661
      3 C2         15.2030    2.8180   15.7800 C.2       1 4FH         0.0310
      4 C3         15.7230    3.6030   14.8210 C.2       1 4FH         0.0405
      5 C6         15.4660    5.1320   14.8420 C.3       1 4FH         0.3706
      6 F1         14.9470    5.4590   15.9500 F         1 4FH        -0.2269
      7 F2         16.6370    5.7880   14.6820 F         1 4FH        -0.2269
      8 F3         14.6710    5.4430   13.8930 F         1 4FH        -0.2269
      9 C4         16.5040    3.0350   13.7940 C.2       1 4FH        -0.0244
     10 C5         16.7370    1.6540   13.7730 C.2       1 4FH         0.1091
     11 N1         16.1980    0.8380   14.7690 N.am      1 4FH        -0.0791
     12 O2         16.4220   -0.4790   14.7460 O.3       1 4FH        -0.2174
     13 H1         14.5995    3.2549   16.5742 H         1 4FH         0.1088
     14 H2         16.9263    3.6701   13.0167 H         1 4FH         0.0408
     15 H3         17.3395    1.2163   12.9785 H         1 4FH         0.1264
     16 H4         16.0789   -0.8434   13.9385 H         1 4FH         0.2692
@<TRIPOS>BOND
     1    1    2 2  
     2    2    3 1  
     3    2   11 am 
     4    3    4 2  
     5    4    5 1  
     6    4    9 1  
     7    5    6 1  
     8    5    7 1  
     9    5    8 1  
    10    9   10 2  
    11   10   11 1  
    12   11   12 1  
    13    3   13 1  
    14    9   14 1  
    15   10   15 1  
    16   12   16 1  
@<TRIPOS>SUBSTRUCTURE
     1 4FH         1

