### 
### Created by X-TOOL on Mon Sep 10 21:13:21 2018
### 

@<TRIPOS>MOLECULE
4q8x_ligand
   15    15     1     0     0
SMALL
GAST_HUCK


@<TRIPOS>ATOM
      1 S1         14.6090    1.0950   17.2000 S.2       1 7FH         0.0753
      2 C1         15.2590    2.2950   16.1860 C.2       1 7FH         0.2802
      3 C2         14.4300    3.2880   15.6600 C.2       1 7FH         0.0975
      4 C3         14.9450    4.2350   14.8090 C.2       1 7FH         0.0676
      5 C4         16.2610    4.1950   14.4630 C.2       1 7FH         0.1739
      6 C6         16.8020    5.1890   13.5760 C.3       1 7FH         0.4164
      7 F1         17.1880    6.2480   14.2790 F         1 7FH        -0.2073
      8 F2         17.8460    4.6830   12.9270 F         1 7FH        -0.2073
      9 F3         15.8710    5.5540   12.7000 F         1 7FH        -0.2073
     10 C5         17.0910    3.2060   14.9920 C.2       1 7FH         0.1791
     11 N1         16.5790    2.2700   15.8610 N.2       1 7FH        -0.0170
     12 O1         17.3500    1.3080   16.3190 O.2       1 7FH        -0.1223
     13 H1         13.3740    3.3115   15.9249 H         1 7FH         0.1435
     14 H2         14.3008    5.0177   14.4111 H         1 7FH         0.1330
     15 H3         18.1443    3.1749   14.7171 H         1 7FH         0.1948
@<TRIPOS>BOND
     1    1    2 2  
     2    2    3 1  
     3    2   11 1  
     4    3    4 2  
     5    4    5 1  
     6    5    6 1  
     7    5   10 2  
     8    6    7 1  
     9    6    8 1  
    10    6    9 1  
    11   10   11 1  
    12   11   12 2  
    13    3   13 1  
    14    4   14 1  
    15   10   15 1  
@<TRIPOS>SUBSTRUCTURE
     1 7FH         1

