### 
### Created by X-TOOL on Mon Sep 10 21:13:21 2018
### 

@<TRIPOS>MOLECULE
4q8y_ligand
   21    22     1     0     0
SMALL
GAST_HUCK


@<TRIPOS>ATOM
      1 S1         15.0320    0.1280   17.0050 S.3       1 HQT        -0.1341
      2 C1         15.5520    1.2340   15.7460 C.3       1 HQT         0.1456
      3 C9         15.3070    2.5790   15.8690 C.ar      1 HQT        -0.0090
      4 C8         14.6170    3.0850   17.0380 C.ar      1 HQT        -0.0658
      5 C7         14.3860    4.4090   17.1650 C.ar      1 HQT        -0.0773
      6 C6         14.7960    5.3080   16.1320 C.ar      1 HQT        -0.0782
      7 C5         15.4570    4.8140   14.9910 C.ar      1 HQT        -0.0745
      8 C4         15.7130    3.4520   14.8700 C.ar      1 HQT        -0.0481
      9 C3         16.3650    2.9710   13.7590 C.2       1 HQT        -0.0601
     10 C2         16.6060    1.6640   13.6410 C.2       1 HQT         0.0432
     11 N1         16.1980    0.7680   14.6720 N.pl3     1 HQT        -0.1628
     12 O1         16.4490   -0.5340   14.5600 O.3       1 HQT        -0.2655
     13 H1         14.3976   -0.5505   16.6136 H         1 HQT         0.1065
     14 H2         14.5901    1.1027   15.2287 H         1 HQT         0.0867
     15 H3         14.2862    2.4005   17.8107 H         1 HQT         0.0530
     16 H4         13.8897    4.7903   18.0501 H         1 HQT         0.0525
     17 H5         14.5982    6.3696   16.2270 H         1 HQT         0.0537
     18 H6         15.7665    5.4953   14.2067 H         1 HQT         0.0516
     19 H7         16.6846    3.6566   12.9756 H         1 HQT         0.0258
     20 H8         17.1144    1.2817   12.7571 H         1 HQT         0.1052
     21 H9         16.0239   -0.8714   13.7803 H         1 HQT         0.2517
@<TRIPOS>BOND
     1    1    2 1  
     2    2    3 1  
     3    2   11 1  
     4    3    4 ar 
     5    3    8 ar 
     6    4    5 ar 
     7    5    6 ar 
     8    6    7 ar 
     9    7    8 ar 
    10    8    9 1  
    11    9   10 2  
    12   10   11 1  
    13   11   12 1  
    14    1   13 1  
    15    2   14 1  
    16    4   15 1  
    17    5   16 1  
    18    6   17 1  
    19    7   18 1  
    20    9   19 1  
    21   10   20 1  
    22   12   21 1  
@<TRIPOS>SUBSTRUCTURE
     1 HQT         1

