### 
### Created by X-TOOL on Mon Sep 10 21:13:21 2018
### 

@<TRIPOS>MOLECULE
4q90_ligand
   15    15     1     0     0
SMALL
GAST_HUCK


@<TRIPOS>ATOM
      1 C6         14.9650    5.1160   15.3870 C.3       1 4H2        -0.0255
      2 C3         15.4050    3.6850   15.0980 C.ar      1 4H2        -0.0326
      3 C2         15.0420    2.6320   15.9920 C.ar      1 4H2        -0.0216
      4 C1         15.4480    1.3690   15.7460 C.ar      1 4H2         0.0754
      5 S1         15.0110    0.0610   16.8650 S.3       1 4H2        -0.1012
      6 N1         16.2230    1.0920   14.6150 N.ar      1 4H2        -0.2969
      7 C5         16.5300    2.0980   13.7300 C.ar      1 4H2        -0.0043
      8 C4         16.1180    3.4100   13.9910 C.ar      1 4H2        -0.0401
      9 H1         14.3973    5.1419   16.3288 H         1 4H2         0.0415
     10 H2         14.3289    5.4771   14.5654 H         1 4H2         0.0415
     11 H3         15.8513    5.7614   15.4754 H         1 4H2         0.0415
     12 H4         14.4406    2.8474   16.8678 H         1 4H2         0.0594
     13 H5         14.4804   -0.6392   16.3707 H         1 4H2         0.1254
     14 H6         17.0913    1.8752   12.8298 H         1 4H2         0.0781
     15 H7         16.3738    4.2053   13.3003 H         1 4H2         0.0594
@<TRIPOS>BOND
     1    1    2 1  
     2    2    3 ar 
     3    2    8 ar 
     4    3    4 ar 
     5    4    5 1  
     6    4    6 ar 
     7    6    7 ar 
     8    7    8 ar 
     9    1    9 1  
    10    1   10 1  
    11    1   11 1  
    12    3   12 1  
    13    5   13 1  
    14    7   14 1  
    15    8   15 1  
@<TRIPOS>SUBSTRUCTURE
     1 4H2         1

