### 
### Created by X-TOOL on Mon Sep 10 21:13:17 2018
### 

@<TRIPOS>MOLECULE
4q93_ligand
   29    30     1     0     0
SMALL
GAST_HUCK


@<TRIPOS>ATOM
      1 C1        -10.5260    9.6160   -7.4610 C.ar      1 STL         0.0782
      2 C2         -9.1220    9.6830   -7.2780 C.ar      1 STL        -0.0066
      3 C3         -8.3870   10.7870   -7.7610 C.ar      1 STL         0.0782
      4 C4         -9.1170   11.7870   -8.4090 C.ar      1 STL        -0.0400
      5 C5        -10.5000   11.6660   -8.5980 C.ar      1 STL        -0.0478
      6 C6        -11.2230   10.6040   -8.0970 C.ar      1 STL        -0.0400
      7 C7        -11.2450   12.6870   -9.3320 C.2       1 STL        -0.0650
      8 C8        -10.9900   13.2610  -10.4990 C.2       1 STL        -0.0614
      9 C9         -9.7070   13.4520  -11.2260 C.ar      1 STL        -0.0332
     10 C10        -9.0210   12.3350  -11.6790 C.ar      1 STL        -0.0606
     11 C11        -7.7750   12.4570  -12.3170 C.ar      1 STL        -0.0298
     12 C12        -7.2250   13.7000  -12.4900 C.ar      1 STL         0.0914
     13 C13        -7.8730   14.8140  -11.9970 C.ar      1 STL        -0.0298
     14 C14        -9.1160   14.6900  -11.3660 C.ar      1 STL        -0.0606
     15 O1         -6.0040   13.8690  -13.0630 O.3       1 STL        -0.3305
     16 O2         -7.0000   10.9080   -7.6790 O.3       1 STL        -0.3363
     17 O3        -11.2940    8.5910   -7.0390 O.3       1 STL        -0.3363
     18 H          -8.6083    8.8795   -6.7627 H         1 STL         0.0461
     19 H          -8.6048   12.6709   -8.7714 H         1 STL         0.0441
     20 H         -12.3007   10.5551   -8.2035 H         1 STL         0.0441
     21 H         -12.1546   13.0309   -8.8418 H         1 STL         0.0564
     22 H         -11.8653   13.6588  -11.0104 H         1 STL         0.0617
     23 H          -9.4535   11.3510  -11.5385 H         1 STL         0.0608
     24 H          -7.2530   11.5748  -12.6695 H         1 STL         0.0554
     25 H          -7.4162   15.7917  -12.0991 H         1 STL         0.0554
     26 H          -9.6172   15.5724  -10.9850 H         1 STL         0.0608
     27 H          -5.6742   13.0280  -13.3569 H         1 STL         0.2500
     28 H          -6.7799   11.7054   -7.2118 H         1 STL         0.2476
     29 H         -11.7284    8.1942   -7.7849 H         1 STL         0.2476
@<TRIPOS>BOND
     1    1    2 ar 
     2    1    6 ar 
     3    1   17 1  
     4    2    3 ar 
     5    3    4 ar 
     6    3   16 1  
     7    4    5 ar 
     8    5    6 ar 
     9    5    7 1  
    10    7    8 2  
    11    8    9 1  
    12    9   10 ar 
    13    9   14 ar 
    14   10   11 ar 
    15   11   12 ar 
    16   12   13 ar 
    17   12   15 1  
    18   13   14 ar 
    19    2   18 1  
    20    4   19 1  
    21    6   20 1  
    22    7   21 1  
    23    8   22 1  
    24   10   23 1  
    25   11   24 1  
    26   13   25 1  
    27   14   26 1  
    28   15   27 1  
    29   16   28 1  
    30   17   29 1  
@<TRIPOS>SUBSTRUCTURE
     1 STL         1

