### 
### Created by X-TOOL on Mon Sep 10 21:13:21 2018
### 

@<TRIPOS>MOLECULE
4q99_ligand
   17    17     1     0     0
SMALL
GAST_HUCK


@<TRIPOS>ATOM
      1 O1         14.2140    1.3660   17.9220 O.3       1 HT4        -0.3405
      2 C1         14.6730    2.1440   16.8880 C.ar      1 HT4         0.0923
      3 C6         14.2480    3.4300   16.7120 C.ar      1 HT4        -0.0455
      4 C5         14.7470    4.1880   15.6350 C.ar      1 HT4        -0.0760
      5 C4         15.6610    3.6250   14.7680 C.ar      1 HT4        -0.0627
      6 C7         16.1610    4.3690   13.6980 C.3       1 HT4        -0.0378
      7 C3         16.0900    2.2900   14.9670 C.ar      1 HT4        -0.0570
      8 C2         15.5890    1.5620   16.0280 C.ar      1 HT4         0.0345
      9 S1         16.1330   -0.1570   16.2950 S.3       1 HT4        -0.1260
     10 H1         14.6220    0.5092   17.8775 H         1 HT4         0.2434
     11 H2         13.5301    3.8651   17.3979 H         1 HT4         0.0505
     12 H3         14.4145    5.2092   15.4878 H         1 HT4         0.0472
     13 H4         16.8710    3.7550   13.1245 H         1 HT4         0.0369
     14 H5         16.6754    5.2626   14.0813 H         1 HT4         0.0369
     15 H6         15.3307    4.6757   13.0449 H         1 HT4         0.0369
     16 H7         16.8081    1.8419   14.2898 H         1 HT4         0.0475
     17 H8         15.6697   -0.5324   17.1078 H         1 HT4         0.1195
@<TRIPOS>BOND
     1    1    2 1  
     2    2    3 ar 
     3    2    8 ar 
     4    3    4 ar 
     5    4    5 ar 
     6    5    6 1  
     7    5    7 ar 
     8    7    8 ar 
     9    8    9 1  
    10    1   10 1  
    11    3   11 1  
    12    4   12 1  
    13    6   13 1  
    14    6   14 1  
    15    6   15 1  
    16    7   16 1  
    17    9   17 1  
@<TRIPOS>SUBSTRUCTURE
     1 HT4         1

