### 
### Created by X-TOOL on Mon Sep 10 21:13:17 2018
### 

@<TRIPOS>MOLECULE
4q9m_ligand
   44    46     1     0     0
SMALL
GAST_HUCK


@<TRIPOS>ATOM
      1 CP3        88.0550   39.6630   57.7340 C.3       1 2ZW        -0.0548
      2 CP1        89.2570   40.1500   56.9230 C.3       1 2ZW        -0.0199
      3 CP2        90.3790   39.1100   56.9730 C.3       1 2ZW        -0.0548
      4 C44        89.6990   41.5430   57.3670 C.ar      1 2ZW        -0.0551
      5 C45        89.1780   42.6740   56.7420 C.ar      1 2ZW        -0.0730
      6 C46        89.5920   43.9480   57.1000 C.ar      1 2ZW        -0.0474
      7 C43        90.6230   41.7250   58.3920 C.ar      1 2ZW        -0.0730
      8 C42        91.0310   42.9940   58.7710 C.ar      1 2ZW        -0.0474
      9 C41        90.5230   44.1200   58.1210 C.ar      1 2ZW         0.0584
     10 N3         91.0240   45.3840   58.5280 N.am      1 2ZW        -0.2430
     11 C3         90.4520   46.6410   58.4240 C.2       1 2ZW         0.2060
     12 O3         89.2880   46.8330   58.0750 O.2       1 2ZW        -0.3935
     13 C25        91.3110   47.7820   58.8400 C.2       1 2ZW         0.0927
     14 C24        90.8760   49.0410   59.0840 C.2       1 2ZW         0.1635
     15 CM         89.6360   49.7960   58.7770 C.3       1 2ZW         0.0166
     16 O23        91.8050   49.6870   59.8100 O.3       1 2ZW        -0.1564
     17 N22        92.8890   48.7910   60.0450 N.2       1 2ZW        -0.1444
     18 C21        92.5820   47.6660   59.4190 C.2       1 2ZW         0.0652
     19 C11        93.7460   46.7800   59.2140 C.ar      1 2ZW         0.0017
     20 C12        94.2880   46.4570   57.9690 C.ar      1 2ZW         0.0476
     21 CL         93.7030   47.2150   56.5180 Cl        1 2ZW        -0.0700
     22 C13        95.3820   45.6090   57.8580 C.ar      1 2ZW        -0.0479
     23 C14        95.9400   45.0640   59.0020 C.ar      1 2ZW        -0.0618
     24 C15        95.4440   45.4070   60.2450 C.ar      1 2ZW        -0.0617
     25 C16        94.4010   46.3140   60.3540 C.ar      1 2ZW        -0.0541
     26 H          87.7629   38.6598   57.3901 H         1 2ZW         0.0251
     27 H          87.2134   40.3576   57.5954 H         1 2ZW         0.0251
     28 H          88.3243   39.6213   58.7997 H         1 2ZW         0.0251
     29 H          88.9384   40.2343   55.8735 H         1 2ZW         0.0428
     30 H          91.2381   39.4691   56.3874 H         1 2ZW         0.0251
     31 H          90.0182   38.1607   56.5503 H         1 2ZW         0.0251
     32 H          90.6871   38.9528   58.0172 H         1 2ZW         0.0251
     33 H          88.4352   42.5558   55.9614 H         1 2ZW         0.0520
     34 H          89.1899   44.8122   56.5837 H         1 2ZW         0.0487
     35 H          91.0302   40.8597   58.9023 H         1 2ZW         0.0520
     36 H          91.7476   43.1127   59.5756 H         1 2ZW         0.0487
     37 H          91.9280   45.3639   58.9550 H         1 2ZW         0.2218
     38 H          89.7200   50.8172   59.1771 H         1 2ZW         0.0477
     39 H          88.7751   49.2908   59.2392 H         1 2ZW         0.0477
     40 H          89.4937   49.8398   57.6871 H         1 2ZW         0.0477
     41 H          95.7958   45.3756   56.8836 H         1 2ZW         0.0622
     42 H          96.7668   44.3675   58.9223 H         1 2ZW         0.0613
     43 H          95.8716   44.9656   61.1379 H         1 2ZW         0.0617
     44 H          94.0922   46.6636   61.3325 H         1 2ZW         0.0618
@<TRIPOS>BOND
     1    1    2 1  
     2    2    3 1  
     3    2    4 1  
     4    4    5 ar 
     5    4    7 ar 
     6    5    6 ar 
     7    6    9 ar 
     8    7    8 ar 
     9    8    9 ar 
    10    9   10 1  
    11   10   11 am 
    12   11   12 2  
    13   11   13 1  
    14   13   14 2  
    15   13   18 1  
    16   14   15 1  
    17   14   16 1  
    18   16   17 1  
    19   17   18 2  
    20   18   19 1  
    21   19   20 ar 
    22   19   25 ar 
    23   20   21 1  
    24   20   22 ar 
    25   22   23 ar 
    26   23   24 ar 
    27   24   25 ar 
    28    1   26 1  
    29    1   27 1  
    30    1   28 1  
    31    2   29 1  
    32    3   30 1  
    33    3   31 1  
    34    3   32 1  
    35    5   33 1  
    36    6   34 1  
    37    7   35 1  
    38    8   36 1  
    39   10   37 1  
    40   15   38 1  
    41   15   39 1  
    42   15   40 1  
    43   22   41 1  
    44   23   42 1  
    45   24   43 1  
    46   25   44 1  
@<TRIPOS>SUBSTRUCTURE
     1 2ZW         1

