### 
### Created by X-TOOL on Mon Sep 10 21:13:18 2018
### 

@<TRIPOS>MOLECULE
4q9o_ligand
   44    46     1     0     0
SMALL
GAST_HUCK


@<TRIPOS>ATOM
      1 CP3        21.5460  -11.4100    6.4150 C.3       1 2ZW        -0.0548
      2 CP1        21.1370  -12.5750    5.5180 C.3       1 2ZW        -0.0199
      3 CP2        19.6160  -12.6600    5.4140 C.3       1 2ZW        -0.0548
      4 C44        21.7820  -13.8770    5.9710 C.ar      1 2ZW        -0.0551
      5 C45        21.2170  -14.6560    6.9740 C.ar      1 2ZW        -0.0730
      6 C46        21.8250  -15.8230    7.4030 C.ar      1 2ZW        -0.0474
      7 C43        22.9820  -14.2970    5.4110 C.ar      1 2ZW        -0.0730
      8 C42        23.6000  -15.4620    5.8330 C.ar      1 2ZW        -0.0474
      9 C41        23.0220  -16.2410    6.8300 C.ar      1 2ZW         0.0584
     10 N3         23.5420  -17.4910    7.2510 N.am      1 2ZW        -0.2430
     11 C3         24.8480  -17.9260    7.2780 C.2       1 2ZW         0.2060
     12 O3         25.8030  -17.2460    6.9030 O.2       1 2ZW        -0.3935
     13 C25        25.0660  -19.2950    7.7940 C.2       1 2ZW         0.0927
     14 C24        26.2840  -19.8180    8.1500 C.2       1 2ZW         0.1635
     15 CM         27.6880  -19.3430    8.0850 C.3       1 2ZW         0.0166
     16 O23        26.1230  -21.1060    8.5030 O.3       1 2ZW        -0.1564
     17 N22        24.7590  -21.4600    8.3340 N.2       1 2ZW        -0.1444
     18 C21        24.1390  -20.3780    7.9040 C.2       1 2ZW         0.0652
     19 C11        22.6880  -20.5570    7.7970 C.ar      1 2ZW         0.0017
     20 C12        22.1390  -20.8630    6.5470 C.ar      1 2ZW         0.0476
     21 CL         23.1440  -20.9390    5.1300 Cl        1 2ZW        -0.0700
     22 C13        20.7680  -21.0040    6.3760 C.ar      1 2ZW        -0.0479
     23 C14        19.9220  -20.7800    7.4490 C.ar      1 2ZW        -0.0618
     24 C15        20.4420  -20.4130    8.6770 C.ar      1 2ZW        -0.0617
     25 C16        21.8130  -20.2980    8.8510 C.ar      1 2ZW        -0.0541
     26 H          21.0635  -10.4873    6.0604 H         1 2ZW         0.0251
     27 H          22.6387  -11.2882    6.3824 H         1 2ZW         0.0251
     28 H          21.2305  -11.6148    7.4487 H         1 2ZW         0.0251
     29 H          21.5186  -12.3636    4.5082 H         1 2ZW         0.0428
     30 H          19.3395  -13.5038    4.7648 H         1 2ZW         0.0251
     31 H          19.2249  -11.7250    4.9865 H         1 2ZW         0.0251
     32 H          19.1879  -12.8125    6.4157 H         1 2ZW         0.0251
     33 H          20.2836  -14.3439    7.4283 H         1 2ZW         0.0520
     34 H          21.3670  -16.4135    8.1882 H         1 2ZW         0.0487
     35 H          23.4424  -13.7024    4.6302 H         1 2ZW         0.0520
     36 H          24.5382  -15.7683    5.3845 H         1 2ZW         0.0487
     37 H          22.8636  -18.1507    7.5744 H         1 2ZW         0.2218
     38 H          28.3557  -20.1154    8.4944 H         1 2ZW         0.0477
     39 H          27.7905  -18.4199    8.6744 H         1 2ZW         0.0477
     40 H          27.9589  -19.1416    7.0381 H         1 2ZW         0.0477
     41 H          20.3637  -21.2870    5.4108 H         1 2ZW         0.0622
     42 H          18.8508  -20.8924    7.3265 H         1 2ZW         0.0613
     43 H          19.7745  -20.2143    9.5076 H         1 2ZW         0.0617
     44 H          22.2084  -20.0037    9.8165 H         1 2ZW         0.0618
@<TRIPOS>BOND
     1    1    2 1  
     2    2    3 1  
     3    2    4 1  
     4    4    5 ar 
     5    4    7 ar 
     6    5    6 ar 
     7    6    9 ar 
     8    7    8 ar 
     9    8    9 ar 
    10    9   10 1  
    11   10   11 am 
    12   11   12 2  
    13   11   13 1  
    14   13   14 2  
    15   13   18 1  
    16   14   15 1  
    17   14   16 1  
    18   16   17 1  
    19   17   18 2  
    20   18   19 1  
    21   19   20 ar 
    22   19   25 ar 
    23   20   21 1  
    24   20   22 ar 
    25   22   23 ar 
    26   23   24 ar 
    27   24   25 ar 
    28    1   26 1  
    29    1   27 1  
    30    1   28 1  
    31    2   29 1  
    32    3   30 1  
    33    3   31 1  
    34    3   32 1  
    35    5   33 1  
    36    6   34 1  
    37    7   35 1  
    38    8   36 1  
    39   10   37 1  
    40   15   38 1  
    41   15   39 1  
    42   15   40 1  
    43   22   41 1  
    44   23   42 1  
    45   24   43 1  
    46   25   44 1  
@<TRIPOS>SUBSTRUCTURE
     1 2ZW         1

