### 
### Created by X-TOOL on Mon Sep 10 21:13:17 2018
### 

@<TRIPOS>MOLECULE
4q9s_ligand
   24    26     1     0     0
SMALL
GAST_HUCK


@<TRIPOS>ATOM
      1 C9          8.9800    2.5430   26.2910 C.ar      1 30G        -0.0835
      2 C13         8.7430    1.2690   26.7600 C.ar      1 30G        -0.0831
      3 C4          7.9610    3.2870   25.7220 C.ar      1 30G        -0.0473
      4 C8          7.4820    0.7310   26.6500 C.ar      1 30G        -0.0427
      5 C1          6.6790    2.7650   25.6090 C.ar      1 30G         0.0961
      6 C3          6.4720    1.4780   26.0850 C.ar      1 30G         0.1176
      7 C5          4.3880    3.0130   25.2950 C.2       1 30G         0.1463
      8 C12         4.5980    5.2410   23.7040 C.2       1 30G         0.2268
      9 C10         4.1940    1.8130   26.1080 C.3       1 30G         0.1363
     10 C6          5.8450    4.7310   24.3670 C.3       1 30G         0.1382
     11 N14         3.4390    4.5540   23.9420 N.am      1 30G        -0.2086
     12 N2          5.6220    3.4610   25.0580 N.pl3     1 30G        -0.2308
     13 N11         3.3560    3.4620   24.7350 N.2       1 30G        -0.2217
     14 O15         4.6210    6.2290   22.9880 O.2       1 30G        -0.3888
     15 O7          5.2380    0.8520   25.9960 O.3       1 30G        -0.3052
     16 H           9.9747    2.9668   26.3685 H         1 30G         0.0492
     17 H           9.5441    0.6954   27.2120 H         1 30G         0.0485
     18 H           8.1658    4.2882   25.3606 H         1 30G         0.0495
     19 H           7.2844   -0.2738   27.0054 H         1 30G         0.0504
     20 H           3.2526    1.3359   25.7981 H         1 30G         0.0826
     21 H           4.1202    2.1196   27.1618 H         1 30G         0.0826
     22 H           6.1880    5.4772   25.0988 H         1 30G         0.0811
     23 H           6.6203    4.5860   23.6002 H         1 30G         0.0811
     24 H           2.6018    4.8795   23.5025 H         1 30G         0.2254
@<TRIPOS>BOND
     1    1    2 ar 
     2    3    1 ar 
     3    4    2 ar 
     4    5    3 ar 
     5    6    4 ar 
     6    5    6 ar 
     7   12    5 1  
     8    6   15 1  
     9    7    9 1  
    10   12    7 1  
    11    7   13 2  
    12   10    8 1  
    13    8   11 am 
    14    8   14 2  
    15    9   15 1  
    16   10   12 1  
    17   11   13 1  
    18    1   16 1  
    19    2   17 1  
    20    3   18 1  
    21    4   19 1  
    22    9   20 1  
    23    9   21 1  
    24   10   22 1  
    25   10   23 1  
    26   11   24 1  
@<TRIPOS>SUBSTRUCTURE
     1 30G         1

