### 
### Created by X-TOOL on Mon Sep 10 21:13:21 2018
### 

@<TRIPOS>MOLECULE
4q9y_ligand
   16    16     1     0     0
SMALL
GAST_HUCK


@<TRIPOS>ATOM
      1 C7         15.9600    4.5290   13.8660 C.3       1 M3T        -0.0327
      2 C3         15.5160    3.7140   14.9220 C.ar      1 M3T        -0.0521
      3 C2         15.9760    2.4060   15.0330 C.ar      1 M3T        -0.0492
      4 C1         15.5290    1.5880   16.0940 C.ar      1 M3T         0.0055
      5 S1         16.1450   -0.1610   16.2430 S.3       1 M3T        -0.1207
      6 C6         14.6510    2.0770   17.0050 C.ar      1 M3T        -0.0570
      7 C5         14.1900    3.3910   16.8930 C.ar      1 M3T        -0.0744
      8 C4         14.6350    4.2050   15.8360 C.ar      1 M3T        -0.0675
      9 H1         16.6618    3.9628   13.2360 H         1 M3T         0.0390
     10 H2         16.4674    5.4151   14.2750 H         1 M3T         0.0390
     11 H3         15.0982    4.8467   13.2607 H         1 M3T         0.0390
     12 H4         16.6775    2.0145   14.3052 H         1 M3T         0.0502
     13 H5         15.7267   -0.5957   17.0506 H         1 M3T         0.1221
     14 H6         14.3075    1.4489   17.8190 H         1 M3T         0.0508
     15 H7         13.4891    3.7833   17.6210 H         1 M3T         0.0582
     16 H8         14.2761    5.2242   15.7491 H         1 M3T         0.0499
@<TRIPOS>BOND
     1    1    2 1  
     2    2    3 ar 
     3    2    8 ar 
     4    3    4 ar 
     5    4    5 1  
     6    4    6 ar 
     7    6    7 ar 
     8    7    8 ar 
     9    1    9 1  
    10    1   10 1  
    11    1   11 1  
    12    3   12 1  
    13    5   13 1  
    14    6   14 1  
    15    7   15 1  
    16    8   16 1  
@<TRIPOS>SUBSTRUCTURE
     1 M3T         1

