### 
### Created by X-TOOL on Mon Sep 10 21:13:19 2018
### 

@<TRIPOS>MOLECULE
4q9z_ligand
   42    45     1     0     0
SMALL
GAST_HUCK


@<TRIPOS>ATOM
      1 C1         25.0540   -7.4390  -10.4730 C.3       1 PZW        -0.0425
      2 C2         23.9890   -7.1070   -9.4570 C.ar      1 PZW        -0.0477
      3 C3         24.2660   -6.2110   -8.4360 C.ar      1 PZW        -0.0516
      4 C4         23.2870   -5.8900   -7.4900 C.ar      1 PZW         0.0980
      5 O5         23.5870   -5.0390   -6.5000 O.3       1 PZW        -0.3152
      6 C6         22.9400   -5.1520   -5.2350 C.3       1 PZW         0.1332
      7 C7         21.4680   -5.5280   -5.4020 C.2       1 PZW         0.1444
      8 N8         20.6260   -5.2330   -4.4770 N.2       1 PZW        -0.2227
      9 N9         19.2810   -5.5790   -4.5610 N.am      1 PZW        -0.2087
     10 C10        18.7490   -6.0690   -5.7040 C.2       1 PZW         0.2293
     11 O11        17.5750   -6.3640   -5.7440 O.2       1 PZW        -0.3886
     12 C12        19.6070   -6.2110   -6.9530 C.3       1 PZW         0.1449
     13 C13        19.2720   -5.0830   -7.9290 C.3       1 PZW        -0.0207
     14 N14        21.0470   -6.1420   -6.5980 N.pl3     1 PZW        -0.2348
     15 C15        22.0420   -6.4890   -7.5600 C.ar      1 PZW         0.0784
     16 C16        21.7480   -7.3850   -8.5970 C.ar      1 PZW        -0.0358
     17 C17        22.7370   -7.7060   -9.5420 C.ar      1 PZW         0.0192
     18 N18        22.4540   -8.6100  -10.5950 N.pl3     1 PZW        -0.3222
     19 C19        21.3540   -9.5460  -10.4750 C.3       1 PZW         0.1120
     20 C20        21.4010  -10.7490  -11.5350 C.3       1 PZW        -0.0062
     21 N21        21.3170  -11.5510  -10.4100 N.4       1 PZW         0.2304
     22 C22        21.5770  -10.6820   -9.3650 C.3       1 PZW        -0.0062
     23 H          25.9686   -6.8723  -10.2440 H         1 PZW         0.0341
     24 H          24.6982   -7.1700  -11.4785 H         1 PZW         0.0341
     25 H          25.2718   -8.5166  -10.4372 H         1 PZW         0.0341
     26 H          25.2478   -5.7562   -8.3704 H         1 PZW         0.0417
     27 H          23.0072   -4.1879   -4.7096 H         1 PZW         0.0821
     28 H          23.4442   -5.9289   -4.6416 H         1 PZW         0.0821
     29 H          18.6950   -5.4629   -3.7591 H         1 PZW         0.2252
     30 H          19.3970   -7.1804   -7.4285 H         1 PZW         0.0842
     31 H          18.2054   -5.1319   -8.1937 H         1 PZW         0.0280
     32 H          19.8808   -5.1922   -8.8386 H         1 PZW         0.0280
     33 H          19.4886   -4.1133   -7.4570 H         1 PZW         0.0280
     34 H          20.7616   -7.8285   -8.6696 H         1 PZW         0.0379
     35 H          23.0313   -8.6022  -11.4480 H         1 PZW         0.1707
     36 H          20.3994   -9.0030  -10.4139 H         1 PZW         0.0649
     37 H          22.3357  -10.8366  -12.1083 H         1 PZW         0.0838
     38 H          20.5432  -10.8072  -12.2211 H         1 PZW         0.0838
     39 H          22.0032  -12.2886  -10.4428 H         1 PZW         0.2015
     40 H          20.3964  -11.9521  -10.3228 H         1 PZW         0.2015
     41 H          20.8412  -10.6938   -8.5474 H         1 PZW         0.0838
     42 H          22.5923  -10.7390   -8.9455 H         1 PZW         0.0838
@<TRIPOS>BOND
     1    1    2 1  
     2    2    3 ar 
     3    2   17 ar 
     4    3    4 ar 
     5    4    5 1  
     6    4   15 ar 
     7    5    6 1  
     8    6    7 1  
     9    7    8 2  
    10    7   14 1  
    11    8    9 1  
    12    9   10 am 
    13   10   11 2  
    14   10   12 1  
    15   12   13 1  
    16   12   14 1  
    17   14   15 1  
    18   15   16 ar 
    19   16   17 ar 
    20   17   18 1  
    21   18   19 1  
    22   19   20 1  
    23   19   22 1  
    24   20   21 1  
    25   21   22 1  
    26    1   23 1  
    27    1   24 1  
    28    1   25 1  
    29    3   26 1  
    30    6   27 1  
    31    6   28 1  
    32    9   29 1  
    33   12   30 1  
    34   13   31 1  
    35   13   32 1  
    36   13   33 1  
    37   16   34 1  
    38   18   35 1  
    39   19   36 1  
    40   20   37 1  
    41   20   38 1  
    42   21   39 1  
    43   21   40 1  
    44   22   41 1  
    45   22   42 1  
@<TRIPOS>SUBSTRUCTURE
     1 PZW         1

