### 
### Created by X-TOOL on Mon Sep 10 21:13:18 2018
### 

@<TRIPOS>MOLECULE
4qaa_ligand
   52    53     1     0     0
SMALL
GAST_HUCK


@<TRIPOS>ATOM
      1 C01        -6.4260  -15.3570   61.9750 C.3       1 KK1        -0.0653
      2 C02        -6.2970  -13.8120   61.9340 C.3       1 KK1        -0.0559
      3 C03        -6.8990  -13.1830   60.6480 C.3       1 KK1        -0.0533
      4 C04        -6.5860  -11.6550   60.4990 C.3       1 KK1        -0.0531
      5 C05        -6.1080  -11.2430   59.0390 C.3       1 KK1        -0.0530
      6 C06        -7.0690  -11.7470   57.8810 C.3       1 KK1        -0.0512
      7 C07        -6.4630  -11.8540   56.3910 C.3       1 KK1        -0.0326
      8 C08        -7.4490  -11.3310   55.2210 C.3       1 KK1         0.0288
      9 N09        -6.9870  -11.5500   53.7790 N.pl3     1 KK1        -0.3048
     10 C10        -6.1030  -10.6660   53.0430 C.ar      1 KK1         0.1091
     11 C11        -6.5170  -10.0970   51.7470 C.ar      1 KK1        -0.0052
     12 C12        -5.5760   -9.2420   51.0550 C.ar      1 KK1         0.0311
     13 N13        -4.3600   -8.9930   51.6160 N.ar      1 KK1        -0.2749
     14 C14        -4.0240   -9.5550   52.8200 C.ar      1 KK1         0.1651
     15 N15        -2.7360   -9.2720   53.3680 N.pl3     1 KK1        -0.3072
     16 N16        -4.8510  -10.3870   53.5750 N.ar      1 KK1        -0.2472
     17 C17        -5.8170   -8.5090   49.6420 C.ar      1 KK1        -0.0110
     18 C18        -6.2980   -9.1850   48.4940 C.ar      1 KK1        -0.0564
     19 C19        -6.4910   -8.5470   47.1910 C.ar      1 KK1        -0.0276
     20 C20        -6.1890   -7.1810   47.0020 C.ar      1 KK1         0.0961
     21 O21        -6.3740   -6.5730   45.7810 O.3       1 KK1        -0.3178
     22 C22        -5.7520   -5.2570   45.5790 C.3       1 KK1         0.0607
     23 C23        -5.6890   -6.4790   48.1150 C.ar      1 KK1        -0.0276
     24 C24        -5.5150   -7.1420   49.3780 C.ar      1 KK1        -0.0564
     25 H          -5.9824  -15.7373   62.9070 H         1 KK1         0.0230
     26 H          -5.8982  -15.7920   61.1135 H         1 KK1         0.0230
     27 H          -7.4888  -15.6375   61.9337 H         1 KK1         0.0230
     28 H          -5.2303  -13.5485   61.9860 H         1 KK1         0.0263
     29 H          -6.8209  -13.3939   62.8062 H         1 KK1         0.0263
     30 H          -7.9908  -13.3146   60.6733 H         1 KK1         0.0265
     31 H          -6.4862  -13.7104   59.7754 H         1 KK1         0.0265
     32 H          -5.7913  -11.3915   61.2125 H         1 KK1         0.0265
     33 H          -7.4975  -11.0881   60.7395 H         1 KK1         0.0265
     34 H          -5.1081  -11.6688   58.8690 H         1 KK1         0.0265
     35 H          -6.0524  -10.1455   58.9897 H         1 KK1         0.0265
     36 H          -7.9223  -11.0541   57.8386 H         1 KK1         0.0266
     37 H          -7.4241  -12.7492   58.1629 H         1 KK1         0.0266
     38 H          -6.2258  -12.9096   56.1926 H         1 KK1         0.0285
     39 H          -5.5397  -11.2573   56.3530 H         1 KK1         0.0285
     40 H          -7.5907  -10.2496   55.3642 H         1 KK1         0.0522
     41 H          -8.4130  -11.8465   55.3433 H         1 KK1         0.0522
     42 H          -7.3304  -12.3906   53.2929 H         1 KK1         0.1838
     43 H          -7.4929  -10.3117   51.3268 H         1 KK1         0.0545
     44 H          -2.0810   -8.6637   52.8563 H         1 KK1         0.1822
     45 H          -2.4621   -9.6762   54.2749 H         1 KK1         0.1822
     46 H          -6.5376  -10.2382   48.5860 H         1 KK1         0.0630
     47 H          -6.8707   -9.1309   46.3604 H         1 KK1         0.0557
     48 H          -5.9816   -4.8945   44.5661 H         1 KK1         0.0580
     49 H          -4.6620   -5.3443   45.6988 H         1 KK1         0.0580
     50 H          -6.1468   -4.5471   46.3207 H         1 KK1         0.0580
     51 H          -5.4332   -5.4300   48.0186 H         1 KK1         0.0557
     52 H          -5.1211   -6.5529   50.1983 H         1 KK1         0.0630
@<TRIPOS>BOND
     1    1    2 1  
     2    2    3 1  
     3    3    4 1  
     4    4    5 1  
     5    5    6 1  
     6    6    7 1  
     7    7    8 1  
     8    8    9 1  
     9    9   10 1  
    10   10   11 ar 
    11   10   16 ar 
    12   11   12 ar 
    13   12   13 ar 
    14   12   17 1  
    15   13   14 ar 
    16   14   15 1  
    17   14   16 ar 
    18   17   18 ar 
    19   17   24 ar 
    20   18   19 ar 
    21   19   20 ar 
    22   20   21 1  
    23   20   23 ar 
    24   21   22 1  
    25   23   24 ar 
    26    1   25 1  
    27    1   26 1  
    28    1   27 1  
    29    2   28 1  
    30    2   29 1  
    31    3   30 1  
    32    3   31 1  
    33    4   32 1  
    34    4   33 1  
    35    5   34 1  
    36    5   35 1  
    37    6   36 1  
    38    6   37 1  
    39    7   38 1  
    40    7   39 1  
    41    8   40 1  
    42    8   41 1  
    43    9   42 1  
    44   11   43 1  
    45   15   44 1  
    46   15   45 1  
    47   18   46 1  
    48   19   47 1  
    49   22   48 1  
    50   22   49 1  
    51   22   50 1  
    52   23   51 1  
    53   24   52 1  
@<TRIPOS>SUBSTRUCTURE
     1 KK1         1

