### 
### Created by X-TOOL on Mon Sep 10 21:13:16 2018
### 

@<TRIPOS>MOLECULE
4qab_ligand
   38    40     1     0     0
SMALL
GAST_HUCK


@<TRIPOS>ATOM
      1 C1        -31.4430   -5.4130  -11.1710 C.3       1 KK2         0.0555
      2 C2        -30.6890   -5.9420   -9.9590 C.3       1 KK2         0.0682
      3 O1        -29.4520   -5.3130   -9.8860 O.3       1 KK2        -0.3757
      4 C3        -29.5590   -3.9380   -9.6810 C.3       1 KK2         0.0682
      5 C4        -30.4250   -3.2670  -10.7930 C.3       1 KK2         0.0555
      6 N2        -31.6700   -3.9960  -11.0630 N.pl3     1 KK2        -0.2848
      7 C6        -33.0350   -3.5560  -10.9430 C.ar      1 KK2         0.1207
      8 C5        -34.1410   -4.4450  -10.7800 C.ar      1 KK2         0.0072
      9 N1        -33.2270   -2.1970  -10.9910 N.ar      1 KK2        -0.2388
     10 C7        -34.5410   -1.7860  -10.8690 C.ar      1 KK2         0.1728
     11 N4        -34.7590   -0.4490  -10.8950 N.pl3     1 KK2        -0.3060
     12 N3        -35.6190   -2.5570  -10.7250 N.ar      1 KK2        -0.2633
     13 C8        -35.4200   -3.8870  -10.6870 C.ar      1 KK2         0.0574
     14 C9        -36.6650   -4.6220  -10.5060 C.ar      1 KK2         0.0258
     15 C10       -37.2170   -4.8510   -9.2400 C.ar      1 KK2        -0.0215
     16 C11       -38.4370   -5.5140   -9.0690 C.ar      1 KK2        -0.0304
     17 C12       -39.1580   -5.9480  -10.1730 C.ar      1 KK2         0.0461
     18 C13       -40.4710   -6.6570   -9.9650 C.3       1 KK2         0.3739
     19 F1        -41.2210   -6.1170   -8.9800 F         1 KK2        -0.2237
     20 F2        -40.3570   -7.9610   -9.6280 F         1 KK2        -0.2237
     21 F3        -41.2570   -6.7020  -11.0760 F         1 KK2        -0.2237
     22 C14       -38.6460   -5.7130  -11.4500 C.ar      1 KK2        -0.0304
     23 C15       -37.4270   -5.0480  -11.6120 C.ar      1 KK2        -0.0215
     24 H         -32.4126   -5.9275  -11.2434 H         1 KK2         0.0548
     25 H         -30.8526   -5.6140  -12.0771 H         1 KK2         0.0548
     26 H         -30.5452   -7.0279  -10.0592 H         1 KK2         0.0580
     27 H         -31.2645   -5.7310   -9.0456 H         1 KK2         0.0580
     28 H         -28.5527   -3.4940   -9.6932 H         1 KK2         0.0580
     29 H         -30.0280   -3.7565   -8.7027 H         1 KK2         0.0580
     30 H         -29.8347   -3.2245  -11.7202 H         1 KK2         0.0548
     31 H         -30.6784   -2.2457  -10.4725 H         1 KK2         0.0548
     32 H         -33.9937   -5.5178  -10.7300 H         1 KK2         0.0617
     33 H         -33.9666    0.2000  -11.0039 H         1 KK2         0.1823
     34 H         -35.7171   -0.0816  -10.8059 H         1 KK2         0.1823
     35 H         -36.6818   -4.5033   -8.3638 H         1 KK2         0.0724
     36 H         -38.8208   -5.6895   -8.0705 H         1 KK2         0.0848
     37 H         -39.1969   -6.0481  -12.3214 H         1 KK2         0.0848
     38 H         -37.0589   -4.8553  -12.6132 H         1 KK2         0.0724
@<TRIPOS>BOND
     1    1    2 1  
     2    1    6 1  
     3    2    3 1  
     4    3    4 1  
     5    4    5 1  
     6    5    6 1  
     7    6    7 1  
     8    7    8 ar 
     9    7    9 ar 
    10    8   13 ar 
    11    9   10 ar 
    12   10   11 1  
    13   10   12 ar 
    14   12   13 ar 
    15   13   14 1  
    16   14   15 ar 
    17   14   23 ar 
    18   15   16 ar 
    19   16   17 ar 
    20   17   18 1  
    21   17   22 ar 
    22   18   19 1  
    23   18   20 1  
    24   18   21 1  
    25   22   23 ar 
    26    1   24 1  
    27    1   25 1  
    28    2   26 1  
    29    2   27 1  
    30    4   28 1  
    31    4   29 1  
    32    5   30 1  
    33    5   31 1  
    34    8   32 1  
    35   11   33 1  
    36   11   34 1  
    37   15   35 1  
    38   16   36 1  
    39   22   37 1  
    40   23   38 1  
@<TRIPOS>SUBSTRUCTURE
     1 KK2         1

