### 
### Created by X-TOOL on Mon Sep 10 21:13:18 2018
### 

@<TRIPOS>MOLECULE
4qag_ligand
   24    25     1     0     0
SMALL
GAST_HUCK


@<TRIPOS>ATOM
      1 C1          5.8230   29.1990    3.9310 C.ar      1 F95         0.0169
      2 C2          6.9370   28.3580    3.9400 C.ar      1 F95         0.1640
      3 C3          8.2220   28.9070    4.0410 C.ar      1 F95         0.1579
      4 C4          8.3700   30.2940    4.1510 C.ar      1 F95         0.1165
      5 C5          7.2670   31.1530    4.1500 C.ar      1 F95        -0.0432
      6 C6          5.9800   30.6090    4.0380 C.ar      1 F95        -0.0699
      7 O1          9.3270   28.1240    4.0630 O.3       1 F95        -0.3401
      8 O2          9.6020   30.8200    4.2450 O.3       1 F95        -0.3355
      9 O3          6.7630   27.0020    3.8320 O.3       1 F95        -0.2204
     10 C7          5.5560   26.3450    3.7160 C.2       1 F95         0.2422
     11 C8          4.3510   27.2670    3.7200 C.2       1 F95         0.0083
     12 C9          4.4940   28.6120    3.8200 C.2       1 F95        -0.0179
     13 O4          5.4450   25.1290    3.6190 O.2       1 F95        -0.3887
     14 C10         3.2890   29.5600    3.8230 C.3       1 F95         0.0389
     15 C11         3.1540   30.4340    5.0770 C.2       1 F95         0.0495
     16 O5          3.2630   29.8670    6.1880 O.co2     1 F95        -0.5657
     17 O6          2.9550   31.6560    4.8940 O.co2     1 F95        -0.5657
     18 H           7.4051   32.2248    4.2347 H         1 F95         0.0465
     19 H           5.1113   31.2574    4.0330 H         1 F95         0.0523
     20 H           9.7870   28.2504    4.8846 H         1 F95         0.2403
     21 H          10.2453   30.1210    4.2332 H         1 F95         0.2463
     22 H           3.3521   26.8406    3.6411 H         1 F95         0.0417
     23 H           2.3767   28.9524    3.7309 H         1 F95         0.0629
     24 H           3.3761   30.2253    2.9513 H         1 F95         0.0629
@<TRIPOS>BOND
     1    1    2 ar 
     2    1    6 ar 
     3    1   12 1  
     4    2    3 ar 
     5    2    9 1  
     6    3    4 ar 
     7    3    7 1  
     8    4    5 ar 
     9    4    8 1  
    10    5    6 ar 
    11    9   10 1  
    12   10   11 1  
    13   10   13 2  
    14   11   12 2  
    15   12   14 1  
    16   14   15 1  
    17   15   16 ar 
    18   15   17 ar 
    19    5   18 1  
    20    6   19 1  
    21    7   20 1  
    22    8   21 1  
    23   11   22 1  
    24   14   23 1  
    25   14   24 1  
@<TRIPOS>SUBSTRUCTURE
     1 F95         1

