### 
### Created by X-TOOL on Mon Sep 10 21:13:20 2018
### 

@<TRIPOS>MOLECULE
4qb3_ligand
   43    45     1     0     0
SMALL
GAST_HUCK


@<TRIPOS>ATOM
      1 C2         24.5750   51.2090   -4.4730 C.2       1 30M         0.0748
      2 C3         23.2250   51.7780   -4.6380 C.3       1 30M         0.0339
      3 C4         22.8960   51.8200   -6.1140 C.3       1 30M         0.0444
      4 C6         24.3100   49.8260   -6.4940 C.2       1 30M         0.1691
      5 O20        22.3350   47.7410    0.2750 O.2       1 30M        -0.3974
      6 C19        23.4440   48.0850    0.7810 C.2       1 30M         0.1729
      7 C22        24.3390   47.0790    1.4210 C.3       1 30M         0.0256
      8 N18        23.8270   49.3460    0.7610 N.am      1 30M        -0.2872
      9 C17        23.0100   50.4280    0.2500 C.3       1 30M         0.0309
     10 C16        23.4960   50.9320   -1.0950 C.3       1 30M        -0.0303
     11 C15        24.8810   51.5060   -1.0490 C.3       1 30M        -0.0243
     12 C14        25.3110   52.2540   -2.2970 C.3       1 30M         0.0550
     13 N1         25.4310   51.3830   -3.4520 N.pl3     1 30M        -0.2494
     14 C7         25.0970   50.3100   -5.3480 C.2       1 30M         0.0481
     15 O21        24.6010   48.8050   -7.1400 O.2       1 30M        -0.4099
     16 N5         23.1880   50.5110   -6.7400 N.am      1 30M        -0.2914
     17 C8         26.3600   49.8950   -4.8590 C.ar      1 30M        -0.0175
     18 C9         26.5550   50.5780   -3.6520 C.ar      1 30M         0.0672
     19 C10        27.6840   50.4340   -2.8640 C.ar      1 30M        -0.0454
     20 C11        28.6500   49.5400   -3.2710 C.ar      1 30M        -0.0788
     21 C12        28.5060   48.8200   -4.4800 C.ar      1 30M        -0.0817
     22 C13        27.3780   48.9840   -5.2860 C.ar      1 30M        -0.0776
     23 H1         23.1989   52.7965   -4.2234 H         1 30M         0.0523
     24 H2         22.4911   51.1493   -4.1125 H         1 30M         0.0523
     25 H3         23.5028   52.5984   -6.5996 H         1 30M         0.0548
     26 H4         21.8288   52.0539   -6.2419 H         1 30M         0.0548
     27 H5         25.2447   47.5791    1.7947 H         1 30M         0.0467
     28 H6         24.6207   46.3154    0.6810 H         1 30M         0.0467
     29 H7         23.8121   46.6003    2.2595 H         1 30M         0.0467
     30 H8         24.7337   49.5688    1.1191 H         1 30M         0.1850
     31 H9         23.0349   51.2599    0.9692 H         1 30M         0.0520
     32 H10        21.9761   50.0689    0.1403 H         1 30M         0.0520
     33 H11        22.8057   51.7137   -1.4450 H         1 30M         0.0285
     34 H12        23.4897   50.0922   -1.8055 H         1 30M         0.0285
     35 H13        25.5874   50.6784   -0.8878 H         1 30M         0.0292
     36 H14        24.9327   52.2030   -0.1996 H         1 30M         0.0292
     37 H15        26.2867   52.7253   -2.1075 H         1 30M         0.0603
     38 H16        24.5647   53.0315   -2.5173 H         1 30M         0.0603
     39 H17        22.5185   50.1226   -7.3732 H         1 30M         0.1830
     40 H18        27.8046   51.0083   -1.9526 H         1 30M         0.0538
     41 H19        29.5305   49.3866   -2.6577 H         1 30M         0.0509
     42 H20        29.2840   48.1298   -4.7856 H         1 30M         0.0509
     43 H21        27.2754   48.4338   -6.2143 H         1 30M         0.0511
@<TRIPOS>BOND
     1    1    2 1  
     2   13    1 1  
     3    1   14 2  
     4    2    3 1  
     5    3   16 1  
     6   14    4 1  
     7    4   15 2  
     8    4   16 am 
     9    6    5 2  
    10    6    7 1  
    11    8    6 am 
    12    9    8 1  
    13   10    9 1  
    14   11   10 1  
    15   12   11 1  
    16   12   13 1  
    17   13   18 1  
    18   14   17 1  
    19   17   18 ar 
    20   17   22 ar 
    21   18   19 ar 
    22   19   20 ar 
    23   20   21 ar 
    24   21   22 ar 
    25    2   23 1  
    26    2   24 1  
    27    3   25 1  
    28    3   26 1  
    29    7   27 1  
    30    7   28 1  
    31    7   29 1  
    32    8   30 1  
    33    9   31 1  
    34    9   32 1  
    35   10   33 1  
    36   10   34 1  
    37   11   35 1  
    38   11   36 1  
    39   12   37 1  
    40   12   38 1  
    41   16   39 1  
    42   19   40 1  
    43   20   41 1  
    44   21   42 1  
    45   22   43 1  
@<TRIPOS>SUBSTRUCTURE
     1 30M         1

