### 
### Created by X-TOOL on Mon Sep 10 21:13:18 2018
### 

@<TRIPOS>MOLECULE
4qdk_ligand
   46    48     1     0     0
SMALL
GAST_HUCK


@<TRIPOS>ATOM
      1 N          21.6290    2.5200   15.5870 N.4       1 SAH         0.2327
      2 CA         22.6840    3.5180   15.7340 C.3       1 SAH         0.0291
      3 CB         22.5260    4.6500   14.7250 C.3       1 SAH         0.0114
      4 CG         21.1720    5.3510   14.7360 C.3       1 SAH         0.0005
      5 SD         21.1490    6.8040   13.6510 S.3       1 SAH        -0.1578
      6 C          22.6790    4.0860   17.1440 C.2       1 SAH         0.0844
      7 O          23.6970    4.5820   17.6280 O.co2     1 SAH        -0.5643
      8 OXT        21.6550    4.0580   17.8270 O.co2     1 SAH        -0.5643
      9 C5'        20.1710    5.9130   12.4180 C.3       1 SAH         0.0226
     10 C4'        21.0460    5.1930   11.3990 C.3       1 SAH         0.0995
     11 O4'        20.2540    4.3140   10.6250 O.3       1 SAH        -0.3383
     12 C3'        21.7330    6.1370   10.4190 C.3       1 SAH         0.1132
     13 O3'        23.1250    5.9310   10.5000 O.3       1 SAH        -0.3864
     14 C2'        21.2350    5.7080    9.0510 C.3       1 SAH         0.1385
     15 O2'        22.2500    5.7500    8.0750 O.3       1 SAH        -0.3836
     16 C1'        20.7690    4.2860    9.3130 C.3       1 SAH         0.2009
     17 N9         19.7490    3.8100    8.3640 N.pl3     1 SAH        -0.1919
     18 C8         18.6550    4.4920    7.9020 C.2       1 SAH         0.1123
     19 N7         17.9810    3.6840    7.0510 N.2       1 SAH        -0.2958
     20 C5         18.6300    2.4990    6.9690 C.ar      1 SAH         0.1045
     21 C6         18.3780    1.3350    6.2540 C.ar      1 SAH         0.1298
     22 N6         17.3160    1.2500    5.4570 N.pl3     1 SAH        -0.3152
     23 N1         19.2420    0.2670    6.3690 N.ar      1 SAH        -0.2698
     24 C2         20.3450    0.3540    7.1970 C.ar      1 SAH         0.0533
     25 N3         20.5890    1.5140    7.9020 N.ar      1 SAH        -0.2714
     26 C4         19.7440    2.5680    7.7890 C.ar      1 SAH         0.1613
     27 H          21.6432    2.1518   14.6488 H         1 SAH         0.2010
     28 H          20.7342    2.9480   15.7664 H         1 SAH         0.2010
     29 H          21.7810    1.7710   16.2442 H         1 SAH         0.2010
     30 H          23.6518    3.0263   15.5561 H         1 SAH         0.1024
     31 H          22.6842    4.2330   13.7195 H         1 SAH         0.0347
     32 H          23.2997    5.4030   14.9356 H         1 SAH         0.0347
     33 H          20.9468    5.6719   15.7637 H         1 SAH         0.0379
     34 H          20.4025    4.6422   14.3962 H         1 SAH         0.0379
     35 H          19.5290    6.6321   11.8882 H         1 SAH         0.0402
     36 H          19.5432    5.1708   12.9328 H         1 SAH         0.0402
     37 H          21.8125    4.6211   11.9424 H         1 SAH         0.0632
     38 H          21.4831    7.1881   10.6258 H         1 SAH         0.0647
     39 H          23.3241    5.0295   10.2761 H         1 SAH         0.2100
     40 H          20.3980    6.3421    8.7233 H         1 SAH         0.0676
     41 H          22.9556    5.1663    8.3282 H         1 SAH         0.2101
     42 H          21.6309    3.6045    9.2614 H         1 SAH         0.0996
     43 H          18.3756    5.5091    8.1727 H         1 SAH         0.1349
     44 H          17.1357    0.3836    4.9300 H         1 SAH         0.1820
     45 H          16.6742    2.0506    5.3670 H         1 SAH         0.1820
     46 H          21.0187   -0.4898    7.2924 H         1 SAH         0.0996
@<TRIPOS>BOND
     1    1    2 1  
     2    2    3 1  
     3    2    6 1  
     4    3    4 1  
     5    4    5 1  
     6    5    9 1  
     7    6    7 ar 
     8    6    8 ar 
     9    9   10 1  
    10   10   11 1  
    11   10   12 1  
    12   11   16 1  
    13   12   13 1  
    14   12   14 1  
    15   14   15 1  
    16   14   16 1  
    17   16   17 1  
    18   17   18 1  
    19   17   26 1  
    20   18   19 2  
    21   19   20 1  
    22   20   21 ar 
    23   20   26 ar 
    24   21   22 1  
    25   21   23 ar 
    26   23   24 ar 
    27   24   25 ar 
    28   25   26 ar 
    29    1   27 1  
    30    1   28 1  
    31    1   29 1  
    32    2   30 1  
    33    3   31 1  
    34    3   32 1  
    35    4   33 1  
    36    4   34 1  
    37    9   35 1  
    38    9   36 1  
    39   10   37 1  
    40   12   38 1  
    41   13   39 1  
    42   14   40 1  
    43   15   41 1  
    44   16   42 1  
    45   18   43 1  
    46   22   44 1  
    47   22   45 1  
    48   24   46 1  
@<TRIPOS>SUBSTRUCTURE
     1 SAH         1

