### 
### Created by X-TOOL on Mon Sep 10 21:13:18 2018
### 

@<TRIPOS>MOLECULE
4qem_ligand
   19    19     1     0     0
SMALL
GAST_HUCK


@<TRIPOS>ATOM
      1 C1          5.2640  -21.0250   -6.5830 C.2       1 HC4         0.0476
      2 O1          6.0020  -21.6020   -5.7290 O.co2     1 HC4        -0.5654
      3 O2          5.4940  -21.1250   -7.8480 O.co2     1 HC4        -0.5654
      4 C2          4.0780  -20.3040   -6.1040 C.2       1 HC4        -0.0342
      5 C3          3.2870  -20.7450   -5.1330 C.2       1 HC4        -0.0536
      6 C1'         2.1240  -19.8870   -4.7600 C.ar      1 HC4        -0.0283
      7 C2'         1.7780  -19.8190   -3.3970 C.ar      1 HC4        -0.0587
      8 C3'         0.7060  -18.9680   -3.0110 C.ar      1 HC4        -0.0286
      9 C4'        -0.0300  -18.2910   -4.0100 C.ar      1 HC4         0.0925
     10 C5'         0.2890  -18.3800   -5.3760 C.ar      1 HC4        -0.0286
     11 C6'         1.4100  -19.1610   -5.7320 C.ar      1 HC4        -0.0587
     12 O4'        -1.0370  -17.5000   -3.5620 O.3       1 HC4        -0.3299
     13 H           3.8328  -19.3520   -6.5725 H         1 HC4         0.0576
     14 H           3.4785  -21.6919   -4.6304 H         1 HC4         0.0681
     15 H           2.3165  -20.4020   -2.6586 H         1 HC4         0.0620
     16 H           0.4564  -18.8401   -1.9639 H         1 HC4         0.0557
     17 H          -0.3026  -17.8689   -6.1269 H         1 HC4         0.0557
     18 H           1.7253  -19.2022   -6.7683 H         1 HC4         0.0620
     19 H          -0.8594  -16.5977   -3.8004 H         1 HC4         0.2502
@<TRIPOS>BOND
     1    1    2 ar 
     2    1    3 ar 
     3    1    4 1  
     4    4    5 2  
     5    5    6 1  
     6    6    7 ar 
     7    6   11 ar 
     8    7    8 ar 
     9    8    9 ar 
    10    9   10 ar 
    11    9   12 1  
    12   10   11 ar 
    13    4   13 1  
    14    5   14 1  
    15    7   15 1  
    16    8   16 1  
    17   10   17 1  
    18   11   18 1  
    19   12   19 1  
@<TRIPOS>SUBSTRUCTURE
     1 HC4         1

