### 
### Created by X-TOOL on Mon Sep 10 21:13:18 2018
### 

@<TRIPOS>MOLECULE
4qer_ligand
   29    30     1     0     0
SMALL
GAST_HUCK


@<TRIPOS>ATOM
      1 C1         -4.5980   18.2780    5.4820 C.ar      1 STL         0.0782
      2 C2         -4.3900   18.0560    6.8360 C.ar      1 STL        -0.0066
      3 C3         -4.6300   19.0940    7.7660 C.ar      1 STL         0.0782
      4 C4         -5.0760   20.3890    7.3310 C.ar      1 STL        -0.0400
      5 C5         -5.3050   20.5970    5.9520 C.ar      1 STL        -0.0478
      6 C6         -5.0810   19.5450    5.0190 C.ar      1 STL        -0.0400
      7 C7         -5.8240   21.8800    5.4580 C.2       1 STL        -0.0650
      8 C8         -5.2640   22.8390    4.7460 C.2       1 STL        -0.0614
      9 C9         -6.1490   23.9810    4.3660 C.ar      1 STL        -0.0332
     10 C10        -6.2180   24.3560    3.0060 C.ar      1 STL        -0.0606
     11 C11        -7.0990   25.4390    2.6610 C.ar      1 STL        -0.0298
     12 C12        -7.8090   26.1660    3.6570 C.ar      1 STL         0.0914
     13 C13        -7.7100   25.8110    5.0170 C.ar      1 STL        -0.0298
     14 C14        -6.8970   24.6870    5.3350 C.ar      1 STL        -0.0606
     15 O1         -8.6400   27.1750    3.2440 O.3       1 STL        -0.3305
     16 O2         -4.3770   18.8210    9.0940 O.3       1 STL        -0.3363
     17 O3         -4.3410   17.2190    4.6740 O.3       1 STL        -0.3363
     18 H          -4.0440   17.0881    7.1804 H         1 STL         0.0461
     19 H          -5.2334   21.1891    8.0452 H         1 STL         0.0441
     20 H          -5.2748   19.7018    3.9641 H         1 STL         0.0441
     21 H          -6.8605   22.0747    5.7293 H         1 STL         0.0564
     22 H          -4.2162   22.8004    4.4520 H         1 STL         0.0617
     23 H          -5.6295   23.8470    2.2513 H         1 STL         0.0608
     24 H          -7.2251   25.7076    1.6184 H         1 STL         0.0554
     25 H          -8.2301   26.3693    5.7870 H         1 STL         0.0554
     26 H          -6.8494   24.3577    6.3667 H         1 STL         0.0608
     27 H          -9.5353   26.9635    3.4812 H         1 STL         0.2500
     28 H          -5.1693   18.9564    9.6005 H         1 STL         0.2476
     29 H          -4.0314   16.4898    5.1983 H         1 STL         0.2476
@<TRIPOS>BOND
     1    1    2 ar 
     2    1    6 ar 
     3    1   17 1  
     4    2    3 ar 
     5    3    4 ar 
     6    3   16 1  
     7    4    5 ar 
     8    5    6 ar 
     9    5    7 1  
    10    7    8 2  
    11    8    9 1  
    12    9   10 ar 
    13    9   14 ar 
    14   10   11 ar 
    15   11   12 ar 
    16   12   13 ar 
    17   12   15 1  
    18   13   14 ar 
    19    2   18 1  
    20    4   19 1  
    21    6   20 1  
    22    7   21 1  
    23    8   22 1  
    24   10   23 1  
    25   11   24 1  
    26   13   25 1  
    27   14   26 1  
    28   15   27 1  
    29   16   28 1  
    30   17   29 1  
@<TRIPOS>SUBSTRUCTURE
     1 STL         1

