### 
### Created by X-TOOL on Mon Sep 10 21:13:18 2018
### 

@<TRIPOS>MOLECULE
4qev_ligand
   51    54     1     0     0
SMALL
GAST_HUCK


@<TRIPOS>ATOM
      1 CAW        71.9580  -11.2650   73.1070 C.3       1 31O         0.0658
      2 OAU        70.7470  -10.6150   72.7180 O.3       1 31O        -0.2798
      3 CAT        70.8330   -9.2590   72.6760 C.2       1 31O         0.2399
      4 OAV        71.6550   -8.6200   73.3410 O.2       1 31O        -0.3699
      5 CAS        69.8010   -8.5650   71.7410 C.3       1 31O         0.0852
      6 CBD        70.0780   -8.9290   70.2700 C.3       1 31O        -0.0406
      7 CAI        69.9270   -7.0560   71.8690 C.3       1 31O         0.1123
      8 NAH        69.8480   -6.5290   73.2740 N.2       1 31O        -0.3202
      9 CAJ        68.9870   -6.3040   71.1270 C.2       1 31O         0.1602
     10 NAN        67.8340   -6.7550   70.6030 N.2       1 31O        -0.2799
     11 NAO        67.2600   -5.8250   70.0550 N.2       1 31O        -0.2812
     12 CAP        68.0100   -4.7160   70.1870 C.2       1 31O         0.1412
     13 CAR        67.6340   -3.3490   69.6230 C.3       1 31O         0.0163
     14 NAK        69.1120   -4.9970   70.8800 N.pl3     1 31O        -0.1675
     15 CAE        70.2050   -4.3170   71.3170 C.ar      1 31O         0.1139
     16 CAF        70.8230   -3.4660   70.3940 C.ar      1 31O        -0.0261
     17 CAA        71.9790   -2.7590   70.7480 C.ar      1 31O        -0.0299
     18 CAB        72.5560   -2.9080   72.0140 C.ar      1 31O         0.0910
     19 OAL        73.6900   -2.2490   72.4330 O.3       1 31O        -0.3243
     20 CAM        74.4850   -1.5120   71.4870 C.3       1 31O         0.0580
     21 CAC        71.9530   -3.7660   72.9280 C.ar      1 31O        -0.0185
     22 CAD        70.7940   -4.4630   72.5870 C.ar      1 31O         0.0423
     23 CAG        70.3010   -5.2980   73.5940 C.2       1 31O         0.0506
     24 CAQ        70.1740   -4.8380   74.9160 C.ar      1 31O         0.0138
     25 CAX        70.3000   -5.7260   75.9930 C.ar      1 31O        -0.0429
     26 CAY        70.1630   -5.2680   77.3040 C.ar      1 31O        -0.0402
     27 CAZ        69.8950   -3.9220   77.5550 C.ar      1 31O         0.0473
     28 CL1        69.7210   -3.3560   79.1880 Cl        1 31O        -0.0644
     29 CBA        69.7680   -3.0360   76.4950 C.ar      1 31O        -0.0402
     30 CBB        69.9060   -3.4910   75.1850 C.ar      1 31O        -0.0429
     31 H1         71.8032  -12.3540   73.1155 H         1 31O         0.0577
     32 H2         72.2482  -10.9281   74.1131 H         1 31O         0.0577
     33 H3         72.7552  -11.0136   72.3920 H         1 31O         0.0577
     34 H4         68.7851   -8.8822   72.0191 H         1 31O         0.0591
     35 H5         69.9951  -10.0181   70.1399 H         1 31O         0.0260
     36 H6         71.0924   -8.6033   69.9964 H         1 31O         0.0260
     37 H7         69.3443   -8.4256   69.6233 H         1 31O         0.0260
     38 H8         70.9257   -6.8091   71.4798 H         1 31O         0.0685
     39 H9         66.6697   -3.4213   69.0986 H         1 31O         0.0468
     40 H10        68.4106   -3.0169   68.9183 H         1 31O         0.0468
     41 H11        67.5505   -2.6233   70.4454 H         1 31O         0.0468
     42 H12        70.4050   -3.3534   69.4002 H         1 31O         0.0575
     43 H13        72.4337   -2.0860   70.0301 H         1 31O         0.0587
     44 H14        75.3430   -1.0578   72.0043 H         1 31O         0.0574
     45 H15        73.8719   -0.7213   71.0301 H         1 31O         0.0574
     46 H16        74.8480   -2.1934   70.7035 H         1 31O         0.0574
     47 H17        72.3873   -3.8939   73.9129 H         1 31O         0.0583
     48 H18        70.5049   -6.7740   75.8066 H         1 31O         0.0683
     49 H19        70.2653   -5.9611   78.1311 H         1 31O         0.0640
     50 H20        69.5613   -1.9891   76.6859 H         1 31O         0.0640
     51 H21        69.8043   -2.7918   74.3629 H         1 31O         0.0683
@<TRIPOS>BOND
     1    1    2 1  
     2    2    3 1  
     3    3    4 2  
     4    3    5 1  
     5    5    6 1  
     6    5    7 1  
     7    7    8 1  
     8    7    9 1  
     9    8   23 2  
    10    9   10 2  
    11    9   14 1  
    12   10   11 1  
    13   11   12 2  
    14   12   13 1  
    15   12   14 1  
    16   14   15 1  
    17   15   16 ar 
    18   15   22 ar 
    19   16   17 ar 
    20   17   18 ar 
    21   18   19 1  
    22   18   21 ar 
    23   19   20 1  
    24   21   22 ar 
    25   22   23 1  
    26   23   24 1  
    27   24   25 ar 
    28   24   30 ar 
    29   25   26 ar 
    30   26   27 ar 
    31   27   28 1  
    32   27   29 ar 
    33   29   30 ar 
    34    1   31 1  
    35    1   32 1  
    36    1   33 1  
    37    5   34 1  
    38    6   35 1  
    39    6   36 1  
    40    6   37 1  
    41    7   38 1  
    42   13   39 1  
    43   13   40 1  
    44   13   41 1  
    45   16   42 1  
    46   17   43 1  
    47   20   44 1  
    48   20   45 1  
    49   20   46 1  
    50   21   47 1  
    51   25   48 1  
    52   26   49 1  
    53   29   50 1  
    54   30   51 1  
@<TRIPOS>SUBSTRUCTURE
     1 31O         1

