### 
### Created by X-TOOL on Mon Sep 10 21:13:17 2018
### 

@<TRIPOS>MOLECULE
4qew_ligand
   54    57     1     0     0
SMALL
GAST_HUCK


@<TRIPOS>ATOM
      1 CAW        71.8690  -10.9580   73.0410 C.3       1 31P         0.0658
      2 OAU        70.6180  -10.2800   72.8620 O.3       1 31P        -0.2798
      3 CAT        70.7890   -8.9740   72.5880 C.2       1 31P         0.2402
      4 OAV        71.7470   -8.3100   73.0030 O.2       1 31P        -0.3699
      5 CAS        69.7950   -8.4140   71.5570 C.3       1 31P         0.0878
      6 CBD        70.4690   -8.8750   70.2790 C.3       1 31P        -0.0313
      7 CBE        70.1300   -8.0220   69.0730 C.3       1 31P        -0.0626
      8 CAI        69.7500   -6.8940   71.7130 C.3       1 31P         0.1125
      9 NAH        69.6120   -6.3750   73.1110 N.2       1 31P        -0.3201
     10 CAJ        68.7830   -6.1880   70.9600 C.2       1 31P         0.1602
     11 NAN        67.6250   -6.6560   70.4560 N.2       1 31P        -0.2799
     12 NAO        67.0530   -5.6840   69.8560 N.2       1 31P        -0.2812
     13 CAP        67.8350   -4.5930   69.9640 C.2       1 31P         0.1412
     14 CAR        67.5190   -3.2290   69.3700 C.3       1 31P         0.0163
     15 NAK        68.9280   -4.8900   70.6650 N.pl3     1 31P        -0.1675
     16 CAE        70.0210   -4.2160   71.0890 C.ar      1 31P         0.1139
     17 CAF        70.6500   -3.3800   70.1590 C.ar      1 31P        -0.0261
     18 CAA        71.8070   -2.6780   70.5160 C.ar      1 31P        -0.0299
     19 CAB        72.3570   -2.8120   71.7950 C.ar      1 31P         0.0910
     20 OAL        73.4810   -2.1630   72.2360 O.3       1 31P        -0.3243
     21 CAM        74.2530   -1.4040   71.2890 C.3       1 31P         0.0580
     22 CAC        71.7360   -3.6510   72.7130 C.ar      1 31P        -0.0185
     23 CAD        70.5750   -4.3370   72.3790 C.ar      1 31P         0.0423
     24 CAG        70.0690   -5.1390   73.4070 C.2       1 31P         0.0506
     25 CAQ        69.9350   -4.6290   74.7170 C.ar      1 31P         0.0138
     26 CAX        69.6890   -3.2660   74.9560 C.ar      1 31P        -0.0429
     27 CAY        69.5580   -2.7780   76.2630 C.ar      1 31P        -0.0402
     28 CAZ        69.6590   -3.6480   77.3370 C.ar      1 31P         0.0473
     29 CL1        69.4930   -3.0730   78.9630 Cl        1 31P        -0.0644
     30 CBA        69.9050   -5.0000   77.1110 C.ar      1 31P        -0.0402
     31 CBB        70.0390   -5.4880   75.8120 C.ar      1 31P        -0.0429
     32 H1         71.6825  -12.0192   73.2623 H         1 31P         0.0577
     33 H2         72.4179  -10.5001   73.8770 H         1 31P         0.0577
     34 H3         72.4661  -10.8748   72.1209 H         1 31P         0.0577
     35 H4         68.7844   -8.8357   71.6613 H         1 31P         0.0593
     36 H5         70.1545   -9.9088   70.0733 H         1 31P         0.0293
     37 H6         71.5582   -8.8462   70.4302 H         1 31P         0.0293
     38 H7         70.6522   -8.4144   68.1879 H         1 31P         0.0231
     39 H8         70.4478   -6.9850   69.2563 H         1 31P         0.0231
     40 H9         69.0441   -8.0475   68.8993 H         1 31P         0.0231
     41 H10        70.7315   -6.5564   71.3488 H         1 31P         0.0685
     42 H11        66.5536   -3.2727   68.8445 H         1 31P         0.0468
     43 H12        68.3103   -2.9459   68.6603 H         1 31P         0.0468
     44 H13        67.4645   -2.4819   70.1755 H         1 31P         0.0468
     45 H14        70.2404   -3.2761   69.1608 H         1 31P         0.0575
     46 H15        72.2817   -2.0237   69.7938 H         1 31P         0.0587
     47 H16        75.1150   -0.9494   71.7992 H         1 31P         0.0574
     48 H17        73.6249   -0.6124   70.8544 H         1 31P         0.0574
     49 H18        74.6096   -2.0697   70.4892 H         1 31P         0.0574
     50 H19        72.1630   -3.7715   73.7020 H         1 31P         0.0583
     51 H20        69.5995   -2.5836   74.1186 H         1 31P         0.0683
     52 H21        69.3781   -1.7227   76.4336 H         1 31P         0.0640
     53 H22        69.9930   -5.6784   77.9519 H         1 31P         0.0640
     54 H23        70.2256   -6.5436   75.6511 H         1 31P         0.0683
@<TRIPOS>BOND
     1    1    2 1  
     2    2    3 1  
     3    3    4 2  
     4    3    5 1  
     5    5    6 1  
     6    5    8 1  
     7    6    7 1  
     8    8    9 1  
     9    8   10 1  
    10    9   24 2  
    11   10   11 2  
    12   10   15 1  
    13   11   12 1  
    14   12   13 2  
    15   13   14 1  
    16   13   15 1  
    17   15   16 1  
    18   16   17 ar 
    19   16   23 ar 
    20   17   18 ar 
    21   18   19 ar 
    22   19   20 1  
    23   19   22 ar 
    24   20   21 1  
    25   22   23 ar 
    26   23   24 1  
    27   24   25 1  
    28   25   26 ar 
    29   25   31 ar 
    30   26   27 ar 
    31   27   28 ar 
    32   28   29 1  
    33   28   30 ar 
    34   30   31 ar 
    35    1   32 1  
    36    1   33 1  
    37    1   34 1  
    38    5   35 1  
    39    6   36 1  
    40    6   37 1  
    41    7   38 1  
    42    7   39 1  
    43    7   40 1  
    44    8   41 1  
    45   14   42 1  
    46   14   43 1  
    47   14   44 1  
    48   17   45 1  
    49   18   46 1  
    50   21   47 1  
    51   21   48 1  
    52   21   49 1  
    53   22   50 1  
    54   26   51 1  
    55   27   52 1  
    56   30   53 1  
    57   31   54 1  
@<TRIPOS>SUBSTRUCTURE
     1 31P         1

