### 
### Created by X-TOOL on Mon Sep 10 21:13:19 2018
### 

@<TRIPOS>MOLECULE
4qf7_ligand
   53    56     1     0     0
SMALL
GAST_HUCK


@<TRIPOS>ATOM
      1 C1         21.8860    9.7970   -7.0780 C.3       1 C0R        -0.0590
      2 C2         21.7160   10.8680   -8.1350 C.3       1 C0R         0.0245
      3 C3         22.1340   10.3530   -9.4640 C.2       1 C0R         0.1764
      4 C4         21.8180    8.9500   -9.7990 C.2       1 C0R         0.0478
      5 C5         21.5540    8.0760   -8.8060 C.2       1 C0R        -0.0391
      6 C6         21.5840    6.6140   -9.1840 C.3       1 C0R        -0.0166
      7 C7         21.7810    5.6710   -8.0550 C.3       1 C0R        -0.0372
      8 C8         21.2450    6.1560   -6.7190 C.3       1 C0R        -0.0258
      9 C9         21.6180    7.5380   -6.2920 C.3       1 C0R         0.0124
     10 C10        21.2090    8.5380   -7.3970 C.3       1 C0R        -0.0222
     11 C11        21.1870    7.9140   -4.8150 C.2       1 C0R         0.0991
     12 C12        20.5170    6.7800   -3.9840 C.3       1 C0R         0.0284
     13 C13        20.4900    5.3530   -4.5540 C.3       1 C0R         0.0054
     14 C14        21.5770    5.2360   -5.5950 C.3       1 C0R        -0.0266
     15 C15        21.8190    3.8220   -5.8870 C.3       1 C0R        -0.0467
     16 C16        22.0200    3.5220   -4.4650 C.3       1 C0R        -0.0332
     17 C17        20.8490    4.0980   -3.7360 C.3       1 C0R         0.0426
     18 C18        19.1190    5.2780   -5.1420 C.3       1 C0R        -0.0548
     19 C19        20.0000    8.8830   -8.0880 C.3       1 C0R        -0.0869
     20 C20        20.0900    2.7870   -3.7350 C.2       1 C0R         0.1341
     21 C21        18.9460    2.3760   -4.5790 C.3       1 C0R         0.1174
     22 O1         22.6280   11.1190  -10.2300 O.2       1 C0R        -0.3440
     23 O2         20.8220    9.1470   -4.7110 O.2       1 C0R        -0.3924
     24 O3         20.4300    1.9200   -3.0020 O.2       1 C0R        -0.3888
     25 O4         18.9380    0.9600   -4.5460 O.3       1 C0R        -0.3757
     26 H          21.4798   10.1784   -6.1296 H         1 C0R         0.0174
     27 H          22.9605    9.5928   -6.9610 H         1 C0R         0.0174
     28 H          22.3351   11.7384   -7.8723 H         1 C0R         0.0483
     29 H          20.6591   11.1696   -8.1790 H         1 C0R         0.0483
     30 H          21.7983    8.6240  -10.8379 H         1 C0R         0.1318
     31 H          22.4065    6.4646   -9.8990 H         1 C0R         0.0450
     32 H          20.6276    6.3686   -9.6688 H         1 C0R         0.0450
     33 H          22.8603    5.4895   -7.9451 H         1 C0R         0.0295
     34 H          21.2740    4.7273   -8.3049 H         1 C0R         0.0295
     35 H          20.1505    6.1526   -6.8284 H         1 C0R         0.0323
     36 H          22.7176    7.5579   -6.2700 H         1 C0R         0.0415
     37 H          19.4720    7.0790   -3.8149 H         1 C0R         0.0501
     38 H          21.0452    6.7318   -3.0203 H         1 C0R         0.0501
     39 H          22.5109    5.6163   -5.1555 H         1 C0R         0.0313
     40 H          22.7096    3.6439   -6.5075 H         1 C0R         0.0270
     41 H          20.9541    3.3069   -6.3304 H         1 C0R         0.0270
     42 H          22.9529    3.9829   -4.1083 H         1 C0R         0.0293
     43 H          22.0657    2.4340   -4.3096 H         1 C0R         0.0293
     44 H          21.0549    4.4117   -2.7020 H         1 C0R         0.0537
     45 H          18.9145    6.1954   -5.7135 H         1 C0R         0.0238
     46 H          18.3788    5.1763   -4.3347 H         1 C0R         0.0238
     47 H          19.0540    4.4072   -5.8109 H         1 C0R         0.0238
     48 H          20.2085    9.6816   -8.8152 H         1 C0R         0.0114
     49 H          19.2506    9.2337   -7.3631 H         1 C0R         0.0114
     50 H          19.6139    7.9983   -8.6156 H         1 C0R         0.0114
     51 H          19.0807    2.7353   -5.6099 H         1 C0R         0.0792
     52 H          18.0053    2.7749   -4.1716 H         1 C0R         0.0792
     53 H          18.8305    0.6659   -3.6491 H         1 C0R         0.2130
@<TRIPOS>BOND
     1    1    2 1  
     2    1   10 1  
     3    2    3 1  
     4    3    4 1  
     5    3   22 2  
     6    4    5 2  
     7    5    6 1  
     8    5   10 1  
     9    6    7 1  
    10    7    8 1  
    11    8    9 1  
    12    8   14 1  
    13    9   10 1  
    14    9   11 1  
    15   10   19 1  
    16   11   12 1  
    17   11   23 2  
    18   12   13 1  
    19   13   14 1  
    20   13   17 1  
    21   13   18 1  
    22   14   15 1  
    23   15   16 1  
    24   16   17 1  
    25   17   20 1  
    26   20   21 1  
    27   20   24 2  
    28   21   25 1  
    29    1   26 1  
    30    1   27 1  
    31    2   28 1  
    32    2   29 1  
    33    4   30 1  
    34    6   31 1  
    35    6   32 1  
    36    7   33 1  
    37    7   34 1  
    38    8   35 1  
    39    9   36 1  
    40   12   37 1  
    41   12   38 1  
    42   14   39 1  
    43   15   40 1  
    44   15   41 1  
    45   16   42 1  
    46   16   43 1  
    47   17   44 1  
    48   18   45 1  
    49   18   46 1  
    50   18   47 1  
    51   19   48 1  
    52   19   49 1  
    53   19   50 1  
    54   21   51 1  
    55   21   52 1  
    56   25   53 1  
@<TRIPOS>SUBSTRUCTURE
     1 C0R         1

