### 
### Created by X-TOOL on Mon Sep 10 21:13:18 2018
### 

@<TRIPOS>MOLECULE
4qf8_ligand
   32    31     1     0     0
SMALL
GAST_HUCK


@<TRIPOS>ATOM
      1 N1         17.0230   -0.6970   -3.4050 N.4       1 SPD         0.2185
      2 C2         18.0180   -0.7420   -4.4850 C.3       1 SPD        -0.0352
      3 C3         18.5310    0.6510   -4.8440 C.3       1 SPD        -0.0078
      4 C4         19.9110    0.8490   -4.2850 C.3       1 SPD        -0.0078
      5 C5         19.9440    1.9430   -3.2340 C.3       1 SPD        -0.0335
      6 N6         20.9630    2.9100   -3.5200 N.4       1 SPD         0.2271
      7 C7         20.8760    3.8420   -4.6370 C.3       1 SPD        -0.0288
      8 C8         21.9090    4.9120   -4.2950 C.3       1 SPD         0.0275
      9 C9         21.5680    6.2860   -4.8620 C.3       1 SPD        -0.0305
     10 N10        20.7090    6.9760   -3.9080 N.4       1 SPD         0.2187
     11 H          16.7097   -1.6324   -3.1976 H         1 SPD         0.1994
     12 H          16.2373   -0.1361   -3.6951 H         1 SPD         0.1994
     13 H          17.4393   -0.2917   -2.5813 H         1 SPD         0.1994
     14 H          17.5557   -1.1914   -5.3762 H         1 SPD         0.0813
     15 H          18.8673   -1.3612   -4.1607 H         1 SPD         0.0813
     16 H          17.8546    1.4086   -4.4216 H         1 SPD         0.0319
     17 H          18.5625    0.7570   -5.9384 H         1 SPD         0.0319
     18 H          20.5910    1.1231   -5.1051 H         1 SPD         0.0319
     19 H          20.2483   -0.0931   -3.8283 H         1 SPD         0.0319
     20 H          20.1453    1.4903   -2.2519 H         1 SPD         0.0814
     21 H          18.9671    2.4480   -3.2117 H         1 SPD         0.0814
     22 H          21.8127    2.3862   -3.6599 H         1 SPD         0.2013
     23 H          21.0501    3.4765   -2.6908 H         1 SPD         0.2013
     24 H          19.8684    4.2775   -4.7072 H         1 SPD         0.0816
     25 H          21.1267    3.3432   -5.5848 H         1 SPD         0.0816
     26 H          22.8825    4.5992   -4.7006 H         1 SPD         0.0369
     27 H          21.9771    4.9937   -3.2002 H         1 SPD         0.0369
     28 H          21.0418    6.1721   -5.8212 H         1 SPD         0.0815
     29 H          22.4911    6.8639   -5.0165 H         1 SPD         0.0815
     30 H          20.4730    7.8879   -4.2668 H         1 SPD         0.1994
     31 H          21.1940    7.0757   -3.0300 H         1 SPD         0.1994
     32 H          19.8659    6.4417   -3.7674 H         1 SPD         0.1994
@<TRIPOS>BOND
     1    1    2 1  
     2    2    3 1  
     3    3    4 1  
     4    4    5 1  
     5    5    6 1  
     6    6    7 1  
     7    7    8 1  
     8    8    9 1  
     9    9   10 1  
    10    1   11 1  
    11    1   12 1  
    12    1   13 1  
    13    2   14 1  
    14    2   15 1  
    15    3   16 1  
    16    3   17 1  
    17    4   18 1  
    18    4   19 1  
    19    5   20 1  
    20    5   21 1  
    21    6   22 1  
    22    6   23 1  
    23    7   24 1  
    24    7   25 1  
    25    8   26 1  
    26    8   27 1  
    27    9   28 1  
    28    9   29 1  
    29   10   30 1  
    30   10   31 1  
    31   10   32 1  
@<TRIPOS>SUBSTRUCTURE
     1 SPD         1

