### 
### Created by X-TOOL on Mon Sep 10 21:13:24 2018
### 

@<TRIPOS>MOLECULE
4qf9_ligand
   32    33     1     0     0
SMALL
GAST_HUCK


@<TRIPOS>ATOM
      1 C1         62.0190  -27.1690  -35.8220 C.ar      1 35K        -0.0881
      2 N1         58.6540  -25.2780  -37.5170 N.am      1 35K        -0.2271
      3 O1         57.6490  -23.3950  -38.2500 O.2       1 35K        -0.3519
      4 C2         60.8800  -27.9250  -36.1610 C.ar      1 35K        -0.0702
      5 N2         60.9240  -23.7860  -36.8480 N.am      1 35K        -0.2296
      6 O2         59.8850  -21.9250  -37.5910 O.2       1 35K        -0.3529
      7 C3         59.7390  -27.3120  -36.7250 C.ar      1 35K        -0.0506
      8 N3         61.7840  -31.5720  -34.6590 N.4       1 35K         0.2328
      9 O3         58.2810  -31.3810  -34.4840 O.co2     1 35K        -0.5643
     10 C4         62.0520  -25.7820  -36.0470 C.ar      1 35K        -0.0585
     11 O4         59.7380  -33.0020  -34.9660 O.co2     1 35K        -0.5643
     12 C5         60.9210  -25.1730  -36.6110 C.ar      1 35K         0.0862
     13 C6         59.7740  -25.9240  -36.9500 C.ar      1 35K         0.0868
     14 C7         58.6690  -23.8870  -37.7500 C.2       1 35K         0.3114
     15 C8         59.8090  -23.1330  -37.4140 C.2       1 35K         0.3100
     16 C9         60.8680  -29.3060  -35.9190 C.3       1 35K        -0.0224
     17 C10        60.3110  -29.5650  -34.5210 C.3       1 35K         0.0100
     18 C11        60.5710  -30.9990  -34.0660 C.3       1 35K         0.0299
     19 C12        59.4240  -31.8710  -34.5510 C.2       1 35K         0.0846
     20 H1         62.8789  -27.6619  -35.3831 H         1 35K         0.0397
     21 H2         57.8426  -25.8115  -37.7556 H         1 35K         0.2247
     22 H3         61.7347  -23.2512  -36.6099 H         1 35K         0.2226
     23 H4         58.8608  -27.8952  -36.9774 H         1 35K         0.0399
     24 H5         62.5855  -31.0325  -34.3717 H         1 35K         0.2010
     25 H6         61.7084  -31.5522  -35.6640 H         1 35K         0.2010
     26 H7         61.8918  -32.5250  -34.3488 H         1 35K         0.2010
     27 H8         62.9287  -25.1979  -35.7913 H         1 35K         0.0442
     28 H9         61.8927  -29.7003  -35.9858 H         1 35K         0.0400
     29 H10        60.2336  -29.8051  -36.6662 H         1 35K         0.0400
     30 H11        59.2258  -29.3854  -34.5307 H         1 35K         0.0358
     31 H12        60.7907  -28.8738  -33.8125 H         1 35K         0.0358
     32 H13        60.6435  -31.0253  -32.9687 H         1 35K         0.1026
@<TRIPOS>BOND
     1    4    1 ar 
     2    1   10 ar 
     3   13    2 1  
     4    2   14 am 
     5   14    3 2  
     6    4    7 ar 
     7   16    4 1  
     8   12    5 1  
     9    5   15 am 
    10   15    6 2  
    11    7   13 ar 
    12   18    8 1  
    13   19    9 ar 
    14   10   12 ar 
    15   19   11 ar 
    16   13   12 ar 
    17   14   15 1  
    18   17   16 1  
    19   18   17 1  
    20   18   19 1  
    21    1   20 1  
    22    2   21 1  
    23    5   22 1  
    24    7   23 1  
    25    8   24 1  
    26    8   25 1  
    27    8   26 1  
    28   10   27 1  
    29   16   28 1  
    30   16   29 1  
    31   17   30 1  
    32   17   31 1  
    33   18   32 1  
@<TRIPOS>SUBSTRUCTURE
     1 35K         1

