### 
### Created by X-TOOL on Mon Sep 10 21:13:21 2018
### 

@<TRIPOS>MOLECULE
4qfl_ligand
   33    33     1     0     0
SMALL
GAST_HUCK


@<TRIPOS>ATOM
      1 N          14.0680   -9.1800   12.4220 N.4       1 PHE         0.2377
      2 CA         13.3870   -7.8950   12.2910 C.3       1 PHE         0.0621
      3 C          12.6140   -7.8220   10.9760 C.2       1 PHE         0.2260
      4 O          13.0010   -8.4450    9.9880 O.2       1 PHE        -0.3908
      5 CB         14.3920   -6.7440   12.3910 C.3       1 PHE        -0.0040
      6 N          11.5140   -7.0710   10.9700 N.am      1 PHE        -0.2650
      7 CA         10.7420   -6.8330    9.7560 C.3       1 PHE         0.1040
      8 C          11.5000   -5.9000    8.8400 C.2       1 PHE         0.0621
      9 O          11.4300   -6.0250    7.6220 O.co2     1 PHE        -0.5664
     10 CB          9.4030   -6.1890   10.0980 C.3       1 PHE         0.0159
     11 CG          8.4400   -7.1100   10.7620 C.ar      1 PHE        -0.0392
     12 CD1         8.1970   -8.3720   10.2450 C.ar      1 PHE        -0.0602
     13 CD2         7.7700   -6.7160   11.8980 C.ar      1 PHE        -0.0602
     14 CE1         7.3040   -9.2180   10.8420 C.ar      1 PHE        -0.0686
     15 CE2         6.8730   -7.5560   12.5030 C.ar      1 PHE        -0.0686
     16 CZ          6.6390   -8.8120   11.9800 C.ar      1 PHE        -0.0687
     17 OXT        12.1930   -4.9940    9.3050 O.co2     1 PHE        -0.5664
     18 H1         14.5708   -9.2063   13.2952 H         1 PHE         0.2015
     19 H2         14.7151   -9.2968   11.6580 H         1 PHE         0.2015
     20 H3         13.3882   -9.9240   12.4032 H         1 PHE         0.2015
     21 H4         12.6686   -7.7993   13.1185 H         1 PHE         0.1095
     22 H5         13.8625   -5.7851   12.2904 H         1 PHE         0.0310
     23 H6         15.1374   -6.8372   11.5875 H         1 PHE         0.0310
     24 H7         14.8980   -6.7827   13.3669 H         1 PHE         0.0310
     25 H8         11.2072   -6.6565   11.8268 H         1 PHE         0.1878
     26 H9         10.5682   -7.7911    9.2443 H         1 PHE         0.0749
     27 H10         8.9464   -5.8245    9.1660 H         1 PHE         0.0467
     28 H11         9.5897   -5.3396   10.7715 H         1 PHE         0.0467
     29 H12         8.7229   -8.6938    9.3534 H         1 PHE         0.0557
     30 H13         7.9537   -5.7333   12.3171 H         1 PHE         0.0557
     31 H14         7.1200  -10.2010   10.4237 H         1 PHE         0.0599
     32 H15         6.3460   -7.2340   13.3939 H         1 PHE         0.0599
     33 H16         5.9335   -9.4783   12.4632 H         1 PHE         0.0559
@<TRIPOS>BOND
     1    1    2 1  
     2    2    3 1  
     3    2    5 1  
     4    3    4 2  
     5    3    6 am 
     6    6    7 1  
     7    7    8 1  
     8    7   10 1  
     9    8    9 ar 
    10    8   17 ar 
    11   10   11 1  
    12   11   12 ar 
    13   11   13 ar 
    14   12   14 ar 
    15   13   15 ar 
    16   14   16 ar 
    17   15   16 ar 
    18    1   18 1  
    19    1   19 1  
    20    1   20 1  
    21    2   21 1  
    22    5   22 1  
    23    5   23 1  
    24    5   24 1  
    25    6   25 1  
    26    7   26 1  
    27   10   27 1  
    28   10   28 1  
    29   12   29 1  
    30   13   30 1  
    31   14   31 1  
    32   15   32 1  
    33   16   33 1  
@<TRIPOS>SUBSTRUCTURE
     1 PHE         1

