### 
### Created by X-TOOL on Mon Sep 10 21:13:20 2018
### 

@<TRIPOS>MOLECULE
4qfn_ligand
   25    24     1     0     0
SMALL
GAST_HUCK


@<TRIPOS>ATOM
      1 N          14.5650    8.3960   12.3020 N.4       1 GLU         0.2357
      2 CA         13.6400    7.2790   12.2750 C.3       1 GLU         0.0544
      3 C          13.1000    6.9480   10.8900 C.2       1 GLU         0.2231
      4 O          13.7520    7.2140    9.8760 O.2       1 GLU        -0.3911
      5 N          11.9050    6.3590   10.8460 N.am      1 GLU        -0.2669
      6 CA         11.3220    5.8870    9.5920 C.3       1 GLU         0.0960
      7 C          10.7870    7.0170    8.7230 C.2       1 GLU         0.0602
      8 O          10.3980    8.0810    9.2040 O.co2     1 GLU        -0.5666
      9 CB         10.2210    4.8540    9.8490 C.3       1 GLU        -0.0064
     10 CG         10.7000    3.6180   10.5870 C.3       1 GLU         0.0038
     11 CD         10.4640    3.6930   12.0970 C.2       1 GLU         0.0350
     12 OE1        10.5620    2.6390   12.7700 O.co2     1 GLU        -0.5690
     13 OE2        10.1610    4.7990   12.6100 O.co2     1 GLU        -0.5690
     14 OXT        10.7290    6.8750    7.5030 O.co2     1 GLU        -0.5666
     15 H1         14.8760    8.5519   13.2481 H         1 GLU         0.2012
     16 H2         14.1025    9.2236   11.9597 H         1 GLU         0.2012
     17 H3         15.3593    8.1887   11.7171 H         1 GLU         0.2012
     18 H4         12.7886    7.5204   12.9284 H         1 GLU         0.1061
     19 H5         14.1602    6.3910   12.6635 H         1 GLU         0.1061
     20 H6         11.3926    6.2366   11.6960 H         1 GLU         0.1876
     21 H7         12.1241    5.3892    9.0274 H         1 GLU         0.0727
     22 H8          9.8070    4.5401    8.8794 H         1 GLU         0.0323
     23 H9          9.4311    5.3309   10.4479 H         1 GLU         0.0323
     24 H10        11.7784    3.4981   10.4065 H         1 GLU         0.0432
     25 H11        10.1626    2.7435   10.1915 H         1 GLU         0.0432
@<TRIPOS>BOND
     1    1    2 1  
     2    2    3 1  
     3    3    4 2  
     4    3    5 am 
     5    5    6 1  
     6    6    7 1  
     7    6    9 1  
     8    7    8 ar 
     9    7   14 ar 
    10    9   10 1  
    11   10   11 1  
    12   11   12 ar 
    13   11   13 ar 
    14    1   15 1  
    15    1   16 1  
    16    1   17 1  
    17    2   18 1  
    18    2   19 1  
    19    5   20 1  
    20    6   21 1  
    21    9   22 1  
    22    9   23 1  
    23   10   24 1  
    24   10   25 1  
@<TRIPOS>SUBSTRUCTURE
     1 GLU         1

