### 
### Created by X-TOOL on Mon Sep 10 21:13:21 2018
### 

@<TRIPOS>MOLECULE
4qfo_ligand
   39    38     1     0     0
SMALL
GAST_HUCK


@<TRIPOS>ATOM
      1 N          13.7890   -7.4530   13.0750 N.4       1 MET         0.2379
      2 CA         13.1970   -6.2170   12.5750 C.3       1 MET         0.0657
      3 C          12.2500   -6.4470   11.4120 C.2       1 MET         0.2262
      4 O          12.5300   -7.2340   10.5100 O.2       1 MET        -0.3908
      5 CB         14.2920   -5.2450   12.1290 C.3       1 MET         0.0168
      6 CG         14.8400   -4.4140   13.2730 C.3       1 MET         0.0007
      7 SD         16.4230   -3.6130   12.8950 S.3       1 MET        -0.1638
      8 CE         16.3530   -3.4720   11.1130 C.3       1 MET        -0.0181
      9 N          11.1330   -5.7360   11.4280 N.am      1 LEU        -0.2668
     10 CA         10.2220   -5.7260   10.3000 C.3       1 LEU         0.0947
     11 C          10.8400   -4.8400    9.2320 C.2       1 LEU         0.0601
     12 O          11.5030   -3.8530    9.5750 O.co2     1 LEU        -0.5666
     13 CB          8.8770   -5.1440   10.7280 C.3       1 LEU        -0.0156
     14 CG          7.7250   -6.0530   11.1570 C.3       1 LEU        -0.0431
     15 CD1         8.2130   -7.3620   11.7290 C.3       1 LEU        -0.0625
     16 CD2         6.7950   -5.3160   12.1270 C.3       1 LEU        -0.0625
     17 OXT        10.6950   -5.0720    8.0220 O.co2     1 LEU        -0.5666
     18 H1         14.4066   -7.2429   13.8434 H         1 MET         0.2015
     19 H2         14.3109   -7.8983   12.3366 H         1 MET         0.2015
     20 H3         13.0586   -8.0718   13.3906 H         1 MET         0.2015
     21 H4         12.6287   -5.7569   13.3968 H         1 MET         0.1098
     22 H5         13.8729   -4.5669   11.3710 H         1 MET         0.0354
     23 H6         15.1171   -5.8232   11.6877 H         1 MET         0.0354
     24 H7         14.9820   -5.0713   14.1435 H         1 MET         0.0380
     25 H8         14.1052   -3.6333   13.5189 H         1 MET         0.0380
     26 H9         17.2726   -2.9923   10.7468 H         1 MET         0.0340
     27 H10        15.4829   -2.8627   10.8273 H         1 MET         0.0340
     28 H11        16.2605   -4.4742   10.6692 H         1 MET         0.0340
     29 H12        10.9123   -5.1926   12.2380 H         1 MET         0.1877
     30 H13        10.0809   -6.7467    9.9151 H         1 MET         0.0726
     31 H14         8.5078   -4.5520    9.8776 H         1 MET         0.0308
     32 H15         9.0816   -4.4766   11.5781 H         1 MET         0.0308
     33 H16         7.1406   -6.2912   10.2560 H         1 MET         0.0297
     34 H17         7.3503   -7.9785   12.0217 H         1 MET         0.0232
     35 H18         8.8396   -7.1657   12.6115 H         1 MET         0.0232
     36 H19         8.8046   -7.8957   10.9706 H         1 MET         0.0232
     37 H20         6.4644   -4.3710   11.6713 H         1 MET         0.0232
     38 H21         7.3343   -5.1033   13.0618 H         1 MET         0.0232
     39 H22         5.9188   -5.9447   12.3440 H         1 MET         0.0232
@<TRIPOS>BOND
     1    1    2 1  
     2    2    3 1  
     3    2    5 1  
     4    3    4 2  
     5    3    9 am 
     6    5    6 1  
     7    6    7 1  
     8    7    8 1  
     9    9   10 1  
    10   10   11 1  
    11   10   13 1  
    12   11   12 ar 
    13   11   17 ar 
    14   13   14 1  
    15   14   15 1  
    16   14   16 1  
    17    1   18 1  
    18    1   19 1  
    19    1   20 1  
    20    2   21 1  
    21    5   22 1  
    22    5   23 1  
    23    6   24 1  
    24    6   25 1  
    25    8   26 1  
    26    8   27 1  
    27    8   28 1  
    28    9   29 1  
    29   10   30 1  
    30   13   31 1  
    31   13   32 1  
    32   14   33 1  
    33   15   34 1  
    34   15   35 1  
    35   15   36 1  
    36   16   37 1  
    37   16   38 1  
    38   16   39 1  
@<TRIPOS>SUBSTRUCTURE
     1 MET         1

