### 
### Created by X-TOOL on Mon Sep 10 21:13:20 2018
### 

@<TRIPOS>MOLECULE
4qfp_ligand
   33    32     1     0     0
SMALL
GAST_HUCK


@<TRIPOS>ATOM
      1 N          14.8490    7.3070  -11.6520 N.4       1 VAL         0.2381
      2 CA         13.9260    6.1850  -11.5110 C.3       1 VAL         0.0673
      3 C          13.0950    6.3010  -10.2410 C.2       1 VAL         0.2265
      4 O          13.3860    7.1030   -9.3590 O.2       1 VAL        -0.3908
      5 CB         14.6780    4.8480  -11.4180 C.3       1 VAL         0.0139
      6 CG1        15.4530    4.5530  -12.6990 C.3       1 VAL        -0.0553
      7 CG2        15.6110    4.8580  -10.2120 C.3       1 VAL        -0.0553
      8 N          12.0610    5.4700  -10.1440 N.am      1 THR        -0.2642
      9 CA         11.2650    5.3780   -8.9270 C.3       1 THR         0.1199
     10 C          11.8170    4.2670   -8.0330 C.2       1 THR         0.0626
     11 O          11.4550    4.1240   -6.8520 O.co2     1 THR        -0.5665
     12 CB          9.7920    5.0790   -9.2490 C.3       1 THR         0.0869
     13 OG1         9.7240    3.9400  -10.1120 O.3       1 THR        -0.3880
     14 CG2         9.1410    6.2740   -9.9480 C.3       1 THR        -0.0352
     15 OXT        12.6400    3.4700   -8.4940 O.co2     1 THR        -0.5665
     16 H1         14.3262    8.1669  -11.7102 H         1 VAL         0.2015
     17 H2         15.3959    7.1889  -12.4905 H         1 VAL         0.2015
     18 H3         15.4622    7.3401  -10.8527 H         1 VAL         0.2015
     19 H4         13.2588    6.1705  -12.3854 H         1 VAL         0.1101
     20 H5         13.9377    4.0469  -11.2758 H         1 VAL         0.0376
     21 H6         15.9774    3.5914  -12.5970 H         1 VAL         0.0236
     22 H7         16.1863    5.3535  -12.8766 H         1 VAL         0.0236
     23 H8         14.7540    4.5013  -13.5468 H         1 VAL         0.0236
     24 H9         15.0315    5.0722   -9.3019 H         1 VAL         0.0236
     25 H10        16.3788    5.6337  -10.3488 H         1 VAL         0.0236
     26 H11        16.0957    3.8753  -10.1152 H         1 VAL         0.0236
     27 H12        11.8239    4.8938  -10.9261 H         1 VAL         0.1878
     28 H13        11.3250    6.3368   -8.3912 H         1 VAL         0.0752
     29 H14         9.2520    4.8664   -8.3146 H         1 VAL         0.0632
     30 H15         8.8152    3.7510  -10.3141 H         1 VAL         0.2100
     31 H16         8.0891    6.0407  -10.1696 H         1 VAL         0.0256
     32 H17         9.6751    6.4857  -10.8860 H         1 VAL         0.0256
     33 H18         9.1906    7.1548   -9.2909 H         1 VAL         0.0256
@<TRIPOS>BOND
     1    1    2 1  
     2    2    3 1  
     3    2    5 1  
     4    3    4 2  
     5    3    8 am 
     6    5    6 1  
     7    5    7 1  
     8    8    9 1  
     9    9   10 1  
    10    9   12 1  
    11   10   11 ar 
    12   10   15 ar 
    13   12   13 1  
    14   12   14 1  
    15    1   16 1  
    16    1   17 1  
    17    1   18 1  
    18    2   19 1  
    19    5   20 1  
    20    6   21 1  
    21    6   22 1  
    22    6   23 1  
    23    7   24 1  
    24    7   25 1  
    25    7   26 1  
    26    8   27 1  
    27    9   28 1  
    28   12   29 1  
    29   13   30 1  
    30   14   31 1  
    31   14   32 1  
    32   14   33 1  
@<TRIPOS>SUBSTRUCTURE
     1 VAL         1

