### 
### Created by X-TOOL on Mon Sep 10 21:13:19 2018
### 

@<TRIPOS>MOLECULE
4qfr_ligand
   38    41     1     0     0
SMALL
GAST_HUCK


@<TRIPOS>ATOM
      1 C4         42.1760  -80.8120  -39.3310 C.2       1 32J         0.1581
      2 N2         40.5720  -82.8040  -39.0150 N.1       1 32J        -0.3961
      3 C7         46.2070  -78.5140  -39.4770 C.2       1 32J         0.0991
      4 C6         45.8900  -79.7840  -39.3460 C.2       1 32J        -0.0112
      5 C9         46.8150  -81.9630  -40.1320 C.ar      1 32J        -0.0604
      6 C13        48.0870  -80.7000  -38.5510 C.ar      1 32J        -0.0604
      7 C20        41.2600  -81.9000  -39.1590 C.1       1 32J         0.0370
      8 C8         46.9350  -80.8410  -39.3240 C.ar      1 32J        -0.0351
      9 C18        51.2760  -85.6480  -38.4480 C.ar      1 32J        -0.0319
     10 C16        51.3280  -85.3530  -40.8190 C.ar      1 32J        -0.0723
     11 C19        50.4390  -84.5440  -38.3250 C.ar      1 32J         0.0976
     12 C1         44.4420  -79.9210  -39.3590 C.2       1 32J         0.0703
     13 C2         43.8360  -78.6840  -39.5320 C.2       1 32J         0.1830
     14 N1         42.4930  -78.4680  -39.6330 N.am      1 32J        -0.2005
     15 C3         41.5890  -79.5000  -39.5560 C.2       1 32J         0.2201
     16 C5         43.5500  -81.0630  -39.2390 C.2       1 32J         0.1315
     17 S1         44.9370  -77.3780  -39.6410 S.3       1 32J         0.0259
     18 C10        47.8140  -82.9160  -40.1680 C.ar      1 32J        -0.0593
     19 C11        48.9740  -82.7780  -39.4150 C.ar      1 32J        -0.0242
     20 C12        49.0950  -81.6460  -38.6120 C.ar      1 32J        -0.0593
     21 C14        50.0320  -83.8250  -39.4580 C.ar      1 32J         0.0108
     22 C15        50.5150  -84.2380  -40.7020 C.ar      1 32J        -0.0624
     23 C17        51.7050  -86.0550  -39.6970 C.ar      1 32J        -0.0705
     24 O1         50.0180  -84.2150  -37.0820 O.3       1 32J        -0.3306
     25 O2         44.0770  -82.3010  -39.0450 O.3       1 32J        -0.3108
     26 O3         40.3950  -79.2690  -39.7040 O.2       1 32J        -0.4145
     27 CL1        47.7540  -77.8270  -39.5090 Cl        1 32J        -0.0667
     28 H          45.9278  -82.0927  -40.7413 H         1 32J         0.0592
     29 H          48.1937  -79.8422  -37.8969 H         1 32J         0.0592
     30 H          51.5920  -86.1894  -37.5637 H         1 32J         0.0541
     31 H          51.6683  -85.6736  -41.7970 H         1 32J         0.0526
     32 H          42.1579  -77.5353  -39.7664 H         1 32J         0.2556
     33 H          47.6907  -83.7902  -40.7970 H         1 32J         0.0601
     34 H          49.9948  -81.5038  -38.0245 H         1 32J         0.0601
     35 H          50.2491  -83.6765  -41.5903 H         1 32J         0.0590
     36 H          52.3395  -86.9286  -39.7931 H         1 32J         0.0589
     37 H          50.3990  -84.8143  -36.4509 H         1 32J         0.2497
     38 H          43.3742  -82.9376  -38.9869 H         1 32J         0.2642
@<TRIPOS>BOND
     1    1    7 1  
     2    1   15 1  
     3   16    1 2  
     4    7    2 3  
     5    4    3 2  
     6    3   17 1  
     7    3   27 1  
     8    8    4 1  
     9    4   12 1  
    10    5    8 ar 
    11   18    5 ar 
    12    6    8 ar 
    13   20    6 ar 
    14   11    9 ar 
    15    9   23 ar 
    16   10   22 ar 
    17   23   10 ar 
    18   21   11 ar 
    19   11   24 1  
    20   12   13 2  
    21   12   16 1  
    22   13   14 1  
    23   13   17 1  
    24   14   15 am 
    25   15   26 2  
    26   16   25 1  
    27   19   18 ar 
    28   19   20 ar 
    29   19   21 1  
    30   21   22 ar 
    31    5   28 1  
    32    6   29 1  
    33    9   30 1  
    34   10   31 1  
    35   14   32 1  
    36   18   33 1  
    37   20   34 1  
    38   22   35 1  
    39   23   36 1  
    40   24   37 1  
    41   25   38 1  
@<TRIPOS>SUBSTRUCTURE
     1 32J         1

