### 
### Created by X-TOOL on Mon Sep 10 21:13:20 2018
### 

@<TRIPOS>MOLECULE
4qfs_ligand
   27    29     1     0     0
SMALL
GAST_HUCK


@<TRIPOS>ATOM
      1 C4         47.2020  -82.2910  -40.4890 C.ar      1 32H        -0.0541
      2 N2         40.0410  -82.3320  -39.2970 N.1       1 32H        -0.3957
      3 C7         45.2450  -79.2200  -39.5190 C.2       1 32H        -0.0127
      4 C6         46.2570  -80.3040  -39.5040 C.ar      1 32H        -0.0281
      5 C9         42.9200  -80.4810  -39.4610 C.2       1 32H         0.1334
      6 C13        45.6070  -77.9360  -39.5890 C.2       1 32H         0.0695
      7 C8         43.7990  -79.3360  -39.5110 C.2       1 32H         0.0747
      8 C1         47.3090  -80.2820  -38.5930 C.ar      1 32H        -0.0552
      9 C2         48.3080  -81.2370  -38.6400 C.ar      1 32H        -0.0541
     10 C3         48.2450  -82.2240  -39.5950 C.ar      1 32H         0.0107
     11 C5         46.2090  -81.3300  -40.4400 C.ar      1 32H        -0.0552
     12 C10        41.5560  -80.2540  -39.4590 C.2       1 32H         0.1591
     13 C11        40.9440  -78.9330  -39.5180 C.2       1 32H         0.2212
     14 O1         39.7400  -78.6940  -39.4880 O.2       1 32H        -0.4137
     15 N1         41.8400  -77.8880  -39.5820 N.am      1 32H        -0.1991
     16 C12        43.1920  -78.0910  -39.5750 C.2       1 32H         0.1847
     17 S1         44.3240  -76.8080  -39.6550 S.3       1 32H         0.0177
     18 BR1        47.3280  -77.2250  -39.6230 Br        1 32H        -0.0496
     19 C14        40.6820  -81.3850  -39.3710 C.1       1 32H         0.0376
     20 O2         43.4700  -81.7090  -39.4310 O.3       1 32H        -0.3103
     21 BR2        49.6390  -83.5020  -39.7020 Br        1 32H        -0.0515
     22 H          47.1589  -83.0875  -41.2231 H         1 32H         0.0637
     23 H          47.3457  -79.5062  -37.8368 H         1 32H         0.0612
     24 H          49.1296  -81.2078  -37.9335 H         1 32H         0.0637
     25 H          45.3830  -81.3776  -41.1403 H         1 32H         0.0612
     26 H          41.4906  -76.9525  -39.6352 H         1 32H         0.2563
     27 H          44.4168  -81.6310  -39.4388 H         1 32H         0.2645
@<TRIPOS>BOND
     1    1   10 ar 
     2   11    1 ar 
     3   19    2 3  
     4    3    4 1  
     5    3    6 2  
     6    7    3 1  
     7    4    8 ar 
     8    4   11 ar 
     9    5    7 1  
    10   12    5 2  
    11    5   20 1  
    12    6   17 1  
    13    6   18 1  
    14    7   16 2  
    15    8    9 ar 
    16    9   10 ar 
    17   10   21 1  
    18   12   13 1  
    19   12   19 1  
    20   13   14 2  
    21   13   15 am 
    22   15   16 1  
    23   16   17 1  
    24    1   22 1  
    25    8   23 1  
    26    9   24 1  
    27   11   25 1  
    28   15   26 1  
    29   20   27 1  
@<TRIPOS>SUBSTRUCTURE
     1 32H         1

