### 
### Created by X-TOOL on Mon Sep 10 21:13:18 2018
### 

@<TRIPOS>MOLECULE
4qg7_ligand
   61    64     1     0     0
SMALL
GAST_HUCK


@<TRIPOS>ATOM
      1 C1         12.5830   -3.1460    0.9450 C.3       1 32K        -0.0437
      2 C2         11.9980   -1.7760    0.8430 C.2       1 32K         0.0224
      3 C3         11.5450   -1.0620    1.8890 C.2       1 32K         0.0503
      4 N4         10.9870    0.1960    1.7830 N.am      1 32K        -0.1927
      5 C5         10.9060    0.8450    0.5710 C.2       1 32K         0.3248
      6 O6         10.4830    1.9880    0.4400 O.2       1 32K        -0.3843
      7 N7         11.3500    0.1070   -0.5080 N.am      1 32K        -0.1860
      8 C8         11.8940   -1.1580   -0.4950 C.2       1 32K         0.1930
      9 O9         12.2770   -1.7400   -1.5110 O.2       1 32K        -0.4079
     10 C10        10.4350    0.8740    2.9410 C.3       1 32K         0.1120
     11 C11         9.5780   -0.0170    3.8390 C.3       1 32K        -0.0132
     12 C12         9.0060    0.7870    4.9940 C.3       1 32K        -0.0096
     13 C13        10.1600    1.3970    5.7790 C.3       1 32K        -0.0305
     14 N14        10.9320    2.2800    4.8520 N.4       1 32K         0.2479
     15 C15        11.5370    1.5370    3.7150 C.3       1 32K        -0.0001
     16 C16        11.9240    3.2130    5.4590 C.3       1 32K        -0.0007
     17 C17        13.1390    2.5400    6.0310 C.ar      1 32K         0.0262
     18 C18        13.0840    2.1400    7.3530 C.ar      1 32K        -0.0700
     19 C19        14.1560    1.5020    7.9270 C.ar      1 32K        -0.0722
     20 C20        15.3090    1.2720    7.2020 C.ar      1 32K         0.0286
     21 C21        15.3850    1.6940    5.8830 C.ar      1 32K         0.1539
     22 C22        14.3040    2.3370    5.2970 C.ar      1 32K         0.1342
     23 O23        14.3860    2.7700    3.9680 O.3       1 32K        -0.3274
     24 C24        15.0840    4.0310    3.9470 C.3       1 32K         0.0554
     25 O25        16.5590    1.5200    5.1670 O.3       1 32K        -0.2600
     26 C26        16.6540    0.4670    4.2760 C.ar      1 32K         0.1146
     27 C27        15.8770   -0.6790    4.3480 C.ar      1 32K        -0.0287
     28 C28        16.0580   -1.6990    3.4270 C.ar      1 32K        -0.0693
     29 C29        17.0090   -1.5530    2.4360 C.ar      1 32K        -0.0585
     30 C30        17.7830   -0.4090    2.3830 C.ar      1 32K         0.0326
     31 C31        17.6220    0.6060    3.3040 C.ar      1 32K        -0.0150
     32 CL         18.9660   -0.1980    1.1470 Cl        1 32K        -0.0735
     33 C33        16.4250    0.5900    7.8690 C.2       1 32K         0.0521
     34 O34        16.8930    1.1270    8.9040 O.co2     1 32K        -0.5660
     35 O35        16.8280   -0.4820    7.3640 O.co2     1 32K        -0.5660
     36 H          12.5912   -3.4637    1.9981 H         1 32K         0.0296
     37 H          13.6123   -3.1350    0.5573 H         1 32K         0.0296
     38 H          11.9764   -3.8486    0.3548 H         1 32K         0.0296
     39 H          11.6233   -1.5039    2.8812 H         1 32K         0.1010
     40 H          11.2668    0.5423   -1.4045 H         1 32K         0.2259
     41 H           9.7738    1.6674    2.5626 H         1 32K         0.0696
     42 H          10.1985   -0.8330    4.2380 H         1 32K         0.0298
     43 H           8.7522   -0.4397    3.2479 H         1 32K         0.0298
     44 H           8.4191    0.1274    5.6501 H         1 32K         0.0318
     45 H           8.3590    1.5868    4.6045 H         1 32K         0.0318
     46 H          10.8121    0.5996    6.1648 H         1 32K         0.0814
     47 H           9.7684    1.9891    6.6192 H         1 32K         0.0814
     48 H          10.2339    2.8806    4.4422 H         1 32K         0.2047
     49 H          12.0809    2.2357    3.0623 H         1 32K         0.0844
     50 H          12.2325    0.7754    4.0973 H         1 32K         0.0844
     51 H          11.4251    3.7674    6.2675 H         1 32K         0.0958
     52 H          12.2548    3.9172    4.6814 H         1 32K         0.0958
     53 H          12.1918    2.3306    7.9385 H         1 32K         0.0454
     54 H          14.0968    1.1757    8.9590 H         1 32K         0.0515
     55 H          15.1601    4.3907    2.9103 H         1 32K         0.0570
     56 H          16.0932    3.8985    4.3641 H         1 32K         0.0570
     57 H          14.5314    4.7661    4.5505 H         1 32K         0.0570
     58 H          15.1275   -0.7774    5.1250 H         1 32K         0.0553
     59 H          15.4598   -2.6012    3.4839 H         1 32K         0.0590
     60 H          17.1484   -2.3360    1.6994 H         1 32K         0.0533
     61 H          18.2432    1.4935    3.2641 H         1 32K         0.0556
@<TRIPOS>BOND
     1    1    2 1  
     2    2    3 2  
     3    2    8 1  
     4    3    4 1  
     5    4    5 am 
     6    4   10 1  
     7    5    6 2  
     8    5    7 am 
     9    7    8 am 
    10    8    9 2  
    11   10   11 1  
    12   10   15 1  
    13   11   12 1  
    14   12   13 1  
    15   13   14 1  
    16   14   15 1  
    17   14   16 1  
    18   16   17 1  
    19   17   18 ar 
    20   17   22 ar 
    21   18   19 ar 
    22   19   20 ar 
    23   20   21 ar 
    24   20   33 1  
    25   21   22 ar 
    26   21   25 1  
    27   22   23 1  
    28   23   24 1  
    29   25   26 1  
    30   26   27 ar 
    31   26   31 ar 
    32   27   28 ar 
    33   28   29 ar 
    34   29   30 ar 
    35   30   31 ar 
    36   30   32 1  
    37   33   34 ar 
    38   33   35 ar 
    39    1   36 1  
    40    1   37 1  
    41    1   38 1  
    42    3   39 1  
    43    7   40 1  
    44   10   41 1  
    45   11   42 1  
    46   11   43 1  
    47   12   44 1  
    48   12   45 1  
    49   13   46 1  
    50   13   47 1  
    51   14   48 1  
    52   15   49 1  
    53   15   50 1  
    54   16   51 1  
    55   16   52 1  
    56   18   53 1  
    57   19   54 1  
    58   24   55 1  
    59   24   56 1  
    60   24   57 1  
    61   27   58 1  
    62   28   59 1  
    63   29   60 1  
    64   31   61 1  
@<TRIPOS>SUBSTRUCTURE
     1 32K         1

