### 
### Created by X-TOOL on Mon Sep 10 21:13:18 2018
### 

@<TRIPOS>MOLECULE
4qga_ligand
   57    60     1     0     0
SMALL
GAST_HUCK


@<TRIPOS>ATOM
      1 C1         12.7840   -3.0320    1.0020 C.3       1 31Z        -0.0437
      2 C2         12.1800   -1.6850    0.8480 C.2       1 31Z         0.0224
      3 C3         11.7680   -0.9530    1.8980 C.2       1 31Z         0.0503
      4 N4         11.2050    0.3020    1.7890 N.am      1 31Z        -0.1927
      5 C5         11.0450    0.9090    0.5620 C.2       1 31Z         0.3248
      6 O6         10.5880    2.0370    0.4230 O.2       1 31Z        -0.3843
      7 N7         11.4340    0.1550   -0.5240 N.am      1 31Z        -0.1860
      8 C8         12.0040   -1.0990   -0.5040 C.2       1 31Z         0.1930
      9 O9         12.3270   -1.6860   -1.5320 O.2       1 31Z        -0.4079
     10 C10        10.6600    0.9880    2.9420 C.3       1 31Z         0.1120
     11 C11         9.7720    0.1050    3.8310 C.3       1 31Z        -0.0132
     12 C12         9.1930    0.8570    5.0200 C.3       1 31Z        -0.0096
     13 C13        10.2750    1.5970    5.7810 C.3       1 31Z        -0.0303
     14 N14        11.0690    2.4490    4.8360 N.4       1 31Z         0.2490
     15 C15        11.7170    1.6630    3.7490 C.3       1 31Z        -0.0000
     16 C16        12.0700    3.3140    5.5360 C.3       1 31Z         0.0019
     17 C17        13.2690    2.5920    6.0980 C.ar      1 31Z         0.0304
     18 C18        13.2120    2.1790    7.4140 C.ar      1 31Z        -0.0633
     19 C19        14.2650    1.5070    7.9860 C.ar      1 31Z        -0.0652
     20 C20        15.4070    1.2530    7.2560 C.ar      1 31Z         0.0352
     21 C21        15.4780    1.6750    5.9410 C.ar      1 31Z         0.1584
     22 C22        14.4240    2.3520    5.3660 C.ar      1 31Z         0.1733
     23 F23        14.5530    2.7660    4.0830 F         1 31Z        -0.1942
     24 O24        16.6260    1.4910    5.1860 O.3       1 31Z        -0.2560
     25 C25        16.7150    0.4540    4.2660 C.ar      1 31Z         0.1166
     26 C26        15.8880   -0.6590    4.2590 C.ar      1 31Z        -0.0283
     27 C27        16.0770   -1.6480    3.3070 C.ar      1 31Z        -0.0691
     28 C28        17.0820   -1.5230    2.3690 C.ar      1 31Z        -0.0583
     29 C29        17.8980   -0.4120    2.3730 C.ar      1 31Z         0.0327
     30 C30        17.7200    0.5730    3.3250 C.ar      1 31Z        -0.0146
     31 CL         19.1540   -0.2270    1.1970 Cl        1 31Z        -0.0734
     32 C32        16.5090    0.5310    7.9240 C.2       1 31Z         0.0537
     33 O33        16.9610    1.0270    8.9910 O.co2     1 31Z        -0.5659
     34 O34        16.8970   -0.5360    7.3890 O.co2     1 31Z        -0.5659
     35 H          12.8309   -3.2929    2.0696 H         1 31Z         0.0296
     36 H          13.8000   -3.0287    0.5804 H         1 31Z         0.0296
     37 H          12.1687   -3.7727    0.4703 H         1 31Z         0.0296
     38 H          11.8858   -1.3762    2.8945 H         1 31Z         0.1010
     39 H          11.2864    0.5627   -1.4251 H         1 31Z         0.2259
     40 H          10.0098    1.7818    2.5456 H         1 31Z         0.0696
     41 H          10.3753   -0.7346    4.2065 H         1 31Z         0.0298
     42 H           8.9417   -0.2832    3.2228 H         1 31Z         0.0298
     43 H           8.7062    0.1388    5.6962 H         1 31Z         0.0318
     44 H           8.4492    1.5821    4.6582 H         1 31Z         0.0318
     45 H          10.9428    0.8698    6.2659 H         1 31Z         0.0815
     46 H           9.8110    2.2361    6.5467 H         1 31Z         0.0815
     47 H          10.4099    3.0690    4.3918 H         1 31Z         0.2049
     48 H          12.2998    2.3368    3.1038 H         1 31Z         0.0844
     49 H          12.3848    0.9072    4.1881 H         1 31Z         0.0844
     50 H          11.5582    3.8202    6.3678 H         1 31Z         0.0976
     51 H          12.4318    4.0640    4.8173 H         1 31Z         0.0976
     52 H          12.3261    2.3873    8.0029 H         1 31Z         0.0471
     53 H          14.1978    1.1750    9.0157 H         1 31Z         0.0575
     54 H          15.0976   -0.7549    4.9946 H         1 31Z         0.0554
     55 H          15.4347   -2.5212    3.2989 H         1 31Z         0.0591
     56 H          17.2298   -2.3001    1.6278 H         1 31Z         0.0534
     57 H          18.3697    1.4407    3.3339 H         1 31Z         0.0557
@<TRIPOS>BOND
     1    1    2 1  
     2    2    3 2  
     3    2    8 1  
     4    3    4 1  
     5    4    5 am 
     6    4   10 1  
     7    5    6 2  
     8    5    7 am 
     9    7    8 am 
    10    8    9 2  
    11   10   11 1  
    12   10   15 1  
    13   11   12 1  
    14   12   13 1  
    15   13   14 1  
    16   14   15 1  
    17   14   16 1  
    18   16   17 1  
    19   17   18 ar 
    20   17   22 ar 
    21   18   19 ar 
    22   19   20 ar 
    23   20   21 ar 
    24   20   32 1  
    25   21   22 ar 
    26   21   24 1  
    27   22   23 1  
    28   24   25 1  
    29   25   26 ar 
    30   25   30 ar 
    31   26   27 ar 
    32   27   28 ar 
    33   28   29 ar 
    34   29   30 ar 
    35   29   31 1  
    36   32   33 ar 
    37   32   34 ar 
    38    1   35 1  
    39    1   36 1  
    40    1   37 1  
    41    3   38 1  
    42    7   39 1  
    43   10   40 1  
    44   11   41 1  
    45   11   42 1  
    46   12   43 1  
    47   12   44 1  
    48   13   45 1  
    49   13   46 1  
    50   14   47 1  
    51   15   48 1  
    52   15   49 1  
    53   16   50 1  
    54   16   51 1  
    55   18   52 1  
    56   19   53 1  
    57   26   54 1  
    58   27   55 1  
    59   28   56 1  
    60   30   57 1  
@<TRIPOS>SUBSTRUCTURE
     1 31Z         1

