### 
### Created by X-TOOL on Mon Sep 10 21:13:18 2018
### 

@<TRIPOS>MOLECULE
4qgd_ligand
   38    39     1     0     0
SMALL
GAST_HUCK


@<TRIPOS>ATOM
      1 C2        -21.9300    6.6380    8.1490 C.2       1 PZZ         0.0203
      2 C3        -21.7210    7.7050    7.2110 C.2       1 PZZ        -0.0043
      3 N1        -21.7500    5.4150    7.4890 N.pl3     1 PZZ        -0.2911
      4 C4        -21.1020    7.6690    4.7110 C.ar      1 PZZ        -0.0825
      5 C5        -20.8130    6.8040    3.6610 C.ar      1 PZZ        -0.0872
      6 C6        -20.8440    5.4100    3.7720 C.ar      1 PZZ        -0.0758
      7 C7        -21.1360    4.7640    4.9550 C.ar      1 PZZ        -0.0241
      8 C8        -21.4030    7.0700    5.9250 C.ar      1 PZZ        -0.0230
      9 C9        -21.4500    5.6110    6.1420 C.ar      1 PZZ         0.0640
     10 C10       -21.7790    9.2270    7.2710 C.3       1 PZZ        -0.0153
     11 N11       -21.4800    9.9160    8.5330 N.4       1 PZZ         0.2376
     12 C12       -21.5830   11.3490    8.2010 C.3       1 PZZ        -0.0426
     13 C13       -22.3880    9.6390    9.6770 C.3       1 PZZ        -0.0426
     14 C14       -21.0930    3.2340    5.0400 C.3       1 PZZ        -0.0196
     15 C15       -20.9820    2.5180    3.6780 C.3       1 PZZ        -0.0211
     16 C16       -19.6100    1.8560    3.4440 C.3       1 PZZ         0.0458
     17 O17       -19.1270    0.9240    4.4870 O.3       1 PZZ        -0.3949
     18 H         -22.1863    6.7593    9.2004 H         1 PZZ         0.0795
     19 H         -21.8290    4.4924    7.9400 H         1 PZZ         0.2205
     20 H         -21.0925    8.7460    4.5879 H         1 PZZ         0.0473
     21 H         -20.5487    7.2346    2.7020 H         1 PZZ         0.0490
     22 H         -20.6299    4.8133    2.8927 H         1 PZZ         0.0456
     23 H         -22.7992    9.5193    6.9816 H         1 PZZ         0.0898
     24 H         -21.0641    9.6034    6.5246 H         1 PZZ         0.0898
     25 H         -20.5406    9.6841    8.8155 H         1 PZZ         0.2035
     26 H         -21.3721   11.9493    9.0983 H         1 PZZ         0.0777
     27 H         -22.5991   11.5702    7.8424 H         1 PZZ         0.0777
     28 H         -20.8546   11.5965    7.4147 H         1 PZZ         0.0777
     29 H         -22.3279    8.5734    9.9431 H         1 PZZ         0.0777
     30 H         -23.4212    9.8885    9.3938 H         1 PZZ         0.0777
     31 H         -22.0867   10.2501   10.5406 H         1 PZZ         0.0777
     32 H         -22.0146    2.8917    5.5334 H         1 PZZ         0.0411
     33 H         -20.2230    2.9485    5.6495 H         1 PZZ         0.0411
     34 H         -21.1531    3.2565    2.8809 H         1 PZZ         0.0308
     35 H         -21.7575    1.7394    3.6292 H         1 PZZ         0.0308
     36 H         -18.8657    2.6602    3.3472 H         1 PZZ         0.0558
     37 H         -19.6689    1.2952    2.4995 H         1 PZZ         0.0558
     38 H         -18.2778    0.5809    4.2348 H         1 PZZ         0.2094
@<TRIPOS>BOND
     1    2    1 2  
     2    1    3 1  
     3    8    2 1  
     4    2   10 1  
     5    3    9 1  
     6    4    5 ar 
     7    4    8 ar 
     8    5    6 ar 
     9    6    7 ar 
    10    7    9 ar 
    11    7   14 1  
    12    8    9 ar 
    13   10   11 1  
    14   11   12 1  
    15   11   13 1  
    16   14   15 1  
    17   15   16 1  
    18   16   17 1  
    19    1   18 1  
    20    3   19 1  
    21    4   20 1  
    22    5   21 1  
    23    6   22 1  
    24   10   23 1  
    25   10   24 1  
    26   11   25 1  
    27   12   26 1  
    28   12   27 1  
    29   12   28 1  
    30   13   29 1  
    31   13   30 1  
    32   13   31 1  
    33   14   32 1  
    34   14   33 1  
    35   15   34 1  
    36   15   35 1  
    37   16   36 1  
    38   16   37 1  
    39   17   38 1  
@<TRIPOS>SUBSTRUCTURE
     1 PZZ         1

