### 
### Created by X-TOOL on Mon Sep 10 21:13:17 2018
### 

@<TRIPOS>MOLECULE
4qgf_ligand
   67    70     1     0     0
SMALL
GAST_HUCK


@<TRIPOS>ATOM
      1 C1         13.0440    5.4610    5.5860 C.3       1 32B        -0.0585
      2 C2         12.0980    4.4950    4.8960 C.3       1 32B        -0.0040
      3 C3         11.9080    3.1910    5.6720 C.3       1 32B         0.0099
      4 C4         13.1720    2.4930    6.1250 C.ar      1 32B         0.0293
      5 C5         13.1430    2.1290    7.4590 C.ar      1 32B        -0.0697
      6 C6         14.1970    1.4660    8.0420 C.ar      1 32B        -0.0722
      7 C7         15.3230    1.1840    7.2940 C.ar      1 32B         0.0286
      8 C8         15.3700    1.5550    5.9590 C.ar      1 32B         0.1539
      9 C9         14.3120    2.2240    5.3630 C.ar      1 32B         0.1344
     10 O10        14.3890    2.5930    4.0030 O.3       1 32B        -0.3274
     11 C11        15.4380    3.5420    3.7400 C.3       1 32B         0.0554
     12 O12        16.5310    1.3120    5.2580 O.3       1 32B        -0.2600
     13 C13        16.5840    0.3220    4.2920 C.ar      1 32B         0.1146
     14 C14        15.7640   -0.7930    4.2920 C.ar      1 32B        -0.0287
     15 C15        15.9070   -1.7410    3.2970 C.ar      1 32B        -0.0693
     16 C16        16.8670   -1.5830    2.3230 C.ar      1 32B        -0.0585
     17 C17        17.6870   -0.4720    2.3480 C.ar      1 32B         0.0326
     18 C18        17.5630    0.4870    3.3360 C.ar      1 32B        -0.0150
     19 CL         18.8830   -0.2610    1.1330 Cl        1 32B        -0.0735
     20 C20        16.4430    0.4850    7.9570 C.2       1 32B         0.0521
     21 O21        16.8330   -0.6070    7.4630 O.co2     1 32B        -0.5660
     22 O22        16.8990    1.0210    8.9980 O.co2     1 32B        -0.5660
     23 N23        10.9460    2.3150    4.9090 N.4       1 32B         0.2500
     24 C24        10.2060    1.3490    5.8010 C.3       1 32B        -0.0302
     25 C25         9.0640    0.7360    5.0100 C.3       1 32B        -0.0096
     26 C26         9.5960    0.0350    3.7610 C.3       1 32B        -0.0132
     27 C27        10.4740    0.9560    2.9020 C.3       1 32B         0.1120
     28 C28        11.5450    1.6190    3.7330 C.3       1 32B         0.0001
     29 N29        11.0500    0.2860    1.7440 N.am      1 32B        -0.1927
     30 C30        11.6110   -0.9790    1.8660 C.2       1 32B         0.0503
     31 C31        12.0500   -1.7150    0.8270 C.2       1 32B         0.0224
     32 C32        11.9110   -1.1260   -0.5290 C.2       1 32B         0.1930
     33 O33        12.2640   -1.7380   -1.5360 O.2       1 32B        -0.4079
     34 N34        11.3350    0.1250   -0.5640 N.am      1 32B        -0.1860
     35 C35        10.9230    0.8950    0.5150 C.2       1 32B         0.3248
     36 O36        10.4830    2.0340    0.3650 O.2       1 32B        -0.3843
     37 C37        12.6500   -3.0760    0.9450 C.3       1 32B        -0.0437
     38 H          13.1391    6.3754    4.9820 H         1 32B         0.0233
     39 H          14.0320    4.9904    5.6969 H         1 32B         0.0233
     40 H          12.6464    5.7173    6.5791 H         1 32B         0.0233
     41 H          12.5041    4.2558    3.9021 H         1 32B         0.0337
     42 H          11.1184    4.9827    4.7843 H         1 32B         0.0337
     43 H          11.3945    3.4691    6.6042 H         1 32B         0.0995
     44 H          12.2718    2.3713    8.0569 H         1 32B         0.0454
     45 H          14.1444    1.1665    9.0825 H         1 32B         0.0515
     46 H          15.4480    3.7898    2.6683 H         1 32B         0.0570
     47 H          16.4069    3.1058    4.0245 H         1 32B         0.0570
     48 H          15.2611    4.4559    4.3260 H         1 32B         0.0570
     49 H          15.0160   -0.9214    5.0660 H         1 32B         0.0553
     50 H          15.2614   -2.6117    3.2833 H         1 32B         0.0590
     51 H          16.9786   -2.3258    1.5415 H         1 32B         0.0533
     52 H          18.2204    1.3486    3.3583 H         1 32B         0.0556
     53 H          10.2501    2.9401    4.5335 H         1 32B         0.2050
     54 H           9.8060    1.8838    6.6751 H         1 32B         0.0815
     55 H          10.8907    0.5566    6.1376 H         1 32B         0.0815
     56 H           8.3643    1.5298    4.7096 H         1 32B         0.0318
     57 H           8.5388    0.0035    5.6405 H         1 32B         0.0318
     58 H           8.7425   -0.3045    3.1558 H         1 32B         0.0298
     59 H          10.1942   -0.8343    4.0716 H         1 32B         0.0298
     60 H           9.8196    1.7520    2.5172 H         1 32B         0.0696
     61 H          12.2517    0.8543    4.0876 H         1 32B         0.0844
     62 H          12.0800    2.3534    3.1129 H         1 32B         0.0844
     63 H          11.7016   -1.4024    2.8652 H         1 32B         0.1010
     64 H          11.1980    0.5241   -1.4706 H         1 32B         0.2259
     65 H          12.6844   -3.3709    2.0042 H         1 32B         0.0296
     66 H          13.6704   -3.0637    0.5345 H         1 32B         0.0296
     67 H          12.0375   -3.7967    0.3835 H         1 32B         0.0296
@<TRIPOS>BOND
     1    1    2 1  
     2    2    3 1  
     3    3    4 1  
     4    3   23 1  
     5    4    5 ar 
     6    4    9 ar 
     7    5    6 ar 
     8    6    7 ar 
     9    7    8 ar 
    10    7   20 1  
    11    8    9 ar 
    12    8   12 1  
    13    9   10 1  
    14   10   11 1  
    15   12   13 1  
    16   13   14 ar 
    17   13   18 ar 
    18   14   15 ar 
    19   15   16 ar 
    20   16   17 ar 
    21   17   18 ar 
    22   17   19 1  
    23   20   21 ar 
    24   20   22 ar 
    25   23   24 1  
    26   23   28 1  
    27   24   25 1  
    28   25   26 1  
    29   26   27 1  
    30   27   28 1  
    31   27   29 1  
    32   29   30 1  
    33   29   35 am 
    34   30   31 2  
    35   31   32 1  
    36   31   37 1  
    37   32   33 2  
    38   32   34 am 
    39   34   35 am 
    40   35   36 2  
    41    1   38 1  
    42    1   39 1  
    43    1   40 1  
    44    2   41 1  
    45    2   42 1  
    46    3   43 1  
    47    5   44 1  
    48    6   45 1  
    49   11   46 1  
    50   11   47 1  
    51   11   48 1  
    52   14   49 1  
    53   15   50 1  
    54   16   51 1  
    55   18   52 1  
    56   23   53 1  
    57   24   54 1  
    58   24   55 1  
    59   25   56 1  
    60   25   57 1  
    61   26   58 1  
    62   26   59 1  
    63   27   60 1  
    64   28   61 1  
    65   28   62 1  
    66   30   63 1  
    67   34   64 1  
    68   37   65 1  
    69   37   66 1  
    70   37   67 1  
@<TRIPOS>SUBSTRUCTURE
     1 32B         1

