### 
### Created by X-TOOL on Mon Sep 10 21:13:19 2018
### 

@<TRIPOS>MOLECULE
4qgg_ligand
   69    72     1     0     0
SMALL
GAST_HUCK


@<TRIPOS>ATOM
      1 C1         13.3220   -3.2130    1.2540 C.3       1 32C        -0.0437
      2 C2         12.7760   -1.8340    1.0680 C.2       1 32C         0.0224
      3 C3         12.3460   -1.0720    2.0860 C.2       1 32C         0.0503
      4 N4         11.8420    0.2070    1.9560 N.am      1 32C        -0.1927
      5 C5         11.7590    0.8120    0.7060 C.2       1 32C         0.3248
      6 O6         11.3710    1.9670    0.5520 O.2       1 32C        -0.3843
      7 N7         12.1750    0.0290   -0.3620 N.am      1 32C        -0.1860
      8 C8         12.6740   -1.2700   -0.2890 C.2       1 32C         0.1930
      9 O9         13.0480   -1.9020   -1.2640 O.2       1 32C        -0.4079
     10 C10        11.4590    0.9710    3.1450 C.3       1 32C         0.1120
     11 C11        10.5560    0.1750    4.0980 C.3       1 32C        -0.0132
     12 C12        10.2130    1.0270    5.3150 C.3       1 32C        -0.0096
     13 C13        11.4900    1.4920    6.0070 C.3       1 32C        -0.0300
     14 N14        12.2580    2.3070    5.0050 N.4       1 32C         0.2511
     15 C15        12.7170    1.4340    3.8780 C.3       1 32C         0.0003
     16 C16        13.3370    3.1470    5.6550 C.3       1 32C         0.0130
     17 C17        13.7580    4.3010    4.7240 C.3       1 32C         0.0024
     18 C18        14.9070    5.2130    5.1420 C.3       1 32C        -0.0398
     19 C19        14.6420    6.0000    6.4120 C.3       1 32C        -0.0623
     20 C20        15.3080    6.1370    4.0070 C.3       1 32C        -0.0623
     21 C21        14.5200    2.3670    6.1820 C.ar      1 32C         0.0334
     22 C22        14.4270    2.0780    7.5300 C.ar      1 32C        -0.0630
     23 C23        15.4210    1.3950    8.1860 C.ar      1 32C        -0.0652
     24 C24        16.5370    0.9840    7.4980 C.ar      1 32C         0.0352
     25 C25        16.6630    1.2870    6.1500 C.ar      1 32C         0.1584
     26 C26        15.6670    1.9730    5.4960 C.ar      1 32C         0.1736
     27 F27        15.8550    2.2620    4.1960 F         1 32C        -0.1942
     28 O28        17.8330    0.9530    5.4960 O.3       1 32C        -0.2560
     29 C29        17.7990    0.0470    4.4380 C.ar      1 32C         0.1166
     30 C30        16.9240   -1.0200    4.4050 C.ar      1 32C        -0.0283
     31 C31        16.9420   -1.9020    3.3360 C.ar      1 32C        -0.0691
     32 C32        17.8540   -1.7100    2.3160 C.ar      1 32C        -0.0583
     33 C33        18.7180   -0.6270    2.3520 C.ar      1 32C         0.0327
     34 C34        18.6990    0.2630    3.4150 C.ar      1 32C        -0.0146
     35 C36        17.5610    0.2470    8.2340 C.2       1 32C         0.0537
     36 O37        17.9090   -0.8560    7.7270 O.co2     1 32C        -0.5659
     37 O38        17.9900    0.7750    9.3010 O.co2     1 32C        -0.5659
     38 CL         19.8390   -0.3650    1.0660 Cl        1 32C        -0.0734
     39 H          13.3237   -3.4653    2.3247 H         1 32C         0.0296
     40 H          14.3502   -3.2557    0.8656 H         1 32C         0.0296
     41 H          12.6938   -3.9328    0.7087 H         1 32C         0.0296
     42 H          12.3985   -1.4937    3.0887 H         1 32C         0.1010
     43 H          12.1103    0.4370   -1.2727 H         1 32C         0.2259
     44 H          10.9006    1.8588    2.8135 H         1 32C         0.0696
     45 H          11.0815   -0.7343    4.4250 H         1 32C         0.0298
     46 H           9.6296   -0.1048    3.5751 H         1 32C         0.0298
     47 H           9.6142    0.4308    6.0193 H         1 32C         0.0318
     48 H           9.6337    1.9048    4.9928 H         1 32C         0.0318
     49 H          12.0859    0.6236    6.3245 H         1 32C         0.0815
     50 H          11.2421    2.1072    6.8845 H         1 32C         0.0815
     51 H          11.6064    2.9630    4.6036 H         1 32C         0.2052
     52 H          13.3656    2.0038    3.1963 H         1 32C         0.0844
     53 H          13.2688    0.5669    4.2700 H         1 32C         0.0844
     54 H          12.8710    3.6110    6.5368 H         1 32C         0.1012
     55 H          12.8741    4.9408    4.5853 H         1 32C         0.0345
     56 H          14.0394    3.8505    3.7608 H         1 32C         0.0345
     57 H          15.7673    4.5598    5.3501 H         1 32C         0.0299
     58 H          15.5145    6.6290    6.6423 H         1 32C         0.0232
     59 H          14.4622    5.3035    7.2442 H         1 32C         0.0232
     60 H          13.7573    6.6381    6.2701 H         1 32C         0.0232
     61 H          15.4942    5.5437    3.0996 H         1 32C         0.0232
     62 H          16.2230    6.6815    4.2832 H         1 32C         0.0232
     63 H          14.4975    6.8555    3.8153 H         1 32C         0.0232
     64 H          13.5502    2.3975    8.0815 H         1 32C         0.0472
     65 H          15.3256    1.1805    9.2443 H         1 32C         0.0575
     66 H          16.2212   -1.1685    5.2169 H         1 32C         0.0554
     67 H          16.2478   -2.7338    3.3005 H         1 32C         0.0591
     68 H          17.8938   -2.4071    1.4868 H         1 32C         0.0534
     69 H          19.3759    1.1093    3.4416 H         1 32C         0.0557
@<TRIPOS>BOND
     1    1    2 1  
     2    2    3 2  
     3    2    8 1  
     4    3    4 1  
     5    4    5 am 
     6    4   10 1  
     7    5    6 2  
     8    5    7 am 
     9    7    8 am 
    10    8    9 2  
    11   10   11 1  
    12   10   15 1  
    13   11   12 1  
    14   12   13 1  
    15   13   14 1  
    16   14   15 1  
    17   14   16 1  
    18   16   17 1  
    19   16   21 1  
    20   17   18 1  
    21   18   19 1  
    22   18   20 1  
    23   21   22 ar 
    24   21   26 ar 
    25   22   23 ar 
    26   23   24 ar 
    27   24   25 ar 
    28   24   35 1  
    29   25   26 ar 
    30   25   28 1  
    31   26   27 1  
    32   28   29 1  
    33   29   30 ar 
    34   29   34 ar 
    35   30   31 ar 
    36   31   32 ar 
    37   32   33 ar 
    38   33   34 ar 
    39   33   38 1  
    40   35   36 ar 
    41   35   37 ar 
    42    1   39 1  
    43    1   40 1  
    44    1   41 1  
    45    3   42 1  
    46    7   43 1  
    47   10   44 1  
    48   11   45 1  
    49   11   46 1  
    50   12   47 1  
    51   12   48 1  
    52   13   49 1  
    53   13   50 1  
    54   14   51 1  
    55   15   52 1  
    56   15   53 1  
    57   16   54 1  
    58   17   55 1  
    59   17   56 1  
    60   18   57 1  
    61   19   58 1  
    62   19   59 1  
    63   19   60 1  
    64   20   61 1  
    65   20   62 1  
    66   20   63 1  
    67   22   64 1  
    68   23   65 1  
    69   30   66 1  
    70   31   67 1  
    71   32   68 1  
    72   34   69 1  
@<TRIPOS>SUBSTRUCTURE
     1 32C         1

