### 
### Created by X-TOOL on Mon Sep 10 21:13:17 2018
### 

@<TRIPOS>MOLECULE
4qgh_ligand
   69    72     1     0     0
SMALL
GAST_HUCK


@<TRIPOS>ATOM
      1 C31        15.9880   -2.0650    3.1700 C.ar      1 32E        -0.0691
      2 C23        14.4520    0.9130    8.1210 C.ar      1 32E        -0.0652
      3 C22        13.4400    1.6810    7.5640 C.ar      1 32E        -0.0630
      4 C30        15.9240   -1.1540    4.2120 C.ar      1 32E        -0.0283
      5 C32        16.9300   -1.8830    2.1680 C.ar      1 32E        -0.0583
      6 C34        17.7050    0.1350    3.2640 C.ar      1 32E        -0.0146
      7 C24        15.5810    0.6340    7.3740 C.ar      1 32E         0.0352
      8 C21        13.5180    2.1530    6.2540 C.ar      1 32E         0.0334
      9 C29        16.7820   -0.0750    4.2680 C.ar      1 32E         0.1166
     10 C25        15.6620    1.0740    6.0640 C.ar      1 32E         0.1584
     11 C26        14.6480    1.8390    5.5220 C.ar      1 32E         0.1736
     12 C33        17.7520   -0.7730    2.2230 C.ar      1 32E         0.0327
     13 C3         11.4530   -1.1250    2.1470 C.2       1 32E         0.0503
     14 C2         11.8380   -1.8750    1.0970 C.2       1 32E         0.0224
     15 C8         11.6200   -1.2910   -0.2490 C.2       1 32E         0.1930
     16 C5         10.7320    0.7630    0.8240 C.2       1 32E         0.3248
     17 C36        16.6700   -0.1790    7.9520 C.2       1 32E         0.0537
     18 C12         9.2760    0.8880    5.4350 C.3       1 32E        -0.0096
     19 C11         9.6520    0.0570    4.2160 C.3       1 32E        -0.0132
     20 C13        10.5610    1.4200    6.0440 C.3       1 32E        -0.0300
     21 C15        11.7010    1.4900    3.9190 C.3       1 32E         0.0003
     22 C10        10.4820    0.8870    3.2300 C.3       1 32E         0.1120
     23 C1         12.4410   -3.2430    1.2310 C.3       1 32E        -0.0437
     24 C19        13.7670    5.7860    5.6120 C.3       1 32E        -0.0623
     25 C20        12.5230    6.2930    7.6950 C.3       1 32E        -0.0623
     26 C17        12.0180    4.1740    6.5160 C.3       1 32E         0.0024
     27 C16        12.4480    3.0180    5.5960 C.3       1 32E         0.0130
     28 C18        13.1070    5.1850    6.8390 C.3       1 32E        -0.0398
     29 N7         11.0880   -0.0030   -0.2680 N.am      1 32E        -0.1860
     30 N4         10.8910    0.1360    2.0440 N.am      1 32E        -0.1927
     31 N14        11.2670    2.2820    5.0730 N.4       1 32E         0.2511
     32 O9         11.8990   -1.8990   -1.2820 O.2       1 32E        -0.4079
     33 O6         10.3320    1.9200    0.7080 O.2       1 32E        -0.3843
     34 O37        17.1640   -1.1550    7.4100 O.co2     1 32E        -0.5659
     35 O38        17.0350    0.3170    9.1620 O.co2     1 32E        -0.5659
     36 O28        16.7900    0.8660    5.3030 O.3       1 32E        -0.2560
     37 F27        14.8020    2.2760    4.2480 F         1 32E        -0.1942
     38 CL         18.8980   -0.4940    0.9790 Cl        1 32E        -0.0734
     39 H          15.3099   -2.9101    3.1381 H         1 32E         0.0591
     40 H          14.3583    0.5352    9.1327 H         1 32E         0.0575
     41 H          12.5676    1.9200    8.1613 H         1 32E         0.0472
     42 H          15.1879   -1.2912    4.9959 H         1 32E         0.0554
     43 H          17.0197   -2.5974    1.3576 H         1 32E         0.0534
     44 H          18.3740    0.9875    3.2909 H         1 32E         0.0557
     45 H          11.5932   -1.5384    3.1447 H         1 32E         0.1010
     46 H           8.7459    0.2610    6.1670 H         1 32E         0.0318
     47 H           8.6297    1.7253    5.1330 H         1 32E         0.0318
     48 H           8.7344   -0.2864    3.7159 H         1 32E         0.0298
     49 H          10.2408   -0.8138    4.5401 H         1 32E         0.0298
     50 H          11.2098    0.5753    6.3189 H         1 32E         0.0815
     51 H          10.3214    2.0063    6.9434 H         1 32E         0.0815
     52 H          12.2394    2.1376    3.2114 H         1 32E         0.0844
     53 H          12.3675    0.6831    4.2577 H         1 32E         0.0844
     54 H           9.8455    1.7164    2.8880 H         1 32E         0.0696
     55 H          12.5243   -3.5042    2.2963 H         1 32E         0.0296
     56 H          13.4409   -3.2495    0.7726 H         1 32E         0.0296
     57 H          11.7997   -3.9779    0.7224 H         1 32E         0.0296
     58 H          14.5393    6.5037    5.9256 H         1 32E         0.0232
     59 H          13.0099    6.3040    5.0050 H         1 32E         0.0232
     60 H          14.2303    4.9860    5.0159 H         1 32E         0.0232
     61 H          12.0449    5.8561    8.5841 H         1 32E         0.0232
     62 H          11.7745    6.8504    7.1128 H         1 32E         0.0232
     63 H          13.3262    6.9759    8.0089 H         1 32E         0.0232
     64 H          11.6640    3.7412    7.4633 H         1 32E         0.0345
     65 H          11.1915    4.7094    6.0259 H         1 32E         0.0345
     66 H          12.9296    3.4754    4.7192 H         1 32E         0.1012
     67 H          13.8854    4.6667    7.4181 H         1 32E         0.0299
     68 H          10.9494    0.4101   -1.1681 H         1 32E         0.2259
     69 H          10.6024    2.9701    4.7555 H         1 32E         0.2052
@<TRIPOS>BOND
     1    4    1 ar 
     2    1    5 ar 
     3    3    2 ar 
     4    2    7 ar 
     5    8    3 ar 
     6    9    4 ar 
     7   12    5 ar 
     8    9    6 ar 
     9    6   12 ar 
    10   10    7 ar 
    11    7   17 1  
    12    8   11 ar 
    13   27    8 1  
    14   36    9 1  
    15   11   10 ar 
    16   10   36 1  
    17   11   37 1  
    18   12   38 1  
    19   13   14 2  
    20   30   13 1  
    21   14   15 1  
    22   14   23 1  
    23   29   15 am 
    24   15   32 2  
    25   16   29 am 
    26   30   16 am 
    27   16   33 2  
    28   17   34 ar 
    29   17   35 ar 
    30   18   19 1  
    31   20   18 1  
    32   22   19 1  
    33   31   20 1  
    34   21   22 1  
    35   31   21 1  
    36   22   30 1  
    37   28   24 1  
    38   28   25 1  
    39   27   26 1  
    40   26   28 1  
    41   27   31 1  
    42    1   39 1  
    43    2   40 1  
    44    3   41 1  
    45    4   42 1  
    46    5   43 1  
    47    6   44 1  
    48   13   45 1  
    49   18   46 1  
    50   18   47 1  
    51   19   48 1  
    52   19   49 1  
    53   20   50 1  
    54   20   51 1  
    55   21   52 1  
    56   21   53 1  
    57   22   54 1  
    58   23   55 1  
    59   23   56 1  
    60   23   57 1  
    61   24   58 1  
    62   24   59 1  
    63   24   60 1  
    64   25   61 1  
    65   25   62 1  
    66   25   63 1  
    67   26   64 1  
    68   26   65 1  
    69   27   66 1  
    70   28   67 1  
    71   29   68 1  
    72   31   69 1  
@<TRIPOS>SUBSTRUCTURE
     1 32E         1

