### 
### Created by X-TOOL on Mon Sep 10 21:13:18 2018
### 

@<TRIPOS>MOLECULE
4qgi_ligand
  106   110     1     0     0
SMALL
GAST_HUCK


@<TRIPOS>ATOM
      1 C          18.0540   -7.6480  -12.8680 C.2       1 ROC         0.2185
      2 O          18.0980   -6.7230  -13.6860 O.2       1 ROC        -0.3899
      3 N1         19.6820   -9.7140  -11.8010 N.pl3     1 ROC        -0.2820
      4 C2         19.1700   -8.6420  -12.4450 C.2       1 ROC         0.1175
      5 C3         20.3880   -8.0130  -12.6400 C.2       1 ROC        -0.0452
      6 C4         21.6420   -8.6630  -12.6740 C.3       1 ROC        -0.0009
      7 C5         22.9080  -10.2820  -11.5540 C.ar      1 ROC        -0.0691
      8 C6         23.1490  -11.2970  -10.6620 C.ar      1 ROC        -0.0817
      9 C7         21.8430  -11.7360  -10.4170 C.ar      1 ROC        -0.0803
     10 C8         20.5050  -11.7380  -10.7940 C.ar      1 ROC        -0.0469
     11 C4A        21.6950   -9.9560  -12.1700 C.ar      1 ROC        -0.0119
     12 C8A        20.6060  -10.7150  -11.7310 C.ar      1 ROC         0.0593
     13 N          16.9130   -8.5150  -12.5710 N.am      1 ROC        -0.2636
     14 CA         15.5740   -8.0410  -12.9510 C.3       1 ROC         0.1466
     15 C1         14.9790   -8.0250  -11.5500 C.2       1 ROC         0.2042
     16 O1         14.5340   -9.1160  -11.2300 O.2       1 ROC        -0.3944
     17 CB         14.9080   -9.0950  -13.7930 C.3       1 ROC         0.0772
     18 CG         15.4000   -8.5090  -15.0970 C.2       1 ROC         0.1780
     19 OD1        15.6660   -7.4100  -15.5490 O.2       1 ROC        -0.3970
     20 ND2        16.1320   -9.3010  -16.0660 N.am      1 ROC        -0.3007
     21 C9         13.5950   -5.8570   -9.3840 C.3       1 ROC         0.1177
     22 O2         13.8760   -4.5050   -9.4820 O.3       1 ROC        -0.3842
     23 CA1        14.6960   -6.9110   -9.3730 C.3       1 ROC         0.0747
     24 N2         15.3610   -6.8670  -10.6910 N.am      1 ROC        -0.2790
     25 CB1        15.7830   -6.3360   -8.4850 C.3       1 ROC        -0.0178
     26 CG1        17.1550   -6.9260   -8.6260 C.3       1 ROC        -0.0222
     27 CD1        17.1000   -8.1260   -7.9340 C.2       1 ROC        -0.0955
     28 CD2        18.4560   -6.5330   -8.9200 C.3       1 ROC        -0.0420
     29 CE1        18.0400   -9.1600   -8.0720 C.2       1 ROC        -0.0984
     30 CE2        19.2360   -7.6480   -9.2320 C.3       1 ROC        -0.0446
     31 CZ         19.2960   -8.8490   -8.5450 C.3       1 ROC        -0.0363
     32 N11        11.7540   -6.9490   -8.6480 N.4       1 ROC         0.2562
     33 CM         12.7170   -5.8960   -8.1480 C.3       1 ROC        -0.0010
     34 C21        10.9310   -7.3020   -7.4550 C.3       1 ROC         0.0688
     35 CC         12.0210   -7.8020   -6.4830 C.2       1 ROC         0.2251
     36 O3         12.5780   -8.8450   -6.7780 O.2       1 ROC        -0.3909
     37 C31         9.7640   -8.2880   -7.6990 C.3       1 ROC         0.0113
     38 C3A         8.4910   -7.9420   -8.5150 C.3       1 ROC        -0.0261
     39 C41         7.6780   -9.0590   -9.1460 C.3       1 ROC        -0.0494
     40 C51         8.4100  -10.2250   -9.7930 C.3       1 ROC        -0.0528
     41 C61         9.1110   -9.5060  -10.9240 C.3       1 ROC        -0.0526
     42 C71        10.0420   -8.4350  -10.3830 C.3       1 ROC        -0.0451
     43 C7A         9.1580   -7.3890   -9.7400 C.3       1 ROC         0.0024
     44 C81        10.4940   -6.6810   -9.4180 C.3       1 ROC        -0.0266
     45 N3         11.5420   -7.4610   -5.1210 N.am      1 ROC        -0.2771
     46 CD         12.2130   -8.0490   -3.9190 C.3       1 ROC         0.0448
     47 C11        13.6020   -7.4140   -3.9640 C.3       1 ROC        -0.0396
     48 C22        12.5450   -9.5270   -3.8700 C.3       1 ROC        -0.0396
     49 C32        11.5800   -7.4290   -2.7150 C.3       1 ROC        -0.0396
     50 H          19.0941   -9.8311  -10.9634 H         1 ROC         0.1998
     51 H          20.3787   -6.9328  -12.7779 H         1 ROC         0.0524
     52 H          22.3488   -8.0514  -12.0940 H         1 ROC         0.0518
     53 H          21.9671   -8.7025  -13.7241 H         1 ROC         0.0518
     54 H          23.7575   -9.6598  -11.8114 H         1 ROC         0.0516
     55 H          24.0887  -11.6578  -10.2596 H         1 ROC         0.0489
     56 H          21.9012  -12.3566   -9.5301 H         1 ROC         0.0527
     57 H          19.6631  -12.3373  -10.4667 H         1 ROC         0.0494
     58 H          17.0398   -9.4007  -12.1243 H         1 ROC         0.1871
     59 H          15.5661   -7.0606  -13.4497 H         1 ROC         0.0825
     60 H          13.8117   -9.0933  -13.7030 H         1 ROC         0.0551
     61 H          15.2901  -10.1086  -13.6015 H         1 ROC         0.0551
     62 H          16.4440   -8.8837  -16.9195 H         1 ROC         0.1814
     63 H          16.3249  -10.2646  -15.8808 H         1 ROC         0.1814
     64 H          12.9776   -6.1138  -10.2574 H         1 ROC         0.0670
     65 H          14.4165   -4.2409   -8.7468 H         1 ROC         0.2101
     66 H          14.3417   -7.9099   -9.0788 H         1 ROC         0.0585
     67 H          15.9930   -6.1457  -10.9742 H         1 ROC         0.1856
     68 H          15.4672   -6.4745   -7.4405 H         1 ROC         0.0310
     69 H          15.8589   -5.2611   -8.7057 H         1 ROC         0.0310
     70 H          16.9786   -7.2925   -9.6480 H         1 ROC         0.0424
     71 H          16.2752   -8.2763   -7.2390 H         1 ROC         0.0453
     72 H          18.8870   -6.0204   -8.0474 H         1 ROC         0.0289
     73 H          18.4431   -5.8464   -9.7793 H         1 ROC         0.0289
     74 H          17.7818  -10.1852   -7.8109 H         1 ROC         0.0450
     75 H          20.2709   -7.2752   -9.2388 H         1 ROC         0.0286
     76 H          18.9386   -7.9229  -10.2547 H         1 ROC         0.0286
     77 H          19.6421   -9.6439   -9.2220 H         1 ROC         0.0388
     78 H          19.9951   -8.7561   -7.7009 H         1 ROC         0.0388
     79 H          12.2834   -7.7003   -9.0619 H         1 ROC         0.2057
     80 H          12.2237   -4.9329   -7.9503 H         1 ROC         0.0841
     81 H          13.2657   -6.2180   -7.2506 H         1 ROC         0.0841
     82 H          10.4789   -6.3850   -7.0492 H         1 ROC         0.1100
     83 H           9.4074   -8.5805   -6.7004 H         1 ROC         0.0348
     84 H          10.2104   -9.1602   -8.1990 H         1 ROC         0.0348
     85 H           7.8431   -7.2414   -7.9679 H         1 ROC         0.0309
     86 H           7.0491   -8.6011   -9.9236 H         1 ROC         0.0268
     87 H           7.0375   -9.4782   -8.3561 H         1 ROC         0.0268
     88 H           7.7113  -10.9881  -10.1664 H         1 ROC         0.0265
     89 H           9.1263  -10.6912   -9.1005 H         1 ROC         0.0265
     90 H           8.3588   -9.0357  -11.5744 H         1 ROC         0.0265
     91 H           9.6963  -10.2328  -11.5063 H         1 ROC         0.0265
     92 H          10.6260   -7.9891  -11.2016 H         1 ROC         0.0270
     93 H          10.7260   -8.8662   -9.6372 H         1 ROC         0.0270
     94 H           8.4501   -6.8521  -10.3885 H         1 ROC         0.0355
     95 H          10.8861   -6.4736  -10.4246 H         1 ROC         0.0818
     96 H          10.1461   -5.7435   -8.9596 H         1 ROC         0.0818
     97 H          10.7692   -6.8370   -5.0056 H         1 ROC         0.1859
     98 H          14.1987   -7.7768   -3.1141 H         1 ROC         0.0254
     99 H          13.5070   -6.3197   -3.9047 H         1 ROC         0.0254
    100 H          14.1003   -7.6884   -4.9055 H         1 ROC         0.0254
    101 H          13.0310   -9.7620   -2.9116 H         1 ROC         0.0254
    102 H          13.2253   -9.7776   -4.6972 H         1 ROC         0.0254
    103 H          11.6197  -10.1141   -3.9655 H         1 ROC         0.0254
    104 H          12.0462   -7.8355   -1.8054 H         1 ROC         0.0254
    105 H          10.5038   -7.6564   -2.7084 H         1 ROC         0.0254
    106 H          11.7243   -6.3389   -2.7452 H         1 ROC         0.0254
@<TRIPOS>BOND
     1    1    2 2  
     2    1    4 1  
     3   13    1 am 
     4    4    3 1  
     5    3   12 1  
     6    4    5 2  
     7    5    6 1  
     8    6   11 1  
     9    7    8 ar 
    10   11    7 ar 
    11    9    8 ar 
    12   10    9 ar 
    13   12   10 ar 
    14   12   11 ar 
    15   14   13 1  
    16   15   14 1  
    17   14   17 1  
    18   15   16 2  
    19   24   15 am 
    20   17   18 1  
    21   18   19 2  
    22   18   20 am 
    23   21   22 1  
    24   23   21 1  
    25   21   33 1  
    26   23   24 1  
    27   23   25 1  
    28   25   26 1  
    29   26   27 1  
    30   26   28 1  
    31   27   29 2  
    32   28   30 1  
    33   29   31 1  
    34   30   31 1  
    35   33   32 1  
    36   32   34 1  
    37   32   44 1  
    38   34   35 1  
    39   34   37 1  
    40   35   36 2  
    41   35   45 am 
    42   37   38 1  
    43   38   39 1  
    44   38   43 1  
    45   39   40 1  
    46   40   41 1  
    47   41   42 1  
    48   42   43 1  
    49   43   44 1  
    50   45   46 1  
    51   46   47 1  
    52   46   48 1  
    53   46   49 1  
    54    3   50 1  
    55    5   51 1  
    56    6   52 1  
    57    6   53 1  
    58    7   54 1  
    59    8   55 1  
    60    9   56 1  
    61   10   57 1  
    62   13   58 1  
    63   14   59 1  
    64   17   60 1  
    65   17   61 1  
    66   20   62 1  
    67   20   63 1  
    68   21   64 1  
    69   22   65 1  
    70   23   66 1  
    71   24   67 1  
    72   25   68 1  
    73   25   69 1  
    74   26   70 1  
    75   27   71 1  
    76   28   72 1  
    77   28   73 1  
    78   29   74 1  
    79   30   75 1  
    80   30   76 1  
    81   31   77 1  
    82   31   78 1  
    83   32   79 1  
    84   33   80 1  
    85   33   81 1  
    86   34   82 1  
    87   37   83 1  
    88   37   84 1  
    89   38   85 1  
    90   39   86 1  
    91   39   87 1  
    92   40   88 1  
    93   40   89 1  
    94   41   90 1  
    95   41   91 1  
    96   42   92 1  
    97   42   93 1  
    98   43   94 1  
    99   44   95 1  
   100   44   96 1  
   101   45   97 1  
   102   47   98 1  
   103   47   99 1  
   104   47  100 1  
   105   48  101 1  
   106   48  102 1  
   107   48  103 1  
   108   49  104 1  
   109   49  105 1  
   110   49  106 1  
@<TRIPOS>SUBSTRUCTURE
     1 ROC         1

