### 
### Created by X-TOOL on Sun Nov 13 14:28:54 2016
### 

@<TRIPOS>MOLECULE
4qhc_ligand
   46    48     1     0     0
SMALL
GAST_HUCK


@<TRIPOS>ATOM
      1 S1        -10.6880   13.5610   -1.1730 S.3       1 MOL        -0.1438
      2 C2         -9.4370   14.7630   -1.5740 C.3       1 MOL         0.0492
      3 C3         -9.3050   15.2270   -3.0340 C.3       1 MOL         0.0392
      4 N4         -9.4250   14.2800   -4.1150 N.4       1 MOL         0.2418
      5 C5        -10.6410   13.5600   -4.1770 C.3       1 MOL        -0.0259
      6 C6        -10.4960   12.1810   -3.5530 C.3       1 MOL         0.0392
      7 C7        -11.6840   11.3960   -4.0820 C.3       1 MOL         0.0531
      8 O8        -12.3480   10.4250   -3.3590 O.3       1 MOL        -0.3945
      9 C31        -7.9310   15.9390   -3.1590 C.2       1 MOL         0.0853
     10 O32        -7.3590   15.9340   -4.2790 O.co2     1 MOL        -0.5642
     11 O33        -7.4370   16.5020   -2.1420 O.co2     1 MOL        -0.5642
     12 C61       -10.2920   12.0440   -2.0360 C.3       1 MOL         0.0596
     13 C62        -8.8100   11.6630   -1.8210 C.3       1 MOL         0.0217
     14 N63        -8.2620   10.4940   -2.7930 N.4       1 MOL         0.3253
     15 N64        -7.1850   10.4510   -2.1830 N.4       1 MOL         0.3345
     16 C65        -7.6860   10.1090   -0.7670 C.3       1 MOL         0.0130
     17 C66        -8.5470   11.2780   -0.5670 C.3       1 MOL         0.0372
     18 C67        -6.5980    9.2500   -2.8390 C.3       1 MOL         0.0429
     19 S68        -5.1500    9.0810   -2.0700 S.3       1 MOL        -0.1100
     20 C69        -5.2170    9.2560   -0.4680 C.3       1 MOL         0.0037
     21 C70        -6.4220    9.8520    0.2050 C.3       1 MOL         0.0012
     22 H1         -8.4679   14.3327   -1.2814 H         1 MOL         0.0451
     23 H2         -9.6396   15.6573   -0.9664 H         1 MOL         0.0451
     24 H3        -10.1013   15.9690   -3.1931 H         1 MOL         0.1033
     25 H4         -8.6755   13.6121   -4.0244 H         1 MOL         0.2030
     26 H5         -9.3217   14.7857   -4.9808 H         1 MOL         0.2030
     27 H6        -10.9383   13.4478   -5.2301 H         1 MOL         0.0818
     28 H7        -11.4173   14.1194   -3.6345 H         1 MOL         0.0818
     29 H8         -9.5887   11.7408   -3.9923 H         1 MOL         0.0388
     30 H9        -11.3297   10.8977   -4.9964 H         1 MOL         0.0562
     31 H10       -12.4448   12.1459   -4.3443 H         1 MOL         0.0562
     32 H11       -12.7041   10.8097   -2.5667 H         1 MOL         0.2094
     33 H12       -10.9391   11.2420   -1.6511 H         1 MOL         0.0473
     34 H13        -8.2228   12.5699   -2.0278 H         1 MOL         0.0878
     35 H14        -8.1724   10.7753   -3.7568 H         1 MOL         0.2331
     36 H15        -8.7934    9.6391   -2.7405 H         1 MOL         0.2331
     37 H16        -6.6059   11.2748   -2.2276 H         1 MOL         0.2365
     38 H17        -8.2986    9.1954   -0.7586 H         1 MOL         0.0868
     39 H18        -9.4694   11.0054   -0.0333 H         1 MOL         0.0376
     40 H19        -8.0213   12.0681   -0.0107 H         1 MOL         0.0376
     41 H20        -6.4564    9.4173   -3.9169 H         1 MOL         0.0953
     42 H21        -7.2331    8.3651   -2.6856 H         1 MOL         0.0953
     43 H22        -4.3608    9.8873   -0.1882 H         1 MOL         0.0380
     44 H23        -5.0872    8.2511   -0.0398 H         1 MOL         0.0380
     45 H24        -6.7399    9.1675    1.0052 H         1 MOL         0.0328
     46 H25        -6.1263   10.8166    0.6434 H         1 MOL         0.0328
@<TRIPOS>BOND
     1    1    2 1  
     2    1   12 1  
     3    2    3 1  
     4    3    4 1  
     5    3    9 1  
     6    4    5 1  
     7    5    6 1  
     8    6    7 1  
     9    6   12 1  
    10    7    8 1  
    11    9   10 ar 
    12    9   11 ar 
    13   12   13 1  
    14   13   14 1  
    15   13   17 1  
    16   14   15 1  
    17   15   16 1  
    18   15   18 1  
    19   16   17 1  
    20   16   21 1  
    21   18   19 1  
    22   19   20 1  
    23   20   21 1  
    24    2   22 1  
    25    2   23 1  
    26    3   24 1  
    27    4   25 1  
    28    4   26 1  
    29    5   27 1  
    30    5   28 1  
    31    6   29 1  
    32    7   30 1  
    33    7   31 1  
    34    8   32 1  
    35   12   33 1  
    36   13   34 1  
    37   14   35 1  
    38   14   36 1  
    39   15   37 1  
    40   16   38 1  
    41   17   39 1  
    42   17   40 1  
    43   18   41 1  
    44   18   42 1  
    45   20   43 1  
    46   20   44 1  
    47   21   45 1  
    48   21   46 1  
@<TRIPOS>SUBSTRUCTURE
     1 MOL         1

