### 
### Created by X-TOOL on Mon Sep 10 21:13:25 2018
### 

@<TRIPOS>MOLECULE
4qip_ligand
   42    41     1     0     0
SMALL
GAST_HUCK


@<TRIPOS>ATOM
      1 S          14.5680   14.9820   16.0620 S.o2      1 SDS        -0.0737
      2 O1S        14.0470   16.0840   15.1670 O.co2     1 SDS        -0.4611
      3 O2S        13.4030   14.2010   16.6290 O.3       1 SDS        -0.2658
      4 O3S        15.4690   15.5210   17.1450 O.co2     1 SDS        -0.4611
      5 O4         15.5180   14.0760   15.3000 O.co2     1 SDS        -0.4611
      6 C1         13.5970   13.5780   17.8820 C.3       1 SDS         0.0737
      7 C2         10.1940    5.3830   22.0660 C.3       1 SDS        -0.0653
      8 C3          9.4160    5.2330   20.7710 C.3       1 SDS        -0.0559
      9 C4          8.4370    6.3790   20.6180 C.3       1 SDS        -0.0533
     10 C5          9.2030    7.6310   20.2530 C.3       1 SDS        -0.0531
     11 C6          8.2610    8.7370   19.8350 C.3       1 SDS        -0.0531
     12 C7          9.1150    9.8830   19.3470 C.3       1 SDS        -0.0531
     13 C8          8.3310   10.7840   18.4180 C.3       1 SDS        -0.0531
     14 C9          9.2160   11.9320   17.9860 C.3       1 SDS        -0.0531
     15 C10        10.5410   11.4070   17.4690 C.3       1 SDS        -0.0530
     16 C11        11.4580   12.5610   17.1360 C.3       1 SDS        -0.0509
     17 C12        12.3200   12.9050   18.3330 C.3       1 SDS        -0.0273
     18 H1         13.8898   14.3360   18.6234 H         1 SDS         0.0583
     19 H2         14.3934   12.8244   17.7939 H         1 SDS         0.0583
     20 H3         10.9014    4.5468   22.1677 H         1 SDS         0.0230
     21 H4          9.4958    5.3779   22.9160 H         1 SDS         0.0230
     22 H5         10.7486    6.3329   22.0527 H         1 SDS         0.0230
     23 H6          8.8636    4.2819   20.7861 H         1 SDS         0.0263
     24 H7         10.1164    5.2368   19.9229 H         1 SDS         0.0263
     25 H8          7.9017    6.5367   21.5659 H         1 SDS         0.0265
     26 H9          7.7139    6.1435   19.8233 H         1 SDS         0.0265
     27 H10         9.8858    7.4057   19.4205 H         1 SDS         0.0265
     28 H11         9.7852    7.9641   21.1248 H         1 SDS         0.0265
     29 H12         7.6516    9.0584   20.6925 H         1 SDS         0.0265
     30 H13         7.6016    8.3866   19.0273 H         1 SDS         0.0265
     31 H14         9.9849    9.4797   18.8080 H         1 SDS         0.0265
     32 H15         9.4590   10.4694   20.2118 H         1 SDS         0.0265
     33 H16         7.4474   11.1763   18.9428 H         1 SDS         0.0265
     34 H17         8.0093   10.2131   17.5345 H         1 SDS         0.0265
     35 H18         9.3981   12.5937   18.8457 H         1 SDS         0.0265
     36 H19         8.7132   12.4978   17.1878 H         1 SDS         0.0265
     37 H20        10.3671   10.8067   16.5638 H         1 SDS         0.0265
     38 H21        11.0105   10.7793   18.2407 H         1 SDS         0.0265
     39 H22        10.8537   13.4375   16.8594 H         1 SDS         0.0266
     40 H23        12.1043   12.2798   16.2915 H         1 SDS         0.0266
     41 H24        11.7656   13.5852   18.9962 H         1 SDS         0.0288
     42 H25        12.5686   11.9827   18.8785 H         1 SDS         0.0288
@<TRIPOS>BOND
     1    1    2 ar 
     2    3    1 1  
     3    1    4 ar 
     4    1    5 ar 
     5    6    3 1  
     6   17    6 1  
     7    8    7 1  
     8    9    8 1  
     9   10    9 1  
    10   11   10 1  
    11   12   11 1  
    12   13   12 1  
    13   14   13 1  
    14   15   14 1  
    15   16   15 1  
    16   16   17 1  
    17    6   18 1  
    18    6   19 1  
    19    7   20 1  
    20    7   21 1  
    21    7   22 1  
    22    8   23 1  
    23    8   24 1  
    24    9   25 1  
    25    9   26 1  
    26   10   27 1  
    27   10   28 1  
    28   11   29 1  
    29   11   30 1  
    30   12   31 1  
    31   12   32 1  
    32   13   33 1  
    33   13   34 1  
    34   14   35 1  
    35   14   36 1  
    36   15   37 1  
    37   15   38 1  
    38   16   39 1  
    39   16   40 1  
    40   17   41 1  
    41   17   42 1  
@<TRIPOS>SUBSTRUCTURE
     1 SDS         1

