### 
### Created by X-TOOL on Sun Nov 13 14:28:18 2016
### 

@<TRIPOS>MOLECULE
4qiy_ligand
   56    58     1     0     0
SMALL
GAST_HUCK


@<TRIPOS>ATOM
      1 O16         4.0670    3.0700    6.9020 O.2       1 WWX        -0.1719
      2 S14         3.0490    3.9840    7.6530 S.o2      1 WWX        -0.0053
      3 O15         3.5570    5.4380    7.5670 O.2       1 WWX        -0.1719
      4 C18         1.5770    3.6850    9.9530 C.3       1 WWX         0.0637
      5 O20         1.3220    5.0360    9.9960 O.3       1 WWX        -0.3934
      6 C17         2.9500    3.3520    9.3450 C.3       1 WWX         0.0913
      7 C8          1.4550    3.8710    6.8300 C.ar      1 WWX         0.1356
      8 C7          0.9810    2.5410    6.7590 C.ar      1 WWX         0.1761
      9 F12         1.6930    1.5300    7.4110 F         1 WWX        -0.1890
     10 C6         -0.1860    2.2530    6.1380 C.ar      1 WWX         0.1773
     11 F11        -0.5740    0.9370    6.2350 F         1 WWX        -0.1943
     12 C9          0.6860    4.8610    6.2170 C.ar      1 WWX         0.0955
     13 C10        -0.4160    4.5000    5.4380 C.ar      1 WWX         0.1708
     14 F13        -1.0660    5.4940    4.7880 F         1 WWX        -0.1949
     15 C5         -0.9530    3.2100    5.3990 C.ar      1 WWX         0.1616
     16 S1         -2.2910    2.7750    4.1690 S.o2      1 WWX         0.0636
     17 O3         -3.6050    3.2500    4.6050 O.2       1 WWX        -0.1519
     18 N4         -2.2490    1.1940    4.3250 N.am      1 WWX        -0.2621
     19 O2         -1.8310    3.1260    2.8930 O.2       1 WWX        -0.1519
     20 N19         1.1960    6.2210    6.2710 N.pl3     1 WWX        -0.3061
     21 C21         0.3000    7.3670    6.4350 C.3       1 WWX         0.1034
     22 C30         0.4350    8.3330    5.3310 C.ar      1 WWX        -0.0145
     23 C35         1.6780    8.6050    4.7290 C.ar      1 WWX        -0.0580
     24 C34         1.7470    9.5720    3.6940 C.ar      1 WWX        -0.0685
     25 C33         0.5770   10.3540    3.3050 C.ar      1 WWX        -0.0687
     26 C32        -0.6170   10.0880    3.9630 C.ar      1 WWX        -0.0685
     27 C31        -0.7400    9.0650    4.9740 C.ar      1 WWX        -0.0580
     28 C22         0.6180    8.0340    7.8120 C.3       1 WWX         0.1206
     29 O29         2.0070    8.3670    7.8490 O.3       1 WWX        -0.3749
     30 C23        -0.2400    9.2230    8.1530 C.ar      1 WWX        -0.0106
     31 C28         0.1930   10.5430    7.9570 C.ar      1 WWX        -0.0576
     32 C27        -0.6890   11.6170    8.3090 C.ar      1 WWX        -0.0685
     33 C26        -1.9390   11.3380    8.8140 C.ar      1 WWX        -0.0687
     34 C25        -2.3480   10.0280    9.0080 C.ar      1 WWX        -0.0685
     35 C24        -1.4960    8.9960    8.6400 C.ar      1 WWX        -0.0576
     36 H1          0.7980    3.2003    9.3462 H         1 WWX         0.0573
     37 H2          1.5424    3.2888   10.9786 H         1 WWX         0.0573
     38 H3          0.4651    5.1834   10.3787 H         1 WWX         0.2095
     39 H4          3.7399    3.8162    9.9538 H         1 WWX         0.0524
     40 H5          3.0885    2.2608    9.3347 H         1 WWX         0.0524
     41 H6         -2.8662    0.6217    3.7850 H         1 WWX         0.1633
     42 H7         -1.6054    0.7715    4.9632 H         1 WWX         0.1633
     43 H8          2.2103    6.3820    6.1921 H         1 WWX         0.1764
     44 H9         -0.7385    7.0046    6.4467 H         1 WWX         0.0758
     45 H10         2.5708    8.0821    5.0523 H         1 WWX         0.0557
     46 H11         2.6881    9.7340    3.1809 H         1 WWX         0.0599
     47 H12         0.6378   11.1125    2.5329 H         1 WWX         0.0559
     48 H13        -1.4929   10.6730    3.7066 H         1 WWX         0.0599
     49 H14        -1.6930    8.8584    5.4475 H         1 WWX         0.0557
     50 H15         0.4316    7.2782    8.5892 H         1 WWX         0.0803
     51 H16         2.5238    7.5767    7.7454 H         1 WWX         0.2133
     52 H17         1.1756   10.7469    7.5473 H         1 WWX         0.0557
     53 H18        -0.3727   12.6455    8.1779 H         1 WWX         0.0599
     54 H19        -2.6106   12.1517    9.0626 H         1 WWX         0.0559
     55 H20        -3.3184    9.8128    9.4405 H         1 WWX         0.0599
     56 H21        -1.8396    7.9730    8.7427 H         1 WWX         0.0557
@<TRIPOS>BOND
     1    2    1 2  
     2    2    3 2  
     3    6    2 1  
     4    2    7 1  
     5    4    5 1  
     6    4    6 1  
     7    7    8 ar 
     8    7   12 ar 
     9    8    9 1  
    10    8   10 ar 
    11   10   11 1  
    12   10   15 ar 
    13   12   13 ar 
    14   12   20 1  
    15   13   14 1  
    16   13   15 ar 
    17   15   16 1  
    18   16   17 2  
    19   16   18 am 
    20   16   19 2  
    21   20   21 1  
    22   21   22 1  
    23   21   28 1  
    24   22   23 ar 
    25   22   27 ar 
    26   23   24 ar 
    27   24   25 ar 
    28   25   26 ar 
    29   26   27 ar 
    30   28   29 1  
    31   28   30 1  
    32   30   31 ar 
    33   30   35 ar 
    34   31   32 ar 
    35   32   33 ar 
    36   33   34 ar 
    37   34   35 ar 
    38    4   36 1  
    39    4   37 1  
    40    5   38 1  
    41    6   39 1  
    42    6   40 1  
    43   18   41 1  
    44   18   42 1  
    45   20   43 1  
    46   21   44 1  
    47   23   45 1  
    48   24   46 1  
    49   25   47 1  
    50   26   48 1  
    51   27   49 1  
    52   28   50 1  
    53   29   51 1  
    54   31   52 1  
    55   32   53 1  
    56   33   54 1  
    57   34   55 1  
    58   35   56 1  
@<TRIPOS>SUBSTRUCTURE
     1 WWX         1

