### 
### Created by X-TOOL on Sun Nov 13 14:28:31 2016
### 

@<TRIPOS>MOLECULE
4qiz_ligand
   56    58     1     0     0
SMALL
GAST_HUCK


@<TRIPOS>ATOM
      1 O16         3.6710  -25.2900  -13.5270 O.2       1 WWX        -0.1719
      2 S14         4.6410  -24.1940  -14.1330 S.o2      1 WWX        -0.0053
      3 O15         3.7810  -22.9340  -14.4500 O.2       1 WWX        -0.1719
      4 C18         6.8870  -24.4360  -15.7820 C.3       1 WWX         0.0637
      5 O20         6.7740  -23.0440  -15.7910 O.3       1 WWX        -0.3934
      6 C17         5.4150  -24.8770  -15.6260 C.3       1 WWX         0.0913
      7 C8          5.5700  -23.8580  -12.6010 C.ar      1 WWX         0.1356
      8 C7          6.0890  -25.0680  -12.0710 C.ar      1 WWX         0.1761
      9 F12         5.9530  -26.3750  -12.7820 F         1 WWX        -0.1890
     10 C6          6.8620  -24.9590  -10.8330 C.ar      1 WWX         0.1773
     11 F11         7.3050  -26.1550  -10.4240 F         1 WWX        -0.1943
     12 C9          5.7170  -22.5270  -11.9910 C.ar      1 WWX         0.0955
     13 C10         6.4280  -22.6000  -10.7860 C.ar      1 WWX         0.1708
     14 F13         6.6140  -21.4820  -10.0030 F         1 WWX        -0.1949
     15 C5          7.0100  -23.7370  -10.1340 C.ar      1 WWX         0.1616
     16 S1          7.8740  -23.7330   -8.4150 S.o2      1 WWX         0.0636
     17 O3          9.1550  -22.9800   -8.1190 O.2       1 WWX        -0.1519
     18 N4          8.2010  -25.3730   -8.1690 N.am      1 WWX        -0.2621
     19 O2          6.9740  -23.3610   -7.2890 O.2       1 WWX        -0.1519
     20 N19         5.0760  -21.2360  -12.6140 N.pl3     1 WWX        -0.3061
     21 C21         5.4130  -20.0420  -13.4120 C.3       1 WWX         0.1034
     22 C30         5.1270  -20.0440  -14.9160 C.ar      1 WWX        -0.0145
     23 C35         3.8230  -20.2960  -15.4390 C.ar      1 WWX        -0.0580
     24 C34         3.5770  -20.3280  -16.8470 C.ar      1 WWX        -0.0685
     25 C33         4.6280  -20.1220  -17.7780 C.ar      1 WWX        -0.0687
     26 C32         5.9370  -19.8760  -17.3190 C.ar      1 WWX        -0.0685
     27 C31         6.1560  -19.8550  -15.9180 C.ar      1 WWX        -0.0580
     28 C22         6.8690  -19.8020  -13.4040 C.3       1 WWX         0.1206
     29 O29         7.5110  -20.8510  -14.0730 O.3       1 WWX        -0.3749
     30 C23         7.2560  -18.3980  -13.8520 C.ar      1 WWX        -0.0106
     31 C28         8.6320  -18.1430  -14.0650 C.ar      1 WWX        -0.0576
     32 C27         9.1010  -16.8580  -14.3570 C.ar      1 WWX        -0.0685
     33 C26         8.2390  -15.8140  -14.5210 C.ar      1 WWX        -0.0687
     34 C25         6.8670  -16.0620  -14.3710 C.ar      1 WWX        -0.0685
     35 C24         6.3320  -17.3150  -14.0250 C.ar      1 WWX        -0.0576
     36 H1          7.4995  -24.7818  -14.9363 H         1 WWX         0.0573
     37 H2          7.3180  -24.8081  -16.7232 H         1 WWX         0.0573
     38 H3          7.6370  -22.6580  -15.8843 H         1 WWX         0.2095
     39 H4          4.8490  -24.5351  -16.5050 H         1 WWX         0.0524
     40 H5          5.3794  -25.9751  -15.5713 H         1 WWX         0.0524
     41 H6          8.6591  -25.6714   -7.3317 H         1 WWX         0.1633
     42 H7          7.9364  -26.0449   -8.8608 H         1 WWX         0.1633
     43 H8          4.0716  -21.2159  -12.3865 H         1 WWX         0.1764
     44 H9          4.8821  -19.1940  -12.9548 H         1 WWX         0.0758
     45 H10         3.0009  -20.4669  -14.7534 H         1 WWX         0.0557
     46 H11         2.5720  -20.5125  -17.2090 H         1 WWX         0.0599
     47 H12         4.4237  -20.1539  -18.8421 H         1 WWX         0.0559
     48 H13         6.7511  -19.7081  -18.0147 H         1 WWX         0.0599
     49 H14         7.1688  -19.6849  -15.5711 H         1 WWX         0.0557
     50 H15         7.1906  -19.8688  -12.3542 H         1 WWX         0.0803
     51 H16         7.1986  -20.8918  -14.9692 H         1 WWX         0.2133
     52 H17         9.3386  -18.9625  -14.0003 H         1 WWX         0.0557
     53 H18        10.1673  -16.6892  -14.4546 H         1 WWX         0.0599
     54 H19         8.6037  -14.8216  -14.7603 H         1 WWX         0.0559
     55 H20         6.1790  -15.2397  -14.5312 H         1 WWX         0.0599
     56 H21         5.2653  -17.4568  -13.8944 H         1 WWX         0.0557
@<TRIPOS>BOND
     1    2    1 2  
     2    2    3 2  
     3    6    2 1  
     4    2    7 1  
     5    4    5 1  
     6    4    6 1  
     7    7    8 ar 
     8    7   12 ar 
     9    8    9 1  
    10    8   10 ar 
    11   10   11 1  
    12   10   15 ar 
    13   12   13 ar 
    14   12   20 1  
    15   13   14 1  
    16   13   15 ar 
    17   15   16 1  
    18   16   17 2  
    19   16   18 am 
    20   16   19 2  
    21   20   21 1  
    22   21   22 1  
    23   21   28 1  
    24   22   23 ar 
    25   22   27 ar 
    26   23   24 ar 
    27   24   25 ar 
    28   25   26 ar 
    29   26   27 ar 
    30   28   29 1  
    31   28   30 1  
    32   30   31 ar 
    33   30   35 ar 
    34   31   32 ar 
    35   32   33 ar 
    36   33   34 ar 
    37   34   35 ar 
    38    4   36 1  
    39    4   37 1  
    40    5   38 1  
    41    6   39 1  
    42    6   40 1  
    43   18   41 1  
    44   18   42 1  
    45   20   43 1  
    46   21   44 1  
    47   23   45 1  
    48   24   46 1  
    49   25   47 1  
    50   26   48 1  
    51   27   49 1  
    52   28   50 1  
    53   29   51 1  
    54   31   52 1  
    55   32   53 1  
    56   33   54 1  
    57   34   55 1  
    58   35   56 1  
@<TRIPOS>SUBSTRUCTURE
     1 WWX         1

