### 
### Created by X-TOOL on Mon Sep 10 21:13:23 2018
### 

@<TRIPOS>MOLECULE
4qj0_ligand
   56    58     1     0     0
SMALL
GAST_HUCK


@<TRIPOS>ATOM
      1 O16        29.0720    7.1810   12.2030 O.2       1 WWX        -0.1719
      2 S14        28.7210    6.6990   10.7700 S.o2      1 WWX        -0.0053
      3 O15        29.9920    5.8780   10.3770 O.2       1 WWX        -0.1719
      4 C18        30.1100    8.7190    9.5440 C.3       1 WWX         0.0637
      5 O20        29.9850    9.7900   10.4560 O.3       1 WWX        -0.3934
      6 C17        28.7350    8.0410    9.5560 C.3       1 WWX         0.0913
      7 C8         27.2500    5.6520   10.6850 C.ar      1 WWX         0.1356
      8 C7         27.1560    4.9300    9.5020 C.ar      1 WWX         0.1761
      9 F12        28.0850    5.0780    8.5000 F         1 WWX        -0.1890
     10 C6         26.0880    4.0330    9.3360 C.ar      1 WWX         0.1773
     11 F11        26.0040    3.3460    8.1790 F         1 WWX        -0.1943
     12 C9         26.2550    5.5480   11.6850 C.ar      1 WWX         0.0955
     13 C10        25.1820    4.6710   11.4670 C.ar      1 WWX         0.1708
     14 F13        24.1970    4.4430   12.3000 F         1 WWX        -0.1949
     15 C5         25.1210    3.9260   10.2950 C.ar      1 WWX         0.1616
     16 S1         23.8510    2.6960   10.1090 S.o2      1 WWX         0.0636
     17 O3         23.1210    2.9310    8.7890 O.2       1 WWX        -0.1519
     18 N4         22.7130    2.3780   11.2170 N.am      1 WWX        -0.2621
     19 O2         24.7060    1.4380    9.9240 O.2       1 WWX        -0.1519
     20 N19        26.3660    6.3250   12.8590 N.pl3     1 WWX        -0.3061
     21 C21        25.3330    7.3770   13.0780 C.3       1 WWX         0.1034
     22 C30        25.7450    8.5820   12.2560 C.ar      1 WWX        -0.0145
     23 C35        25.2740    8.6720   10.9350 C.ar      1 WWX        -0.0580
     24 C34        25.7000    9.7750   10.1130 C.ar      1 WWX        -0.0685
     25 C33        26.5550   10.7770   10.6150 C.ar      1 WWX        -0.0687
     26 C32        26.9730   10.6740   11.9540 C.ar      1 WWX        -0.0685
     27 C31        26.5820    9.5860   12.7630 C.ar      1 WWX        -0.0580
     28 C22        25.1340    7.7310   14.5770 C.3       1 WWX         0.1206
     29 O29        24.1300    8.6640   14.6520 O.3       1 WWX        -0.3749
     30 C23        24.7410    6.4340   15.1850 C.ar      1 WWX        -0.0106
     31 C28        23.3850    6.0190   15.1030 C.ar      1 WWX        -0.0576
     32 C27        22.9960    4.7440   15.5410 C.ar      1 WWX        -0.0685
     33 C26        23.9980    3.9480   16.0640 C.ar      1 WWX        -0.0687
     34 C25        25.3540    4.4310   16.1880 C.ar      1 WWX        -0.0685
     35 C24        25.7840    5.6740   15.6950 C.ar      1 WWX        -0.0576
     36 H1         30.8917    8.0182    9.8723 H         1 WWX         0.0573
     37 H2         30.3508    9.0917    8.5375 H         1 WWX         0.0573
     38 H3         29.7654    9.4490   11.3150 H         1 WWX         0.2095
     39 H4         27.9657    8.7811    9.8214 H         1 WWX         0.0524
     40 H5         28.5213    7.6319    8.5575 H         1 WWX         0.0524
     41 H6         22.0291    1.6697   11.0422 H         1 WWX         0.1633
     42 H7         22.6944    2.8900   12.0758 H         1 WWX         0.1633
     43 H8         27.1280    6.1714   13.5348 H         1 WWX         0.1764
     44 H9         24.3708    7.0043   12.6969 H         1 WWX         0.0758
     45 H10        24.5991    7.9212   10.5401 H         1 WWX         0.0557
     46 H11        25.3560    9.8360    9.0868 H         1 WWX         0.0599
     47 H12        26.8799   11.6004    9.9892 H         1 WWX         0.0559
     48 H13        27.6083   11.4460   12.3729 H         1 WWX         0.0599
     49 H14        26.9324    9.5258   13.7870 H         1 WWX         0.0557
     50 H15        26.0540    8.1220   15.0361 H         1 WWX         0.0803
     51 H16        24.3796    9.4365   14.1586 H         1 WWX         0.2133
     52 H17        22.6416    6.6956   14.6971 H         1 WWX         0.0557
     53 H18        21.9693    4.4029   15.4732 H         1 WWX         0.0599
     54 H19        23.7615    2.9409   16.3877 H         1 WWX         0.0559
     55 H20        26.0791    3.7997   16.6888 H         1 WWX         0.0599
     56 H21        26.8167    6.0032   15.7112 H         1 WWX         0.0557
@<TRIPOS>BOND
     1    2    1 2  
     2    2    3 2  
     3    6    2 1  
     4    2    7 1  
     5    4    5 1  
     6    4    6 1  
     7    7    8 ar 
     8    7   12 ar 
     9    8    9 1  
    10    8   10 ar 
    11   10   11 1  
    12   10   15 ar 
    13   12   13 ar 
    14   12   20 1  
    15   13   14 1  
    16   13   15 ar 
    17   15   16 1  
    18   16   17 2  
    19   16   18 am 
    20   16   19 2  
    21   20   21 1  
    22   21   22 1  
    23   21   28 1  
    24   22   23 ar 
    25   22   27 ar 
    26   23   24 ar 
    27   24   25 ar 
    28   25   26 ar 
    29   26   27 ar 
    30   28   29 1  
    31   28   30 1  
    32   30   31 ar 
    33   30   35 ar 
    34   31   32 ar 
    35   32   33 ar 
    36   33   34 ar 
    37   34   35 ar 
    38    4   36 1  
    39    4   37 1  
    40    5   38 1  
    41    6   39 1  
    42    6   40 1  
    43   18   41 1  
    44   18   42 1  
    45   20   43 1  
    46   21   44 1  
    47   23   45 1  
    48   24   46 1  
    49   25   47 1  
    50   26   48 1  
    51   27   49 1  
    52   28   50 1  
    53   29   51 1  
    54   31   52 1  
    55   32   53 1  
    56   33   54 1  
    57   34   55 1  
    58   35   56 1  
@<TRIPOS>SUBSTRUCTURE
     1 WWX         1

