### 
### Created by X-TOOL on Sun Nov 13 14:28:25 2016
### 

@<TRIPOS>MOLECULE
4qjm_ligand
   51    53     1     0     0
SMALL
GAST_HUCK


@<TRIPOS>ATOM
      1 F26        14.2160    5.0570   14.9970 F         1 V1F        -0.1949
      2 C5         15.5210    5.1570   15.0480 C.ar      1 V1F         0.1708
      3 C4         16.1740    4.1610   15.7840 C.ar      1 V1F         0.1616
      4 S7         15.3570    2.8310   16.6920 S.o2      1 V1F         0.0636
      5 O9         13.8500    2.9240   16.5840 O.2       1 V1F        -0.1519
      6 N10        15.7850    1.2790   16.1100 N.am      1 V1F        -0.2621
      7 O8         15.8470    3.0520   18.0820 O.2       1 V1F        -0.1519
      8 C3         17.5660    4.2810   15.8970 C.ar      1 V1F         0.1773
      9 F12        18.2560    3.3530   16.6110 F         1 V1F        -0.1943
     10 C2         18.2710    5.2820   15.2640 C.ar      1 V1F         0.1761
     11 F13        19.6240    5.3320   15.4310 F         1 V1F        -0.1890
     12 C6         16.2080    6.1730   14.3650 C.ar      1 V1F         0.0951
     13 C1         17.6150    6.2480   14.4860 C.ar      1 V1F         0.1356
     14 S11        18.7040    7.4640   13.7000 S.o2      1 V1F        -0.0056
     15 O22        19.3220    8.5280   14.6080 O.2       1 V1F        -0.1718
     16 O23        17.9030    8.3780   12.7410 O.2       1 V1F        -0.1718
     17 C21        20.0050    6.6060   12.7270 C.3       1 V1F         0.0778
     18 C24        19.5880    5.7770   11.4780 C.3       1 V1F         0.0004
     19 C30        18.4360    4.8040   11.4560 C.ar      1 V1F        -0.0415
     20 C29        18.3270    3.7340   12.3630 C.ar      1 V1F        -0.0603
     21 C28        17.2250    2.8530   12.2560 C.ar      1 V1F        -0.0686
     22 C32        17.4160    4.9560   10.4780 C.ar      1 V1F        -0.0603
     23 C31        16.3170    4.0880   10.3930 C.ar      1 V1F        -0.0686
     24 C27        16.2170    3.0030   11.2650 C.ar      1 V1F        -0.0687
     25 N25        15.5460    7.1430   13.5940 N.pl3     1 V1F        -0.3130
     26 C14        14.6580    6.7360   12.5340 C.3       1 V1F         0.0562
     27 C15        14.4890    7.8890   11.6300 C.ar      1 V1F        -0.0220
     28 C20        13.8000    9.0230   12.1070 C.ar      1 V1F        -0.0585
     29 C19        13.6210   10.1310   11.2540 C.ar      1 V1F        -0.0685
     30 C18        14.1420   10.0900    9.9560 C.ar      1 V1F        -0.0687
     31 C17        14.8150    8.9420    9.4880 C.ar      1 V1F        -0.0685
     32 C16        14.9740    7.8340   10.3110 C.ar      1 V1F        -0.0585
     33 H1         15.3958    0.4612   16.5339 H         1 V1F         0.1633
     34 H2         16.4243    1.1902   15.3461 H         1 V1F         0.1633
     35 H3         20.5201    5.9180   13.4134 H         1 V1F         0.0524
     36 H4         20.7105    7.3762   12.3820 H         1 V1F         0.0524
     37 H5         20.4768    5.1925   11.1981 H         1 V1F         0.0442
     38 H6         19.3707    6.5137   10.6906 H         1 V1F         0.0442
     39 H7         19.0762    3.5867   13.1324 H         1 V1F         0.0557
     40 H8         17.1463    2.0307   12.9579 H         1 V1F         0.0599
     41 H9         17.4900    5.7740    9.7706 H         1 V1F         0.0557
     42 H10        15.5461    4.2600    9.6505 H         1 V1F         0.0599
     43 H11        15.3974    2.2976   11.1891 H         1 V1F         0.0559
     44 H12        15.6950    8.1439   13.7859 H         1 V1F         0.1759
     45 H13        13.6844    6.4409   12.9522 H         1 V1F         0.0672
     46 H14        15.0931    5.8884   11.9842 H         1 V1F         0.0672
     47 H15        13.4120    9.0426   13.1190 H         1 V1F         0.0557
     48 H16        13.0846   11.0069   11.6005 H         1 V1F         0.0599
     49 H17        14.0274   10.9484    9.3040 H         1 V1F         0.0559
     50 H18        15.2109    8.9242    8.4790 H         1 V1F         0.0599
     51 H19        15.4645    6.9405    9.9420 H         1 V1F         0.0557
@<TRIPOS>BOND
     1    1    2 1  
     2    2    3 ar 
     3    2   12 ar 
     4    3    4 1  
     5    3    8 ar 
     6    4    5 2  
     7    4    6 am 
     8    4    7 2  
     9    8    9 1  
    10    8   10 ar 
    11   10   11 1  
    12   10   13 ar 
    13   12   13 ar 
    14   12   25 1  
    15   13   14 1  
    16   14   15 2  
    17   14   16 2  
    18   14   17 1  
    19   17   18 1  
    20   18   19 1  
    21   19   20 ar 
    22   19   22 ar 
    23   20   21 ar 
    24   21   24 ar 
    25   22   23 ar 
    26   23   24 ar 
    27   25   26 1  
    28   26   27 1  
    29   27   28 ar 
    30   27   32 ar 
    31   28   29 ar 
    32   29   30 ar 
    33   30   31 ar 
    34   31   32 ar 
    35    6   33 1  
    36    6   34 1  
    37   17   35 1  
    38   17   36 1  
    39   18   37 1  
    40   18   38 1  
    41   20   39 1  
    42   21   40 1  
    43   22   41 1  
    44   23   42 1  
    45   24   43 1  
    46   25   44 1  
    47   26   45 1  
    48   26   46 1  
    49   28   47 1  
    50   29   48 1  
    51   30   49 1  
    52   31   50 1  
    53   32   51 1  
@<TRIPOS>SUBSTRUCTURE
     1 V1F         1

