### 
### Created by X-TOOL on Sun Nov 13 14:28:12 2016
### 

@<TRIPOS>MOLECULE
4qjo_ligand
   51    53     1     0     0
SMALL
GAST_HUCK


@<TRIPOS>ATOM
      1 F26        -5.9800   17.8760   -5.8720 F         1 V1F        -0.1949
      2 C5         -4.7100   18.0370   -5.4190 C.ar      1 V1F         0.1708
      3 C4         -3.8580   16.9240   -5.3980 C.ar      1 V1F         0.1616
      4 S7         -4.4640   15.3240   -5.9670 S.o2      1 V1F         0.0636
      5 O9         -4.8030   15.2850   -7.4640 O.2       1 V1F        -0.1519
      6 N10        -3.4220   13.9290   -5.6970 N.am      1 V1F        -0.2621
      7 O8         -5.8080   14.9440   -5.3290 O.2       1 V1F        -0.1519
      8 C3         -2.5430   17.0600   -4.9360 C.ar      1 V1F         0.1773
      9 F12        -1.7090   15.9910   -4.9100 F         1 V1F        -0.1943
     10 C2         -2.0780   18.3000   -4.4960 C.ar      1 V1F         0.1761
     11 F13        -0.8010   18.4100   -4.0520 F         1 V1F        -0.1890
     12 C6         -4.2470   19.2980   -4.9750 C.ar      1 V1F         0.0951
     13 C1         -2.9200   19.4200   -4.5120 C.ar      1 V1F         0.1356
     14 S11        -2.2860   21.0070   -3.9360 S.o2      1 V1F        -0.0056
     15 O22        -3.2800   22.0820   -4.3990 O.2       1 V1F        -0.1718
     16 O23        -1.0920   21.4010   -4.8210 O.2       1 V1F        -0.1718
     17 C21        -1.8640   21.4120   -2.2160 C.3       1 V1F         0.0778
     18 C24        -2.7300   20.6070   -1.2650 C.3       1 V1F         0.0004
     19 C30        -4.0950   21.2050   -1.1580 C.ar      1 V1F        -0.0415
     20 C29        -4.2760   22.4030   -0.4590 C.ar      1 V1F        -0.0603
     21 C28        -5.5510   22.9680   -0.3560 C.ar      1 V1F        -0.0686
     22 C32        -5.1900   20.5720   -1.7540 C.ar      1 V1F        -0.0603
     23 C31        -6.4690   21.1380   -1.6510 C.ar      1 V1F        -0.0686
     24 C27        -6.6470   22.3350   -0.9520 C.ar      1 V1F        -0.0687
     25 N25        -5.0870   20.4510   -4.9830 N.pl3     1 V1F        -0.3130
     26 C14        -6.4550   20.4520   -5.4430 C.3       1 V1F         0.0562
     27 C15        -7.0240   21.8270   -5.3920 C.ar      1 V1F        -0.0220
     28 C20        -7.9090   22.1710   -4.3640 C.ar      1 V1F        -0.0585
     29 C19        -8.4490   23.4580   -4.3040 C.ar      1 V1F        -0.0685
     30 C18        -8.1050   24.4070   -5.2720 C.ar      1 V1F        -0.0687
     31 C17        -7.2210   24.0640   -6.3010 C.ar      1 V1F        -0.0685
     32 C16        -6.6800   22.7750   -6.3620 C.ar      1 V1F        -0.0585
     33 H1         -3.7153   13.0207   -5.9953 H         1 V1F         0.1633
     34 H2         -2.5374   14.0456   -5.2455 H         1 V1F         0.1633
     35 H3         -2.0330   22.4850   -2.0426 H         1 V1F         0.0524
     36 H4         -0.8056   21.1735   -2.0349 H         1 V1F         0.0524
     37 H5         -2.2611   20.5976   -0.2700 H         1 V1F         0.0442
     38 H6         -2.8159   19.5764   -1.6397 H         1 V1F         0.0442
     39 H7         -3.4272   22.8938    0.0032 H         1 V1F         0.0557
     40 H8         -5.6901   23.8966    0.1857 H         1 V1F         0.0599
     41 H9         -5.0503   19.6436   -2.2958 H         1 V1F         0.0557
     42 H10        -7.3183   20.6477   -2.1129 H         1 V1F         0.0599
     43 H11        -7.6352   22.7733   -0.8716 H         1 V1F         0.0559
     44 H12        -4.6926   21.3381   -4.6390 H         1 V1F         0.1759
     45 H13        -7.0530   19.7893   -4.8003 H         1 V1F         0.0672
     46 H14        -6.4882   20.0853   -6.4795 H         1 V1F         0.0672
     47 H15        -8.1762   21.4370   -3.6124 H         1 V1F         0.0557
     48 H16        -9.1349   23.7212   -3.5069 H         1 V1F         0.0599
     49 H17        -8.5224   25.4063   -5.2252 H         1 V1F         0.0559
     50 H18        -6.9547   24.7984   -7.0525 H         1 V1F         0.0599
     51 H19        -5.9952   22.5111   -7.1598 H         1 V1F         0.0557
@<TRIPOS>BOND
     1    1    2 1  
     2    2    3 ar 
     3    2   12 ar 
     4    3    4 1  
     5    3    8 ar 
     6    4    5 2  
     7    4    6 am 
     8    4    7 2  
     9    8    9 1  
    10    8   10 ar 
    11   10   11 1  
    12   10   13 ar 
    13   12   13 ar 
    14   12   25 1  
    15   13   14 1  
    16   14   15 2  
    17   14   16 2  
    18   14   17 1  
    19   17   18 1  
    20   18   19 1  
    21   19   20 ar 
    22   19   22 ar 
    23   20   21 ar 
    24   21   24 ar 
    25   22   23 ar 
    26   23   24 ar 
    27   25   26 1  
    28   26   27 1  
    29   27   28 ar 
    30   27   32 ar 
    31   28   29 ar 
    32   29   30 ar 
    33   30   31 ar 
    34   31   32 ar 
    35    6   33 1  
    36    6   34 1  
    37   17   35 1  
    38   17   36 1  
    39   18   37 1  
    40   18   38 1  
    41   20   39 1  
    42   21   40 1  
    43   22   41 1  
    44   23   42 1  
    45   24   43 1  
    46   25   44 1  
    47   26   45 1  
    48   26   46 1  
    49   28   47 1  
    50   29   48 1  
    51   30   49 1  
    52   31   50 1  
    53   32   51 1  
@<TRIPOS>SUBSTRUCTURE
     1 V1F         1

