### 
### Created by X-TOOL on Sun Nov 13 14:27:49 2016
### 

@<TRIPOS>MOLECULE
4qjp_ligand
   51    53     1     0     0
SMALL
GAST_HUCK


@<TRIPOS>ATOM
      1 F26       -37.1300  -36.2160   25.5330 F         1 V1F        -0.1949
      2 C5        -36.9380  -35.9950   24.2160 C.ar      1 V1F         0.1708
      3 C4        -35.7800  -36.2860   23.5390 C.ar      1 V1F         0.1616
      4 S7        -34.3230  -36.9340   24.3530 S.o2      1 V1F         0.0636
      5 O9        -33.4260  -35.8780   24.4870 O.2       1 V1F        -0.1519
      6 N10       -34.6480  -37.4560   26.0020 N.am      1 V1F        -0.2621
      7 O8        -34.0660  -38.0650   23.6060 O.2       1 V1F        -0.1519
      8 C3        -35.7210  -36.0090   22.1860 C.ar      1 V1F         0.1773
      9 F12       -34.5720  -36.3040   21.5080 F         1 V1F        -0.1943
     10 C2        -36.8090  -35.5020   21.5440 C.ar      1 V1F         0.1761
     11 F13       -36.6990  -35.2180   20.2000 F         1 V1F        -0.1890
     12 C6        -38.0400  -35.3960   23.5710 C.ar      1 V1F         0.0951
     13 C1        -37.9530  -35.2190   22.1810 C.ar      1 V1F         0.1356
     14 S11       -39.4320  -34.6270   21.2870 S.o2      1 V1F        -0.0056
     15 O22       -38.9540  -33.8270   20.0780 O.2       1 V1F        -0.1718
     16 O23       -40.2270  -33.6510   22.1550 O.2       1 V1F        -0.1718
     17 C21       -40.6720  -35.9450   21.1460 C.3       1 V1F         0.0778
     18 C24       -40.0120  -37.2290   20.6880 C.3       1 V1F         0.0004
     19 C30       -40.5520  -37.6010   19.3290 C.ar      1 V1F        -0.0415
     20 C29       -39.7060  -37.5320   18.1910 C.ar      1 V1F        -0.0603
     21 C28       -40.1430  -37.8940   16.8880 C.ar      1 V1F        -0.0686
     22 C32       -41.8810  -38.0460   19.1720 C.ar      1 V1F        -0.0603
     23 C31       -42.3380  -38.4140   17.8760 C.ar      1 V1F        -0.0686
     24 C27       -41.4790  -38.3390   16.7360 C.ar      1 V1F        -0.0687
     25 N25       -39.2460  -35.1760   24.2770 N.pl3     1 V1F        -0.3130
     26 C14       -40.1210  -34.0880   24.7180 C.3       1 V1F         0.0562
     27 C15       -41.6080  -34.4080   24.4640 C.ar      1 V1F        -0.0220
     28 C20       -42.1800  -35.6610   24.8630 C.ar      1 V1F        -0.0585
     29 C19       -43.5510  -35.8740   24.5370 C.ar      1 V1F        -0.0685
     30 C18       -44.3620  -34.8910   23.8730 C.ar      1 V1F        -0.0687
     31 C17       -43.7730  -33.6660   23.4780 C.ar      1 V1F        -0.0685
     32 C16       -42.4130  -33.4470   23.7990 C.ar      1 V1F        -0.0585
     33 H1        -33.9110  -37.8371   26.5602 H         1 V1F         0.1633
     34 H2        -35.5696  -37.3715   26.3807 H         1 V1F         0.1633
     35 H3        -41.4380  -35.6480   20.4146 H         1 V1F         0.0524
     36 H4        -41.1442  -36.1075   22.1261 H         1 V1F         0.0524
     37 H5        -40.2325  -38.0333   21.4053 H         1 V1F         0.0442
     38 H6        -38.9237  -37.0822   20.6248 H         1 V1F         0.0442
     39 H7        -38.6858  -37.1895   18.3211 H         1 V1F         0.0557
     40 H8        -39.4746  -37.8315   16.0369 H         1 V1F         0.0599
     41 H9        -42.5449  -38.1068   20.0267 H         1 V1F         0.0557
     42 H10       -43.3582  -38.7582   17.7505 H         1 V1F         0.0599
     43 H11       -41.8492  -38.6221   15.7573 H         1 V1F         0.0559
     44 H12       -39.6377  -36.0788   24.5810 H         1 V1F         0.1759
     45 H13       -39.8552  -33.1728   24.1687 H         1 V1F         0.0672
     46 H14       -39.9712  -33.9255   25.7955 H         1 V1F         0.0672
     47 H15       -41.5977  -36.4101   25.3873 H         1 V1F         0.0557
     48 H16       -44.0035  -36.8226   24.8026 H         1 V1F         0.0599
     49 H17       -45.4104  -35.0849   23.6773 H         1 V1F         0.0559
     50 H18       -44.3477  -32.9173   22.9449 H         1 V1F         0.0599
     51 H19       -41.9640  -32.4995   23.5238 H         1 V1F         0.0557
@<TRIPOS>BOND
     1    1    2 1  
     2    2    3 ar 
     3    2   12 ar 
     4    3    4 1  
     5    3    8 ar 
     6    4    5 2  
     7    4    6 am 
     8    4    7 2  
     9    8    9 1  
    10    8   10 ar 
    11   10   11 1  
    12   10   13 ar 
    13   12   13 ar 
    14   12   25 1  
    15   13   14 1  
    16   14   15 2  
    17   14   16 2  
    18   14   17 1  
    19   17   18 1  
    20   18   19 1  
    21   19   20 ar 
    22   19   22 ar 
    23   20   21 ar 
    24   21   24 ar 
    25   22   23 ar 
    26   23   24 ar 
    27   25   26 1  
    28   26   27 1  
    29   27   28 ar 
    30   27   32 ar 
    31   28   29 ar 
    32   29   30 ar 
    33   30   31 ar 
    34   31   32 ar 
    35    6   33 1  
    36    6   34 1  
    37   17   35 1  
    38   17   36 1  
    39   18   37 1  
    40   18   38 1  
    41   20   39 1  
    42   21   40 1  
    43   22   41 1  
    44   23   42 1  
    45   24   43 1  
    46   25   44 1  
    47   26   45 1  
    48   26   46 1  
    49   28   47 1  
    50   29   48 1  
    51   30   49 1  
    52   31   50 1  
    53   32   51 1  
@<TRIPOS>SUBSTRUCTURE
     1 V1F         1

