### 
### Created by X-TOOL on Mon Sep 10 21:13:23 2018
### 

@<TRIPOS>MOLECULE
4qjw_ligand
   42    43     1     0     0
SMALL
GAST_HUCK


@<TRIPOS>ATOM
      1 F27        -5.8860   17.6870   -5.8290 F         1 WWO        -0.1949
      2 C5         -4.6250   17.8400   -5.3510 C.ar      1 WWO         0.1708
      3 C4         -3.7640   16.7350   -5.3570 C.ar      1 WWO         0.1616
      4 S7         -4.3520   15.1570   -5.9950 S.o2      1 WWO         0.0636
      5 O9         -4.7330   15.1810   -7.4840 O.2       1 WWO        -0.1519
      6 N10        -3.2680   13.7760   -5.8290 N.am      1 WWO        -0.2621
      7 O8         -5.6650   14.7080   -5.3370 O.2       1 WWO        -0.1519
      8 C3         -2.4570   16.8670   -4.8690 C.ar      1 WWO         0.1773
      9 F12        -1.6100   15.8090   -4.8680 F         1 WWO        -0.1943
     10 C2         -2.0110   18.0960   -4.3770 C.ar      1 WWO         0.1761
     11 F13        -0.7420   18.2020   -3.9090 F         1 WWO        -0.1890
     12 C6         -4.1840   19.0890   -4.8540 C.ar      1 WWO         0.0951
     13 C1         -2.8660   19.2100   -4.3650 C.ar      1 WWO         0.1356
     14 S11        -2.2560   20.7790   -3.7210 S.o2      1 WWO        -0.0053
     15 O22        -3.2790   21.8490   -4.1320 O.2       1 WWO        -0.1719
     16 O23        -1.0830   21.2390   -4.6000 O.2       1 WWO        -0.1719
     17 C21        -1.8350   21.1420   -1.9880 C.3       1 WWO         0.0913
     18 C24        -2.2000   19.9620   -1.1080 C.3       1 WWO         0.0637
     19 O25        -3.5710   19.7300   -1.1870 O.3       1 WWO        -0.3934
     20 N26        -5.0380   20.2310   -4.8350 N.pl3     1 WWO        -0.3130
     21 C14        -6.3540   20.2600   -5.4300 C.3       1 WWO         0.0562
     22 C15        -7.0680   21.5260   -5.1050 C.ar      1 WWO        -0.0220
     23 C20        -7.8300   21.6070   -3.9340 C.ar      1 WWO        -0.0585
     24 C19        -8.5060   22.7890   -3.6170 C.ar      1 WWO        -0.0685
     25 C18        -8.4220   23.8930   -4.4690 C.ar      1 WWO        -0.0687
     26 C17        -7.6610   23.8150   -5.6410 C.ar      1 WWO        -0.0685
     27 C16        -6.9840   22.6320   -5.9590 C.ar      1 WWO        -0.0585
     28 H1         -3.5476   12.8774   -6.1673 H         1 WWO         0.1633
     29 H2         -2.3737   13.8914   -5.3966 H         1 WWO         0.1633
     30 H3         -2.3924   22.0303   -1.6560 H         1 WWO         0.0524
     31 H4         -0.7551   21.3357   -1.9082 H         1 WWO         0.0524
     32 H5         -1.9251   20.1828   -0.0661 H         1 WWO         0.0573
     33 H6         -1.6568   19.0684   -1.4491 H         1 WWO         0.0573
     34 H7         -4.0392   20.5022   -0.8922 H         1 WWO         0.2095
     35 H8         -4.6967   21.0844   -4.3702 H         1 WWO         0.1759
     36 H9         -6.9389   19.4106   -5.0473 H         1 WWO         0.0672
     37 H10        -6.2552   20.1748   -6.5222 H         1 WWO         0.0672
     38 H11        -7.8962   20.7516   -3.2714 H         1 WWO         0.0557
     39 H12        -9.0958   22.8489   -2.7094 H         1 WWO         0.0599
     40 H13        -8.9459   24.8094   -4.2225 H         1 WWO         0.0559
     41 H14        -7.5959   24.6711   -6.3027 H         1 WWO         0.0599
     42 H15        -6.3945   22.5722   -6.8667 H         1 WWO         0.0557
@<TRIPOS>BOND
     1    1    2 1  
     2    2    3 ar 
     3    2   12 ar 
     4    3    4 1  
     5    3    8 ar 
     6    4    5 2  
     7    4    6 am 
     8    4    7 2  
     9    8    9 1  
    10    8   10 ar 
    11   10   11 1  
    12   10   13 ar 
    13   12   13 ar 
    14   12   20 1  
    15   13   14 1  
    16   14   15 2  
    17   14   16 2  
    18   14   17 1  
    19   17   18 1  
    20   18   19 1  
    21   20   21 1  
    22   21   22 1  
    23   22   23 ar 
    24   22   27 ar 
    25   23   24 ar 
    26   24   25 ar 
    27   25   26 ar 
    28   26   27 ar 
    29    6   28 1  
    30    6   29 1  
    31   17   30 1  
    32   17   31 1  
    33   18   32 1  
    34   18   33 1  
    35   19   34 1  
    36   20   35 1  
    37   21   36 1  
    38   21   37 1  
    39   23   38 1  
    40   24   39 1  
    41   25   40 1  
    42   26   41 1  
    43   27   42 1  
@<TRIPOS>SUBSTRUCTURE
     1 WWO         1

