### 
### Created by X-TOOL on Mon Sep 10 21:13:24 2018
### 

@<TRIPOS>MOLECULE
4qjx_ligand
   42    43     1     0     0
SMALL
GAST_HUCK


@<TRIPOS>ATOM
      1 F27        21.3210   -3.3800    1.5820 F         1 WWO        -0.1949
      2 C5         21.6280   -2.7810    2.7310 C.ar      1 WWO         0.1708
      3 C4         21.4360   -3.5300    3.9280 C.ar      1 WWO         0.1616
      4 S7         20.7670   -5.2440    3.8850 S.o2      1 WWO         0.0636
      5 O9         21.6440   -6.3220    3.2680 O.2       1 WWO        -0.1519
      6 N10        20.5240   -5.7020    5.5960 N.am      1 WWO        -0.2621
      7 O8         19.4330   -5.4050    3.1940 O.2       1 WWO        -0.1519
      8 C3         21.7660   -2.8790    5.1400 C.ar      1 WWO         0.1773
      9 F12        21.6630   -3.4120    6.3700 F         1 WWO        -0.1943
     10 C2         22.2670   -1.5720    5.1410 C.ar      1 WWO         0.1761
     11 F13        22.5580   -1.0310    6.3490 F         1 WWO        -0.1890
     12 C6         22.1230   -1.4540    2.7060 C.ar      1 WWO         0.0951
     13 C1         22.4610   -0.8600    3.9320 C.ar      1 WWO         0.1356
     14 S11        23.0160    0.8650    3.9940 S.o2      1 WWO        -0.0053
     15 O22        22.1910    1.4910    5.1410 O.2       1 WWO        -0.1719
     16 O23        22.2200    1.5330    2.8220 O.2       1 WWO        -0.1719
     17 C21        24.7280    1.4150    3.9010 C.3       1 WWO         0.0913
     18 C24        24.7640    2.7070    3.0680 C.3       1 WWO         0.0637
     19 O25        26.0380    2.8840    2.5200 O.3       1 WWO        -0.3934
     20 N26        22.2450   -0.7370    1.4450 N.pl3     1 WWO        -0.3130
     21 C14        20.9550   -0.5130    0.8240 C.3       1 WWO         0.0562
     22 C15        20.8720   -0.3780   -0.6580 C.ar      1 WWO        -0.0220
     23 C20        21.2330   -1.4300   -1.5140 C.ar      1 WWO        -0.0585
     24 C19        21.1070   -1.2870   -2.9160 C.ar      1 WWO        -0.0685
     25 C18        20.6170   -0.0780   -3.4310 C.ar      1 WWO        -0.0687
     26 C17        20.2610    0.9830   -2.5780 C.ar      1 WWO        -0.0685
     27 C16        20.3950    0.8360   -1.1950 C.ar      1 WWO        -0.0585
     28 H1         20.1619   -6.6055    5.8252 H         1 WWO         0.1633
     29 H2         20.7501   -5.0546    6.3239 H         1 WWO         0.1633
     30 H3         25.3435    0.6417    3.4182 H         1 WWO         0.0524
     31 H4         25.1130    1.6115    4.9125 H         1 WWO         0.0524
     32 H5         24.5223    3.5642    3.7136 H         1 WWO         0.0573
     33 H6         24.0242    2.6388    2.2568 H         1 WWO         0.0573
     34 H7         26.6771    2.9439    3.2202 H         1 WWO         0.2095
     35 H8         23.1407   -0.4262    1.0425 H         1 WWO         0.1759
     36 H9         20.5487    0.4145    1.2538 H         1 WWO         0.0672
     37 H10        20.3120   -1.3600    1.1054 H         1 WWO         0.0672
     38 H11        21.6105   -2.3574   -1.0987 H         1 WWO         0.0557
     39 H12        21.3843   -2.0975   -3.5803 H         1 WWO         0.0599
     40 H13        20.5108    0.0410   -4.5032 H         1 WWO         0.0559
     41 H14        19.8841    1.9111   -2.9924 H         1 WWO         0.0599
     42 H15        20.1324    1.6547   -0.5348 H         1 WWO         0.0557
@<TRIPOS>BOND
     1    1    2 1  
     2    2    3 ar 
     3    2   12 ar 
     4    3    4 1  
     5    3    8 ar 
     6    4    5 2  
     7    4    6 am 
     8    4    7 2  
     9    8    9 1  
    10    8   10 ar 
    11   10   11 1  
    12   10   13 ar 
    13   12   13 ar 
    14   12   20 1  
    15   13   14 1  
    16   14   15 2  
    17   14   16 2  
    18   14   17 1  
    19   17   18 1  
    20   18   19 1  
    21   20   21 1  
    22   21   22 1  
    23   22   23 ar 
    24   22   27 ar 
    25   23   24 ar 
    26   24   25 ar 
    27   25   26 ar 
    28   26   27 ar 
    29    6   28 1  
    30    6   29 1  
    31   17   30 1  
    32   17   31 1  
    33   18   32 1  
    34   18   33 1  
    35   19   34 1  
    36   20   35 1  
    37   21   36 1  
    38   21   37 1  
    39   23   38 1  
    40   24   39 1  
    41   25   40 1  
    42   26   41 1  
    43   27   42 1  
@<TRIPOS>SUBSTRUCTURE
     1 WWO         1

