### 
### Created by X-TOOL on Mon Sep 10 21:13:16 2018
### 

@<TRIPOS>MOLECULE
4qkd_ligand
   14    13     1     0     0
SMALL
GAST_HUCK


@<TRIPOS>ATOM
      1 C1          0.6150    0.1650    7.3680 C.2       1 AKG         0.1249
      2 O1          1.1910    1.2740    7.3030 O.co2     1 AKG        -0.5464
      3 O2          1.1360   -0.9060    6.8900 O.co2     1 AKG        -0.5464
      4 C2         -0.6650    0.0380    8.1030 C.2       1 AKG         0.1731
      5 O5         -1.3230   -1.0250    8.0050 O.2       1 AKG        -0.3576
      6 C3         -1.1560    1.1450    9.0070 C.3       1 AKG         0.0423
      7 C4         -1.9890    0.5520   10.1260 C.3       1 AKG         0.0164
      8 C5         -2.6370    1.5960   11.0150 C.2       1 AKG         0.0371
      9 O3         -2.8130    2.7550   10.5850 O.co2     1 AKG        -0.5688
     10 O4         -2.9910    1.2820   12.1720 O.co2     1 AKG        -0.5688
     11 H          -1.7706    1.8478    8.4254 H         1 AKG         0.0516
     12 H          -0.2943    1.6785    9.4346 H         1 AKG         0.0516
     13 H          -1.3377   -0.0795   10.7481 H         1 AKG         0.0456
     14 H          -2.7819   -0.0664    9.6800 H         1 AKG         0.0456
@<TRIPOS>BOND
     1    1    2 ar 
     2    1    3 ar 
     3    1    4 1  
     4    4    5 2  
     5    4    6 1  
     6    6    7 1  
     7    7    8 1  
     8    8    9 ar 
     9    8   10 ar 
    10    6   11 1  
    11    6   12 1  
    12    7   13 1  
    13    7   14 1  
@<TRIPOS>SUBSTRUCTURE
     1 AKG         1

