### 
### Created by X-TOOL on Mon Sep 10 21:13:20 2018
### 

@<TRIPOS>MOLECULE
4qkx_ligand
   52    53     1     0     0
SMALL
GAST_HUCK


@<TRIPOS>ATOM
      1 CAJ         0.5780  -21.6680  -48.7310 C.ar      1 35V        -0.0375
      2 CAU        -0.6380  -22.1000  -48.2160 C.ar      1 35V         0.1099
      3 OAC        -1.8080  -21.9430  -48.8930 O.3       1 35V        -0.3385
      4 CAT        -0.7100  -22.7180  -46.9720 C.ar      1 35V         0.1088
      5 OAB        -1.9390  -23.1080  -46.5420 O.3       1 35V        -0.3414
      6 CAF         0.4310  -22.9200  -46.2130 C.ar      1 35V        -0.0481
      7 CAH         1.6470  -22.4900  -46.7280 C.ar      1 35V        -0.0775
      8 CAW         1.7240  -21.8820  -47.9770 C.ar      1 35V        -0.0294
      9 CAZ         2.9650  -21.4610  -48.4410 C.3       1 35V         0.1214
     10 OAD         3.9410  -21.3690  -47.3910 O.3       1 35V        -0.3759
     11 CAP         3.5300  -22.3030  -49.5950 C.3       1 35V         0.0013
     12 NAQ         4.8300  -21.6600  -49.7810 N.4       1 35V         0.2314
     13 CAM         5.8110  -21.9220  -50.8440 C.3       1 35V        -0.0254
     14 CAO         5.2770  -21.6450  -52.2570 C.3       1 35V         0.0137
     15 CAV         6.3590  -21.7330  -53.1380 C.ar      1 35V        -0.0576
     16 CAK         7.5840  -21.2580  -52.6780 C.ar      1 35V        -0.0396
     17 CAY         8.6930  -21.2740  -53.5010 C.ar      1 35V         0.1132
     18 OAR         9.9210  -20.8530  -53.0970 O.3       1 35V        -0.3266
     19 CAA         9.9250  -20.4050  -51.7350 C.3       1 35V         0.0568
     20 CAG         6.2480  -22.2190  -54.4420 C.ar      1 35V        -0.0799
     21 CAI         7.3690  -22.2420  -55.2670 C.ar      1 35V        -0.0479
     22 CAX         8.5870  -21.7750  -54.7910 C.ar      1 35V         0.1126
     23 OAS         9.7290  -21.7700  -55.5310 O.3       1 35V        -0.3254
     24 CAN         9.4850  -22.3090  -56.8330 C.3       1 35V         0.0751
     25 CAL        10.7450  -23.0220  -57.3390 C.3       1 35V         0.0179
     26 SAE        12.1790  -21.8920  -57.4270 S.3       1 35V        -0.1756
     27 H1          0.6306  -21.1769  -49.6959 H         1 35V         0.0451
     28 H2         -2.5213  -22.3006  -48.3775 H         1 35V         0.2442
     29 H3         -1.8599  -23.5140  -45.6868 H         1 35V         0.2420
     30 H4          0.3762  -23.4008  -45.2430 H         1 35V         0.0492
     31 H5          2.5513  -22.6305  -46.1470 H         1 35V         0.0437
     32 H6          2.8160  -20.4446  -48.8343 H         1 35V         0.0789
     33 H7          4.0523  -22.2221  -46.9879 H         1 35V         0.2129
     34 H8          2.9059  -22.2261  -50.4975 H         1 35V         0.0861
     35 H9          3.6367  -23.3606  -49.3120 H         1 35V         0.0861
     36 H10         5.3283  -21.8323  -48.9219 H         1 35V         0.2017
     37 H11         4.6228  -20.6765  -49.8579 H         1 35V         0.2017
     38 H12         6.1114  -22.9787  -50.7870 H         1 35V         0.0835
     39 H13         6.6887  -21.2815  -50.6725 H         1 35V         0.0835
     40 H14         4.8368  -20.6379  -52.3018 H         1 35V         0.0456
     41 H15         4.5138  -22.3910  -52.5234 H         1 35V         0.0456
     42 H16         7.6680  -20.8733  -51.6680 H         1 35V         0.0450
     43 H17        10.9382  -20.0768  -51.4600 H         1 35V         0.0573
     44 H18         9.6156  -21.2301  -51.0767 H         1 35V         0.0573
     45 H19         9.2244  -19.5644  -51.6234 H         1 35V         0.0573
     46 H20         5.2933  -22.5768  -54.8104 H         1 35V         0.0436
     47 H21         7.2913  -22.6236  -56.2786 H         1 35V         0.0493
     48 H22         9.2234  -21.4938  -57.5236 H         1 35V         0.0614
     49 H23         8.6535  -23.0273  -56.7819 H         1 35V         0.0614
     50 H24        10.5469  -23.4240  -58.3436 H         1 35V         0.0400
     51 H25        10.9852  -23.8485  -56.6541 H         1 35V         0.0400
     52 H26        12.3716  -21.5232  -56.5088 H         1 35V         0.1017
@<TRIPOS>BOND
     1    1    2 ar 
     2    1    8 ar 
     3    2    3 1  
     4    2    4 ar 
     5    4    5 1  
     6    4    6 ar 
     7    6    7 ar 
     8    7    8 ar 
     9    8    9 1  
    10    9   10 1  
    11    9   11 1  
    12   11   12 1  
    13   12   13 1  
    14   13   14 1  
    15   14   15 1  
    16   15   16 ar 
    17   15   20 ar 
    18   16   17 ar 
    19   17   18 1  
    20   17   22 ar 
    21   18   19 1  
    22   20   21 ar 
    23   21   22 ar 
    24   22   23 1  
    25   23   24 1  
    26   24   25 1  
    27   25   26 1  
    28    1   27 1  
    29    3   28 1  
    30    5   29 1  
    31    6   30 1  
    32    7   31 1  
    33    9   32 1  
    34   10   33 1  
    35   11   34 1  
    36   11   35 1  
    37   12   36 1  
    38   12   37 1  
    39   13   38 1  
    40   13   39 1  
    41   14   40 1  
    42   14   41 1  
    43   16   42 1  
    44   19   43 1  
    45   19   44 1  
    46   19   45 1  
    47   20   46 1  
    48   21   47 1  
    49   24   48 1  
    50   24   49 1  
    51   25   50 1  
    52   25   51 1  
    53   26   52 1  
@<TRIPOS>SUBSTRUCTURE
     1 35V         1

