### 
### Created by X-TOOL on Mon Sep 10 21:13:18 2018
### 

@<TRIPOS>MOLECULE
4ql1_ligand
   66    69     1     0     0
SMALL
GAST_HUCK


@<TRIPOS>ATOM
      1 FAD        -5.8380  -26.1890    3.5510 F         1 35Q        -0.2316
      2 CBN        -7.0350  -26.2520    2.9040 C.3       1 35Q         0.3803
      3 FAE        -6.8220  -25.6520    1.6530 F         1 35Q        -0.2316
      4 FAF        -7.8610  -25.6120    3.5820 F         1 35Q        -0.2316
      5 CBI        -7.4850  -27.5690    2.7200 C.2       1 35Q         0.0999
      6 CAO        -6.6490  -28.6260    3.0970 C.2       1 35Q         0.0707
      7 CBJ        -7.0290  -29.9560    2.9490 C.2       1 35Q         0.2381
      8 OAC        -6.2850  -30.8920    3.2660 O.2       1 35Q        -0.3449
      9 NAZ        -8.2970  -30.2270    2.4240 N.2       1 35Q        -0.2343
     10 CAL        -9.1130  -29.2280    2.0950 C.2       1 35Q         0.0611
     11 CBG        -8.7820  -27.8760    2.2240 C.3       1 35Q         0.1612
     12 CBB        -9.7520  -26.9360    1.7700 C.2       1 35Q         0.2410
     13 OAB        -9.4580  -26.0450    0.9640 O.2       1 35Q        -0.3762
     14 NAY       -11.0000  -27.1000    2.2290 N.am      1 35Q        -0.2326
     15 CBF       -12.0790  -26.4350    1.7060 C.ar      1 35Q         0.0881
     16 CAN       -12.4290  -26.6720    0.3740 C.ar      1 35Q        -0.0439
     17 CBH       -12.9150  -25.6380    2.5190 C.ar      1 35Q         0.0665
     18 NBM       -12.6320  -25.3300    3.8080 N.pl3     1 35Q        -0.3023
     19 CAV       -13.6850  -24.9960    4.7670 C.3       1 35Q         0.0650
     20 CAR       -13.1630  -24.9010    6.1760 C.3       1 35Q        -0.0123
     21 NBK       -11.9840  -24.0620    6.3580 N.4       1 35Q         0.2358
     22 CAA       -11.5470  -24.0630    7.7730 C.3       1 35Q        -0.0430
     23 CAS       -10.8920  -24.5710    5.5470 C.3       1 35Q        -0.0123
     24 CAW       -11.3410  -24.6700    4.0860 C.3       1 35Q         0.0650
     25 CAK       -14.0830  -25.0790    1.9350 C.ar      1 35Q        -0.0541
     26 CAJ       -14.3820  -25.3080    0.5930 C.ar      1 35Q        -0.0797
     27 CBE       -13.5690  -26.1000   -0.2120 C.ar      1 35Q        -0.0458
     28 CBD       -13.8430  -26.3100   -1.5890 C.ar      1 35Q        -0.0365
     29 CAM       -12.7500  -26.4690   -2.4740 C.ar      1 35Q        -0.0513
     30 CAI       -15.1290  -26.2990   -2.1140 C.ar      1 35Q        -0.0643
     31 CAG       -15.3150  -26.4950   -3.4850 C.ar      1 35Q        -0.0696
     32 CAH       -14.2410  -26.6730   -4.3360 C.ar      1 35Q        -0.0569
     33 CBC       -12.9490  -26.6760   -3.8440 C.ar      1 35Q        -0.0003
     34 CAX       -11.8920  -26.8240   -4.7300 C.3       1 35Q        -0.0006
     35 NBL       -11.3090  -28.1630   -4.6050 N.4       1 35Q         0.2369
     36 CAT       -10.1900  -28.3480   -5.5500 C.3       1 35Q        -0.0435
     37 H1         -5.6708  -28.4005    3.5192 H         1 35Q         0.1348
     38 H2        -10.0971  -29.4790    1.7019 H         1 35Q         0.1352
     39 H3         -9.1933  -27.8249    3.2429 H         1 35Q         0.1037
     40 H4        -11.1512  -27.7353    2.9863 H         1 35Q         0.2223
     41 H5        -11.7995  -27.3188   -0.2263 H         1 35Q         0.0463
     42 H6        -14.4596  -25.7760    4.7283 H         1 35Q         0.0563
     43 H7        -14.1253  -24.0278    4.4865 H         1 35Q         0.0563
     44 H8        -12.9097  -25.9174    6.5119 H         1 35Q         0.0834
     45 H9        -13.9671  -24.4957    6.8078 H         1 35Q         0.0834
     46 H10       -12.2039  -23.1194    6.0766 H         1 35Q         0.2032
     47 H11       -10.6582  -23.4242    7.8827 H         1 35Q         0.0778
     48 H12       -11.3004  -25.0901    8.0799 H         1 35Q         0.0778
     49 H13       -12.3577  -23.6754    8.4074 H         1 35Q         0.0778
     50 H14       -10.6008  -25.5681    5.9090 H         1 35Q         0.0834
     51 H15       -10.0323  -23.8887    5.6205 H         1 35Q         0.0834
     52 H16       -11.4044  -23.6451    3.6917 H         1 35Q         0.0563
     53 H17       -10.5639  -25.2254    3.5405 H         1 35Q         0.0563
     54 H18       -14.7468  -24.4697    2.5376 H         1 35Q         0.0476
     55 H19       -15.2705  -24.8576    0.1655 H         1 35Q         0.0473
     56 H20       -11.7396  -26.4297   -2.0835 H         1 35Q         0.0544
     57 H21       -15.9823  -26.1395   -1.4647 H         1 35Q         0.0550
     58 H22       -16.3210  -26.5076   -3.8886 H         1 35Q         0.0595
     59 H23       -14.4128  -26.8113   -5.3973 H         1 35Q         0.0545
     60 H24       -11.1224  -26.0706   -4.5063 H         1 35Q         0.0979
     61 H25       -12.2570  -26.6814   -5.7578 H         1 35Q         0.0979
     62 H26       -12.0201  -28.8507   -4.7987 H         1 35Q         0.2025
     63 H27       -10.9689  -28.2871   -3.6643 H         1 35Q         0.2025
     64 H28        -9.7744  -29.3597   -5.4325 H         1 35Q         0.0777
     65 H29        -9.4073  -27.6036   -5.3418 H         1 35Q         0.0777
     66 H30       -10.5545  -28.2187   -6.5798 H         1 35Q         0.0777
@<TRIPOS>BOND
     1    1    2 1  
     2    2    3 1  
     3    2    4 1  
     4    2    5 1  
     5    5    6 2  
     6    5   11 1  
     7    6    7 1  
     8    7    8 2  
     9    7    9 1  
    10    9   10 2  
    11   10   11 1  
    12   11   12 1  
    13   12   13 2  
    14   12   14 am 
    15   14   15 1  
    16   15   16 ar 
    17   15   17 ar 
    18   16   27 ar 
    19   17   18 1  
    20   17   25 ar 
    21   18   19 1  
    22   18   24 1  
    23   19   20 1  
    24   20   21 1  
    25   21   22 1  
    26   21   23 1  
    27   23   24 1  
    28   25   26 ar 
    29   26   27 ar 
    30   27   28 1  
    31   28   29 ar 
    32   28   30 ar 
    33   29   33 ar 
    34   30   31 ar 
    35   31   32 ar 
    36   32   33 ar 
    37   33   34 1  
    38   34   35 1  
    39   35   36 1  
    40    6   37 1  
    41   10   38 1  
    42   11   39 1  
    43   14   40 1  
    44   16   41 1  
    45   19   42 1  
    46   19   43 1  
    47   20   44 1  
    48   20   45 1  
    49   21   46 1  
    50   22   47 1  
    51   22   48 1  
    52   22   49 1  
    53   23   50 1  
    54   23   51 1  
    55   24   52 1  
    56   24   53 1  
    57   25   54 1  
    58   26   55 1  
    59   29   56 1  
    60   30   57 1  
    61   31   58 1  
    62   32   59 1  
    63   34   60 1  
    64   34   61 1  
    65   35   62 1  
    66   35   63 1  
    67   36   64 1  
    68   36   65 1  
    69   36   66 1  
@<TRIPOS>SUBSTRUCTURE
     1 35Q         1

