### 
### Created by X-TOOL on Mon Sep 10 21:13:25 2018
### 

@<TRIPOS>MOLECULE
4ql8_ligand
   37    39     1     0     0
SMALL
GAST_HUCK


@<TRIPOS>ATOM
      1 CL1        23.6410    5.0210    4.0810 Cl        1 JAD        -0.0669
      2 C3         25.3710    4.5570    3.9880 C.ar      1 JAD         0.0754
      3 C2         26.3140    5.5590    3.8100 C.ar      1 JAD         0.0999
      4 C7         25.9620    6.7930    3.7130 C.1       1 JAD         0.0947
      5 N1         25.6640    7.9120    3.6620 N.1       1 JAD        -0.3321
      6 C4         25.7490    3.2160    4.0980 C.ar      1 JAD        -0.0119
      7 C8         24.6550    2.1880    4.2910 C.3       1 JAD        -0.0274
      8 C5         27.1080    2.8790    4.0190 C.ar      1 JAD         0.0083
      9 C6         28.0450    3.9020    3.8430 C.ar      1 JAD        -0.0492
     10 C1         27.6590    5.2300    3.7370 C.ar      1 JAD        -0.0348
     11 C9         27.6490    1.4720    4.1240 C.2       1 JAD         0.0782
     12 C11        29.0690    1.1900    4.4710 C.3       1 JAD         0.1309
     13 O2         29.3190    1.6760    5.7850 O.3       1 JAD        -0.3642
     14 C15        30.6990    1.8220    6.1040 C.3       1 JAD         0.0395
     15 C10        29.1070   -0.3210    4.4080 C.3       1 JAD         0.1116
     16 C14        29.7970   -0.8830    3.1690 C.3       1 JAD         0.0849
     17 O1         30.9870   -1.5980    3.5090 O.3       1 JAD        -0.3892
     18 C13        28.7990   -1.8120    2.5030 C.3       1 JAD        -0.0034
     19 C12        27.5460   -1.8030    3.3710 C.3       1 JAD         0.0414
     20 N3         27.6890   -0.7070    4.3430 N.pl3     1 JAD        -0.2519
     21 N2         27.0210    0.3890    3.9590 N.2       1 JAD        -0.2218
     22 H1         23.6784    2.6933    4.3216 H         1 JAD         0.0400
     23 H2         24.8195    1.6506    5.2366 H         1 JAD         0.0400
     24 H3         24.6719    1.4731    3.4551 H         1 JAD         0.0400
     25 H4         29.0981    3.6511    3.7881 H         1 JAD         0.0620
     26 H5         28.4037    6.0053    3.5980 H         1 JAD         0.0656
     27 H6         29.7722    1.6431    3.7567 H         1 JAD         0.0791
     28 H7         30.7996    2.2002    7.1320 H         1 JAD         0.0526
     29 H8         31.1638    2.5326    5.4048 H         1 JAD         0.0526
     30 H9         31.1996    0.8460    6.0218 H         1 JAD         0.0526
     31 H10        29.5926   -0.7238    5.3091 H         1 JAD         0.0639
     32 H11        30.0576   -0.0611    2.4859 H         1 JAD         0.0620
     33 H12        30.7671   -2.3210    4.0846 H         1 JAD         0.2099
     34 H13        29.2108   -2.8302    2.4422 H         1 JAD         0.0311
     35 H14        28.5619   -1.4513    1.4912 H         1 JAD         0.0311
     36 H15        27.4481   -2.7629    3.8991 H         1 JAD         0.0529
     37 H16        26.6568   -1.6363    2.7453 H         1 JAD         0.0529
@<TRIPOS>BOND
     1    1    2 1  
     2    2    3 ar 
     3    2    6 ar 
     4    3    4 1  
     5    3   10 ar 
     6    4    5 3  
     7    6    7 1  
     8    6    8 ar 
     9    8    9 ar 
    10    8   11 1  
    11    9   10 ar 
    12   11   12 1  
    13   11   21 2  
    14   12   13 1  
    15   12   15 1  
    16   13   14 1  
    17   15   16 1  
    18   15   20 1  
    19   16   17 1  
    20   16   18 1  
    21   18   19 1  
    22   19   20 1  
    23   20   21 1  
    24    7   22 1  
    25    7   23 1  
    26    7   24 1  
    27    9   25 1  
    28   10   26 1  
    29   12   27 1  
    30   14   28 1  
    31   14   29 1  
    32   14   30 1  
    33   15   31 1  
    34   16   32 1  
    35   17   33 1  
    36   18   34 1  
    37   18   35 1  
    38   19   36 1  
    39   19   37 1  
@<TRIPOS>SUBSTRUCTURE
     1 JAD         1

