### 
### Created by X-TOOL on Mon Sep 10 21:13:20 2018
### 

@<TRIPOS>MOLECULE
4qlk_ligand
   87    90     1     0     0
SMALL
GAST_HUCK


@<TRIPOS>ATOM
      1 O1B       -13.2430   -2.0460   57.4290 O.3       1 CTT        -0.3649
      2 C1B       -12.1500   -2.6270   56.7050 C.3       1 CTT         0.1854
      3 C2B       -12.3960   -2.5250   55.2010 C.3       1 CTT         0.1339
      4 O2B       -13.6720   -3.0900   54.8820 O.3       1 CTT        -0.3841
      5 C3B       -11.2390   -3.2250   54.4780 C.3       1 CTT         0.1144
      6 O3B       -11.4530   -3.3050   53.0550 O.3       1 CTT        -0.3864
      7 O5B       -10.9180   -1.9560   56.9960 O.3       1 CTT        -0.3407
      8 C5B        -9.7740   -2.5340   56.3470 C.3       1 CTT         0.1134
      9 C6B        -8.5250   -1.8040   56.8570 C.3       1 CTT         0.0730
     10 O6B        -8.6810   -0.3960   56.6370 O.3       1 CTT        -0.3924
     11 C4B        -9.9560   -2.4690   54.8240 C.3       1 CTT         0.1184
     12 O4B        -8.8470   -3.0370   54.1180 O.3       1 CTT        -0.3401
     13 C1C        -7.9720   -2.1500   53.3990 C.3       1 CTT         0.1884
     14 C2C        -6.6810   -2.9530   53.2280 C.3       1 CTT         0.1341
     15 O2C        -6.0240   -3.0620   54.4960 O.3       1 CTT        -0.3841
     16 C3C        -5.7220   -2.3840   52.1820 C.3       1 CTT         0.1144
     17 O3C        -4.6620   -3.3130   51.9650 O.3       1 CTT        -0.3864
     18 O5C        -8.5220   -1.7940   52.1170 O.3       1 CTT        -0.3405
     19 C5C        -7.6120   -1.1950   51.1760 C.3       1 CTT         0.1134
     20 C6C        -8.3860   -0.8370   49.9140 C.3       1 CTT         0.0730
     21 O6C        -9.4170    0.0840   50.2700 O.3       1 CTT        -0.3924
     22 C4C        -6.4380   -2.1180   50.8650 C.3       1 CTT         0.1184
     23 O4C        -5.5320   -1.5310   49.9140 O.3       1 CTT        -0.3401
     24 C1D        -5.0290   -2.3840   48.8680 C.3       1 CTT         0.1884
     25 C2D        -4.3160   -1.5560   47.8020 C.3       1 CTT         0.1341
     26 O2D        -5.2550   -0.6140   47.2860 O.3       1 CTT        -0.3841
     27 C3D        -3.7470   -2.4250   46.6840 C.3       1 CTT         0.1144
     28 O3D        -2.9140   -1.6480   45.8080 O.3       1 CTT        -0.3864
     29 O5D        -4.0560   -3.3230   49.3170 O.3       1 CTT        -0.3405
     30 C5D        -3.7340   -4.2930   48.3040 C.3       1 CTT         0.1134
     31 C6D        -3.0280   -5.4530   48.9900 C.3       1 CTT         0.0730
     32 O6D        -3.8120   -5.8220   50.1450 O.3       1 CTT        -0.3924
     33 C4D        -2.9430   -3.6390   47.1630 C.3       1 CTT         0.1184
     34 O4D        -2.7800   -4.4930   46.0080 O.3       1 CTT        -0.3401
     35 C1E        -1.5530   -5.2410   45.7100 C.3       1 CTT         0.1884
     36 C2E        -1.4480   -5.5450   44.1730 C.3       1 CTT         0.1341
     37 O2E        -1.4290   -6.9520   43.8570 O.3       1 CTT        -0.3841
     38 C3E        -0.2060   -5.0140   43.4700 C.3       1 CTT         0.1141
     39 O3E        -0.4160   -4.9730   42.0360 O.3       1 CTT        -0.3864
     40 C4E         0.0970   -3.6580   44.0770 C.3       1 CTT         0.1119
     41 O4E         1.0890   -2.9730   43.3080 O.3       1 CTT        -0.3865
     42 O5E        -0.4050   -4.5920   46.3020 O.3       1 CTT        -0.3405
     43 C5E         0.5790   -3.9260   45.4980 C.3       1 CTT         0.1130
     44 C6E         0.9590   -2.6450   46.2390 C.3       1 CTT         0.0730
     45 O6E        -0.1770   -1.7650   46.3320 O.3       1 CTT        -0.3924
     46 H1        -13.3315   -1.1317   57.1867 H         1 CTT         0.2126
     47 H2        -12.0611   -3.6858   56.9896 H         1 CTT         0.0935
     48 H3        -12.4039   -1.4653   54.9063 H         1 CTT         0.0671
     49 H4        -14.3520   -2.6158   55.3459 H         1 CTT         0.2101
     50 H5        -11.1559   -4.2524   54.8620 H         1 CTT         0.0648
     51 H6        -11.5364   -2.4283   52.6987 H         1 CTT         0.2100
     52 H7         -9.6946   -3.5932   56.6329 H         1 CTT         0.0647
     53 H8         -7.6396   -2.1656   56.3137 H         1 CTT         0.0584
     54 H9         -8.3993   -1.9968   57.9326 H         1 CTT         0.0584
     55 H10        -9.4466   -0.0862   57.1065 H         1 CTT         0.2095
     56 H11       -10.0592   -1.4164   54.5216 H         1 CTT         0.0651
     57 H12        -7.7866   -1.2352   53.9811 H         1 CTT         0.0938
     58 H13        -6.9621   -3.9637   52.8973 H         1 CTT         0.0671
     59 H14        -6.5968   -3.5047   55.1111 H         1 CTT         0.2101
     60 H15        -5.3049   -1.4380   52.5576 H         1 CTT         0.0648
     61 H16        -4.0637   -2.9630   51.3154 H         1 CTT         0.2100
     62 H17        -7.2107   -0.2703   51.6163 H         1 CTT         0.0647
     63 H18        -8.8309   -1.7445   49.4799 H         1 CTT         0.0584
     64 H19        -7.7094   -0.3735   49.1809 H         1 CTT         0.0584
     65 H20        -9.9960   -0.3206   50.9052 H         1 CTT         0.2095
     66 H21        -6.8177   -3.0643   50.4523 H         1 CTT         0.0651
     67 H22        -5.8781   -2.9226   48.4220 H         1 CTT         0.0938
     68 H23        -3.4832   -1.0128   48.2725 H         1 CTT         0.0671
     69 H24        -5.5604   -0.0546   47.9905 H         1 CTT         0.2101
     70 H25        -4.6013   -2.8025   46.1029 H         1 CTT         0.0648
     71 H26        -2.1943   -1.2764   46.3043 H         1 CTT         0.2100
     72 H27        -4.6705   -4.6766   47.8728 H         1 CTT         0.0647
     73 H28        -2.0198   -5.1451   49.3043 H         1 CTT         0.0584
     74 H29        -2.9524   -6.3065   48.3002 H         1 CTT         0.0584
     75 H30        -3.3919   -6.5467   50.5931 H         1 CTT         0.2095
     76 H31        -1.9548   -3.3312   47.5356 H         1 CTT         0.0651
     77 H32        -1.6411   -6.2178   46.2081 H         1 CTT         0.0938
     78 H33        -2.3329   -5.0880   43.7059 H         1 CTT         0.0671
     79 H34        -0.6808   -7.3597   44.2771 H         1 CTT         0.2101
     80 H35         0.6410   -5.6866   43.6702 H         1 CTT         0.0648
     81 H36         0.3662   -4.6402   41.6119 H         1 CTT         0.2100
     82 H37        -0.8171   -3.0467   44.1039 H         1 CTT         0.0647
     83 H38         1.2656   -2.1270   43.7026 H         1 CTT         0.2100
     84 H39         1.4688   -4.5690   45.4288 H         1 CTT         0.0647
     85 H40         1.7678   -2.1367   45.6936 H         1 CTT         0.0584
     86 H41         1.3038   -2.9005   47.2518 H         1 CTT         0.0584
     87 H42        -0.4753   -1.5414   45.4582 H         1 CTT         0.2095
@<TRIPOS>BOND
     1    1    2 1  
     2    2    3 1  
     3    2    7 1  
     4    3    4 1  
     5    3    5 1  
     6    5    6 1  
     7    5   11 1  
     8    7    8 1  
     9    8    9 1  
    10    8   11 1  
    11    9   10 1  
    12   11   12 1  
    13   12   13 1  
    14   13   14 1  
    15   13   18 1  
    16   14   15 1  
    17   14   16 1  
    18   16   17 1  
    19   16   22 1  
    20   18   19 1  
    21   19   20 1  
    22   19   22 1  
    23   20   21 1  
    24   22   23 1  
    25   23   24 1  
    26   24   25 1  
    27   24   29 1  
    28   25   26 1  
    29   25   27 1  
    30   27   28 1  
    31   27   33 1  
    32   29   30 1  
    33   30   31 1  
    34   30   33 1  
    35   31   32 1  
    36   33   34 1  
    37   34   35 1  
    38   35   36 1  
    39   35   42 1  
    40   36   37 1  
    41   36   38 1  
    42   38   39 1  
    43   38   40 1  
    44   40   41 1  
    45   40   43 1  
    46   42   43 1  
    47   43   44 1  
    48   44   45 1  
    49    1   46 1  
    50    2   47 1  
    51    3   48 1  
    52    4   49 1  
    53    5   50 1  
    54    6   51 1  
    55    8   52 1  
    56    9   53 1  
    57    9   54 1  
    58   10   55 1  
    59   11   56 1  
    60   13   57 1  
    61   14   58 1  
    62   15   59 1  
    63   16   60 1  
    64   17   61 1  
    65   19   62 1  
    66   20   63 1  
    67   20   64 1  
    68   21   65 1  
    69   22   66 1  
    70   24   67 1  
    71   25   68 1  
    72   26   69 1  
    73   27   70 1  
    74   28   71 1  
    75   30   72 1  
    76   31   73 1  
    77   31   74 1  
    78   32   75 1  
    79   33   76 1  
    80   35   77 1  
    81   36   78 1  
    82   37   79 1  
    83   38   80 1  
    84   39   81 1  
    85   40   82 1  
    86   41   83 1  
    87   43   84 1  
    88   44   85 1  
    89   44   86 1  
    90   45   87 1  
@<TRIPOS>SUBSTRUCTURE
     1 CTT         1

