### 
### Created by X-TOOL on Mon Sep 10 21:13:21 2018
### 

@<TRIPOS>MOLECULE
4qll_ligand
   87    90     1     0     0
SMALL
GAST_HUCK


@<TRIPOS>ATOM
      1 O1B         2.1130   -1.0090   53.5450 O.3       1 CTT        -0.3649
      2 C1B         2.7080   -0.5790   52.3100 C.3       1 CTT         0.1854
      3 C2B         2.6140   -1.6800   51.2560 C.3       1 CTT         0.1339
      4 O2B         3.2150   -2.8850   51.7320 O.3       1 CTT        -0.3841
      5 C3B         3.3120   -1.1960   49.9840 C.3       1 CTT         0.1144
      6 O3B         3.4160   -2.2420   48.9990 O.3       1 CTT        -0.3864
      7 O5B         2.0410    0.5910   51.8070 O.3       1 CTT        -0.3407
      8 C5B         2.5960    1.0990   50.5810 C.3       1 CTT         0.1134
      9 C6B         1.8340    2.3760   50.2240 C.3       1 CTT         0.0730
     10 O6B         0.4330    2.0860   50.1180 O.3       1 CTT        -0.3924
     11 C4B         2.5500    0.0320   49.4840 C.3       1 CTT         0.1184
     12 O4B         3.1440    0.4950   48.2690 O.3       1 CTT        -0.3401
     13 C1C         2.2590    0.7690   47.1740 C.3       1 CTT         0.1884
     14 C2C         3.0470    1.7070   46.2670 C.3       1 CTT         0.1341
     15 O2C         3.1800    2.9920   46.8900 O.3       1 CTT        -0.3841
     16 C3C         2.4650    1.8550   44.8620 C.3       1 CTT         0.1144
     17 O3C         3.4220    2.5910   44.0850 O.3       1 CTT        -0.3864
     18 O5C         1.9160   -0.4380   46.4730 O.3       1 CTT        -0.3405
     19 C5C         1.2610   -0.2700   45.2070 C.3       1 CTT         0.1134
     20 C6C         0.8590   -1.6530   44.7050 C.3       1 CTT         0.0730
     21 O6C         0.0900   -2.3300   45.7160 O.3       1 CTT        -0.3924
     22 C4C         2.1740    0.4860   44.2380 C.3       1 CTT         0.1184
     23 O4C         1.5830    0.6330   42.9290 O.3       1 CTT        -0.3401
     24 C1D         2.4460    0.3860   41.7980 C.3       1 CTT         0.1884
     25 C2D         1.6140    0.3150   40.5230 C.3       1 CTT         0.1341
     26 O2D         0.7110   -0.7750   40.6970 O.3       1 CTT        -0.3841
     27 C3D         2.4700    0.1040   39.2790 C.3       1 CTT         0.1144
     28 O3D         1.6770    0.2490   38.0870 O.3       1 CTT        -0.3864
     29 O5D         3.4150    1.4080   41.5640 O.3       1 CTT        -0.3405
     30 C5D         4.3650    1.0580   40.5440 C.3       1 CTT         0.1134
     31 C6D         5.4940    2.0610   40.6410 C.3       1 CTT         0.0730
     32 O6D         5.9570    2.0340   42.0110 O.3       1 CTT        -0.3924
     33 C4D         3.6980    1.0130   39.1660 C.3       1 CTT         0.1184
     34 O4D         4.5210    0.4390   38.1260 O.3       1 CTT        -0.3401
     35 C1E         5.3690    1.1760   37.1840 C.3       1 CTT         0.1884
     36 C2E         5.7100    0.3300   35.8980 C.3       1 CTT         0.1341
     37 O2E         7.1180    0.1720   35.6370 O.3       1 CTT        -0.3841
     38 C3E         5.1600    0.8790   34.5830 C.3       1 CTT         0.1141
     39 O3E         5.0910   -0.1620   33.5690 O.3       1 CTT        -0.3864
     40 C4E         3.8010    1.4780   34.9090 C.3       1 CTT         0.1119
     41 O4E         3.1130    1.7920   33.7000 O.3       1 CTT        -0.3865
     42 O5E         4.7970    2.4720   36.9280 O.3       1 CTT        -0.3405
     43 C5E         4.0870    2.7410   35.7090 C.3       1 CTT         0.1130
     44 C6E         2.8350    3.5360   36.0690 C.3       1 CTT         0.0730
     45 O6E         1.8950    2.7510   36.8350 O.3       1 CTT        -0.3924
     46 H1          1.1972   -1.2151   53.3991 H         1 CTT         0.2126
     47 H2          3.7667   -0.3416   52.4912 H         1 CTT         0.0935
     48 H3          1.5549   -1.8773   51.0337 H         1 CTT         0.0671
     49 H4          3.1469   -3.5569   51.0639 H         1 CTT         0.2101
     50 H5          4.3349   -0.8850   50.2427 H         1 CTT         0.0648
     51 H6          2.5458   -2.5435   48.7658 H         1 CTT         0.2100
     52 H7          3.6510    1.3612   50.7489 H         1 CTT         0.0647
     53 H8          2.2011    2.7649   49.2628 H         1 CTT         0.0584
     54 H9          1.9936    3.1294   51.0095 H         1 CTT         0.0584
     55 H10         0.1165    1.7504   50.9485 H         1 CTT         0.2095
     56 H11         1.5020   -0.2382   49.2876 H         1 CTT         0.0651
     57 H12         1.3405    1.2566   47.5326 H         1 CTT         0.0938
     58 H13         4.0544    1.2795   46.1554 H         1 CTT         0.0671
     59 H14         3.6387    2.8961   47.7164 H         1 CTT         0.2101
     60 H15         1.5243    2.4227   44.9143 H         1 CTT         0.0648
     61 H16         3.0920    2.7026   43.2012 H         1 CTT         0.2100
     62 H17         0.3485    0.3274   45.3500 H         1 CTT         0.0647
     63 H18         1.7632   -2.2378   44.4803 H         1 CTT         0.0584
     64 H19         0.2532   -1.5493   43.7927 H         1 CTT         0.0584
     65 H20         0.6137   -2.4197   46.5035 H         1 CTT         0.2095
     66 H21         3.1168   -0.0701   44.1290 H         1 CTT         0.0651
     67 H22         2.9647   -0.5699   41.9628 H         1 CTT         0.0938
     68 H23         1.0489    1.2511   40.4038 H         1 CTT         0.0671
     69 H24         0.1621   -0.6121   41.4551 H         1 CTT         0.2101
     70 H25         2.8374   -0.9320   39.3197 H         1 CTT         0.0648
     71 H26         1.3045    1.1225   38.0601 H         1 CTT         0.2100
     72 H27         4.7673    0.0561   40.7544 H         1 CTT         0.0647
     73 H28         5.1308    3.0668   40.3833 H         1 CTT         0.0584
     74 H29         6.3103    1.7801   39.9593 H         1 CTT         0.0584
     75 H30         6.6699    2.6532   42.1154 H         1 CTT         0.2095
     76 H31         3.4030    2.0324   38.8764 H         1 CTT         0.0651
     77 H32         6.3292    1.3552   37.6898 H         1 CTT         0.0938
     78 H33         5.2738   -0.6661   36.0639 H         1 CTT         0.0671
     79 H34         7.5146    1.0269   35.5171 H         1 CTT         0.2101
     80 H35         5.8235    1.6741   34.2122 H         1 CTT         0.0648
     81 H36         4.7466    0.2047   32.7632 H         1 CTT         0.2100
     82 H37         3.2002    0.7747   35.5043 H         1 CTT         0.0647
     83 H38         2.2647    2.1659   33.9076 H         1 CTT         0.2100
     84 H39         4.7222    3.3808   35.0788 H         1 CTT         0.0647
     85 H40         2.3466    3.8681   35.1410 H         1 CTT         0.0584
     86 H41         3.1305    4.4138   36.6623 H         1 CTT         0.0584
     87 H42         1.6293    1.9931   36.3274 H         1 CTT         0.2095
@<TRIPOS>BOND
     1    1    2 1  
     2    2    3 1  
     3    2    7 1  
     4    3    4 1  
     5    3    5 1  
     6    5    6 1  
     7    5   11 1  
     8    7    8 1  
     9    8    9 1  
    10    8   11 1  
    11    9   10 1  
    12   11   12 1  
    13   12   13 1  
    14   13   14 1  
    15   13   18 1  
    16   14   15 1  
    17   14   16 1  
    18   16   17 1  
    19   16   22 1  
    20   18   19 1  
    21   19   20 1  
    22   19   22 1  
    23   20   21 1  
    24   22   23 1  
    25   23   24 1  
    26   24   25 1  
    27   24   29 1  
    28   25   26 1  
    29   25   27 1  
    30   27   28 1  
    31   27   33 1  
    32   29   30 1  
    33   30   31 1  
    34   30   33 1  
    35   31   32 1  
    36   33   34 1  
    37   34   35 1  
    38   35   36 1  
    39   35   42 1  
    40   36   37 1  
    41   36   38 1  
    42   38   39 1  
    43   38   40 1  
    44   40   41 1  
    45   40   43 1  
    46   42   43 1  
    47   43   44 1  
    48   44   45 1  
    49    1   46 1  
    50    2   47 1  
    51    3   48 1  
    52    4   49 1  
    53    5   50 1  
    54    6   51 1  
    55    8   52 1  
    56    9   53 1  
    57    9   54 1  
    58   10   55 1  
    59   11   56 1  
    60   13   57 1  
    61   14   58 1  
    62   15   59 1  
    63   16   60 1  
    64   17   61 1  
    65   19   62 1  
    66   20   63 1  
    67   20   64 1  
    68   21   65 1  
    69   22   66 1  
    70   24   67 1  
    71   25   68 1  
    72   26   69 1  
    73   27   70 1  
    74   28   71 1  
    75   30   72 1  
    76   31   73 1  
    77   31   74 1  
    78   32   75 1  
    79   33   76 1  
    80   35   77 1  
    81   36   78 1  
    82   37   79 1  
    83   38   80 1  
    84   39   81 1  
    85   40   82 1  
    86   41   83 1  
    87   43   84 1  
    88   44   85 1  
    89   44   86 1  
    90   45   87 1  
@<TRIPOS>SUBSTRUCTURE
     1 CTT         1

