### 
### Created by X-TOOL on Mon Sep 10 21:13:18 2018
### 

@<TRIPOS>MOLECULE
4qlq_ligand
   93    95     1     0     0
SMALL
GAST_HUCK


@<TRIPOS>ATOM
      1 C2         59.6660 -135.0780   34.4700 C.2       1 38N         0.2238
      2 O3         59.6370 -136.2640   34.7970 O.2       1 38N        -0.3910
      3 C4         58.5720 -134.4910   33.5560 C.3       1 38N         0.0582
      4 N5         57.3190 -134.6320   34.2890 N.4       1 38N         0.2552
      5 O8         54.7370 -133.9320   35.0670 O.3       1 38N        -0.3693
      6 C6         57.0210 -133.4520   35.1220 C.3       1 38N        -0.0060
      7 C10        56.2170 -134.8060   33.3190 C.3       1 38N        -0.0060
      8 C7         55.8720 -133.8620   35.9370 C.3       1 38N         0.0878
      9 C9         54.8410 -134.8660   33.9410 C.3       1 38N         0.0878
     10 N1         60.6240 -134.2220   34.8610 N.am      1 38N        -0.2615
     11 C11        61.7390 -134.6630   35.7160 C.3       1 38N         0.1283
     12 C13        61.3000 -134.7270   37.1870 C.2       1 38N         0.2037
     13 O14        60.4970 -133.9130   37.6380 O.2       1 38N        -0.3944
     14 C12        62.9250 -133.6970   35.5590 C.3       1 38N        -0.0244
     15 N15        61.8540 -135.7230   37.9020 N.am      1 38N        -0.2621
     16 C16        61.5860 -135.9100   39.3390 C.3       1 38N         0.1389
     17 C17        60.9510 -137.2470   39.6220 C.3       1 38N         0.0163
     18 C18        59.6110 -137.2160   39.2190 C.ar      1 38N        -0.0493
     19 C25        59.2340 -137.6130   37.9380 C.ar      1 38N        -0.0685
     20 C24        57.8910 -137.5900   37.5590 C.ar      1 38N        -0.0396
     21 C21        56.9020 -137.1790   38.4540 C.ar      1 38N         0.0837
     22 O22        55.6020 -137.1830   38.0070 O.3       1 38N        -0.3257
     23 C23        54.5100 -136.7510   38.8510 C.3       1 38N         0.0579
     24 C20        57.2890 -136.7900   39.7430 C.ar      1 38N        -0.0396
     25 C19        58.6270 -136.8130   40.1180 C.ar      1 38N        -0.0685
     26 C26        62.9230 -135.9080   40.0990 C.2       1 38N         0.2038
     27 O27        63.9780 -136.1550   39.5120 O.2       1 38N        -0.3944
     28 N28        62.8320 -135.6780   41.4240 N.am      1 38N        -0.2794
     29 C29        64.0190 -135.6860   42.3000 C.3       1 38N         0.0685
     30 C30        64.2510 -134.3210   42.9420 C.3       1 38N        -0.0246
     31 C41        64.4040 -133.1870   41.8980 C.3       1 38N        -0.0389
     32 C42        65.6890 -133.3660   41.1440 C.3       1 38N        -0.0501
     33 C43        65.9060 -132.1350   40.2500 C.3       1 38N        -0.0528
     34 C44        66.0760 -130.8910   41.1220 C.3       1 38N        -0.0530
     35 C45        64.7620 -130.6330   41.8370 C.3       1 38N        -0.0528
     36 C46        64.3810 -131.8520   42.6880 C.3       1 38N        -0.0501
     37 C31        63.8430 -136.7140   43.4690 C.3       1 38N         0.0827
     38 O32        62.5550 -136.4870   44.0400 O.3       1 38N        -0.3892
     39 C37        64.0700 -138.3040   43.1620 C.3       1 38N         0.0075
     40 C38        65.0880 -138.4690   41.9920 C.3       1 38N        -0.0579
     41 C39        62.7840 -138.9200   42.5810 C.3       1 38N         0.0492
     42 O40        61.7840 -137.9120   42.6290 O.3       1 38N        -0.3947
     43 H          58.5256 -135.0481   32.6087 H         1 38N         0.1063
     44 H          58.7760 -133.4303   33.3480 H         1 38N         0.1063
     45 H          57.3791 -135.4444   34.8827 H         1 38N         0.2054
     46 H          56.7635 -132.5867   34.4935 H         1 38N         0.0837
     47 H          57.8804 -133.1989   35.7602 H         1 38N         0.0837
     48 H          56.3872 -135.7436   32.7695 H         1 38N         0.0837
     49 H          56.2403 -133.9599   32.6165 H         1 38N         0.0837
     50 H          56.0624 -134.8472   36.3876 H         1 38N         0.0613
     51 H          55.6919 -133.1237   36.7323 H         1 38N         0.0613
     52 H          54.0904 -134.6008   33.1820 H         1 38N         0.0613
     53 H          54.6526 -135.8880   34.3016 H         1 38N         0.0613
     54 H          60.5794 -133.2675   34.5661 H         1 38N         0.1884
     55 H          62.0537 -135.6678   35.3978 H         1 38N         0.0797
     56 H          63.7557 -134.0294   36.1988 H         1 38N         0.0277
     57 H          62.6152 -132.6845   35.8569 H         1 38N         0.0277
     58 H          63.2526 -133.6862   34.5090 H         1 38N         0.0277
     59 H          62.4711 -136.3606   37.4408 H         1 38N         0.1885
     60 H          60.9345 -135.0999   39.6986 H         1 38N         0.0821
     61 H          61.0059 -137.4593   40.6999 H         1 38N         0.0453
     62 H          61.4840 -138.0323   39.0660 H         1 38N         0.0453
     63 H          59.9879 -137.9416   37.2317 H         1 38N         0.0530
     64 H          57.6125 -137.8952   36.5568 H         1 38N         0.0525
     65 H          53.5632 -136.8353   38.2974 H         1 38N         0.0575
     66 H          54.6686 -135.7040   39.1487 H         1 38N         0.0575
     67 H          54.4674 -137.3851   39.7488 H         1 38N         0.0575
     68 H          56.5375 -136.4679   40.4548 H         1 38N         0.0525
     69 H          58.9077 -136.5139   41.1214 H         1 38N         0.0530
     70 H          61.9339 -135.4967   41.8248 H         1 38N         0.1856
     71 H          64.8977 -135.9606   41.6980 H         1 38N         0.0582
     72 H          65.1684 -134.3682   43.5471 H         1 38N         0.0291
     73 H          63.3947 -134.0877   43.5918 H         1 38N         0.0291
     74 H          63.5644 -133.2112   41.1878 H         1 38N         0.0302
     75 H          65.6308 -134.2709   40.5214 H         1 38N         0.0268
     76 H          66.5248 -133.4616   41.8528 H         1 38N         0.0268
     77 H          65.0355 -132.0035   39.5906 H         1 38N         0.0265
     78 H          66.8096 -132.2805   39.6398 H         1 38N         0.0265
     79 H          66.3337 -130.0267   40.4923 H         1 38N         0.0265
     80 H          66.8749 -131.0588   41.8593 H         1 38N         0.0265
     81 H          63.9730 -130.4465   41.0936 H         1 38N         0.0265
     82 H          64.8679 -129.7527   42.4881 H         1 38N         0.0265
     83 H          65.0917 -131.9293   43.5240 H         1 38N         0.0268
     84 H          63.3659 -131.6980   43.0827 H         1 38N         0.0268
     85 H          64.5972 -136.4502   44.2250 H         1 38N         0.0620
     86 H          61.8881 -136.6176   43.3762 H         1 38N         0.2099
     87 H          64.3999 -138.8281   44.0711 H         1 38N         0.0346
     88 H          65.2399 -139.5389   41.7863 H         1 38N         0.0234
     89 H          66.0472 -138.0098   42.2731 H         1 38N         0.0234
     90 H          64.6948 -137.9748   41.0914 H         1 38N         0.0234
     91 H          62.4752 -139.7877   43.1824 H         1 38N         0.0560
     92 H          62.9526 -139.2360   41.5410 H         1 38N         0.0560
     93 H          61.6508 -137.6423   43.5301 H         1 38N         0.2094
@<TRIPOS>BOND
     1    1    2 2  
     2    3    1 1  
     3    1   10 am 
     4    4    3 1  
     5    6    4 1  
     6    4    7 1  
     7    8    5 1  
     8    5    9 1  
     9    6    8 1  
    10    7    9 1  
    11   10   11 1  
    12   11   12 1  
    13   11   14 1  
    14   12   13 2  
    15   12   15 am 
    16   15   16 1  
    17   16   17 1  
    18   16   26 1  
    19   17   18 1  
    20   18   19 ar 
    21   18   25 ar 
    22   19   20 ar 
    23   20   21 ar 
    24   21   22 1  
    25   21   24 ar 
    26   22   23 1  
    27   24   25 ar 
    28   26   27 2  
    29   26   28 am 
    30   28   29 1  
    31   29   30 1  
    32   29   37 1  
    33   30   31 1  
    34   31   32 1  
    35   31   36 1  
    36   32   33 1  
    37   33   34 1  
    38   34   35 1  
    39   35   36 1  
    40   37   38 1  
    41   37   39 1  
    42   39   40 1  
    43   39   41 1  
    44   41   42 1  
    45    3   43 1  
    46    3   44 1  
    47    4   45 1  
    48    6   46 1  
    49    6   47 1  
    50    7   48 1  
    51    7   49 1  
    52    8   50 1  
    53    8   51 1  
    54    9   52 1  
    55    9   53 1  
    56   10   54 1  
    57   11   55 1  
    58   14   56 1  
    59   14   57 1  
    60   14   58 1  
    61   15   59 1  
    62   16   60 1  
    63   17   61 1  
    64   17   62 1  
    65   19   63 1  
    66   20   64 1  
    67   23   65 1  
    68   23   66 1  
    69   23   67 1  
    70   24   68 1  
    71   25   69 1  
    72   28   70 1  
    73   29   71 1  
    74   30   72 1  
    75   30   73 1  
    76   31   74 1  
    77   32   75 1  
    78   32   76 1  
    79   33   77 1  
    80   33   78 1  
    81   34   79 1  
    82   34   80 1  
    83   35   81 1  
    84   35   82 1  
    85   36   83 1  
    86   36   84 1  
    87   37   85 1  
    88   38   86 1  
    89   39   87 1  
    90   40   88 1  
    91   40   89 1  
    92   40   90 1  
    93   41   91 1  
    94   41   92 1  
    95   42   93 1  
@<TRIPOS>SUBSTRUCTURE
     1 38N         1

