### 
### Created by X-TOOL on Mon Sep 10 21:13:17 2018
### 

@<TRIPOS>MOLECULE
4qls_ligand
   93    95     1     0     0
SMALL
GAST_HUCK


@<TRIPOS>ATOM
      1 C2          7.7580 -136.0950   19.5040 C.2       1 37Y         0.2238
      2 O3          7.2800 -136.9750   18.7910 O.2       1 37Y        -0.3910
      3 C4          6.9900 -134.8510   19.9560 C.3       1 37Y         0.0582
      4 N5          5.6430 -134.7360   19.4340 N.4       1 37Y         0.2552
      5 O8          3.2230 -134.6790   18.2430 O.3       1 37Y        -0.3693
      6 C6          5.5630 -134.3850   18.0110 C.3       1 37Y        -0.0060
      7 C10         4.6750 -135.7910   19.7980 C.3       1 37Y        -0.0060
      8 C7          4.2420 -133.7260   17.7820 C.3       1 37Y         0.0878
      9 C9          3.3630 -135.1030   19.6370 C.3       1 37Y         0.0878
     10 N1          9.0010 -136.0990   20.0120 N.am      1 37Y        -0.2615
     11 C11         9.9800 -137.1560   19.7720 C.3       1 37Y         0.1283
     12 C12        10.8560 -137.2810   21.0230 C.3       1 37Y        -0.0244
     13 C13        10.8710 -136.7640   18.5970 C.2       1 37Y         0.2037
     14 O14        11.4300 -135.6680   18.5870 O.2       1 37Y        -0.3944
     15 N15        11.0210 -137.6980   17.6470 N.am      1 37Y        -0.2621
     16 C16        11.8900 -137.4750   16.4790 C.3       1 37Y         0.1389
     17 C17        12.9500 -138.5640   16.4130 C.3       1 37Y         0.0163
     18 C18        13.8800 -138.3260   17.4530 C.ar      1 37Y        -0.0493
     19 C19        15.1320 -137.7620   17.1870 C.ar      1 37Y        -0.0685
     20 C20        16.0450 -137.5360   18.2180 C.ar      1 37Y        -0.0396
     21 C21        15.7310 -137.8790   19.5350 C.ar      1 37Y         0.0837
     22 O22        16.6570 -137.6300   20.5200 O.3       1 37Y        -0.3257
     23 C23        16.7870 -138.5560   21.6210 C.3       1 37Y         0.0579
     24 C24        14.4790 -138.4390   19.8040 C.ar      1 37Y        -0.0396
     25 C25        13.5720 -138.6680   18.7720 C.ar      1 37Y        -0.0685
     26 C26        11.0260 -137.4970   15.2100 C.2       1 37Y         0.2038
     27 O27         9.8830 -137.9470   15.2400 O.2       1 37Y        -0.3944
     28 N28        11.6110 -136.9780   14.1170 N.am      1 37Y        -0.2794
     29 C29        10.9260 -136.9050   12.8190 C.3       1 37Y         0.0685
     30 C30        10.8740 -135.4700   12.3180 C.3       1 37Y        -0.0246
     31 C41        10.0620 -134.5070   13.2210 C.3       1 37Y        -0.0389
     32 C42         9.9500 -133.2560   12.4220 C.3       1 37Y        -0.0501
     33 C43         9.3590 -132.1810   13.3160 C.3       1 37Y        -0.0528
     34 C44         7.9350 -132.5290   13.6810 C.3       1 37Y        -0.0530
     35 C45         7.8690 -133.9150   14.3370 C.3       1 37Y        -0.0528
     36 C46         8.6360 -134.9850   13.5270 C.3       1 37Y        -0.0501
     37 C31        11.7000 -137.6960   11.7300 C.3       1 37Y         0.0827
     38 O32        13.0900 -137.3260   11.8020 O.3       1 37Y        -0.3892
     39 C37        11.5630 -139.2930   11.7480 C.3       1 37Y         0.0075
     40 C38        10.1340 -139.7050   12.1990 C.3       1 37Y        -0.0579
     41 C39        12.4730 -139.7880   12.8960 C.3       1 37Y         0.0492
     42 O40        13.5330 -140.5300   12.2770 O.3       1 37Y        -0.3947
     43 H           7.5568 -133.9650   19.6340 H         1 37Y         0.1063
     44 H           6.9294 -134.8684   21.0542 H         1 37Y         0.1063
     45 H           5.2878 -133.9196   19.9065 H         1 37Y         0.2054
     46 H           5.6406 -135.2934   17.3956 H         1 37Y         0.0837
     47 H           6.3775 -133.6937   17.7488 H         1 37Y         0.0837
     48 H           4.8232 -136.1241   20.8358 H         1 37Y         0.0837
     49 H           4.7558 -136.6540   19.1208 H         1 37Y         0.0837
     50 H           4.1776 -132.7908   18.3575 H         1 37Y         0.0613
     51 H           4.1047 -133.5086   16.7125 H         1 37Y         0.0613
     52 H           2.5481 -135.7946   19.8971 H         1 37Y         0.0613
     53 H           3.3227 -134.2240   20.2970 H         1 37Y         0.0613
     54 H           9.2734 -135.3303   20.5907 H         1 37Y         0.1884
     55 H           9.4704 -138.1079   19.5616 H         1 37Y         0.0797
     56 H          11.6043 -138.0724   20.8690 H         1 37Y         0.0277
     57 H          10.2259 -137.5355   21.8880 H         1 37Y         0.0277
     58 H          11.3667 -136.3249   21.2100 H         1 37Y         0.0277
     59 H          10.5317 -138.5658   17.7334 H         1 37Y         0.1885
     60 H          12.3824 -136.4955   16.5689 H         1 37Y         0.0821
     61 H          13.4608 -138.5305   15.4394 H         1 37Y         0.0453
     62 H          12.4821 -139.5503   16.5479 H         1 37Y         0.0453
     63 H          15.3959 -137.4977   16.1694 H         1 37Y         0.0530
     64 H          17.0073 -137.0899   17.9945 H         1 37Y         0.0525
     65 H          17.5692 -138.2011   22.3082 H         1 37Y         0.0575
     66 H          17.0612 -139.5488   21.2348 H         1 37Y         0.0575
     67 H          15.8297 -138.6233   22.1586 H         1 37Y         0.0575
     68 H          14.2121 -138.6968   20.8225 H         1 37Y         0.0525
     69 H          12.6119 -139.1187   18.9959 H         1 37Y         0.0530
     70 H          12.5454 -136.6292   14.1896 H         1 37Y         0.1856
     71 H           9.9078 -137.3071   12.9267 H         1 37Y         0.0582
     72 H          10.4171 -135.4710   11.3174 H         1 37Y         0.0291
     73 H          11.9046 -135.0914   12.2502 H         1 37Y         0.0291
     74 H          10.5997 -134.3335   14.1648 H         1 37Y         0.0302
     75 H           9.2934 -133.4237   11.5556 H         1 37Y         0.0268
     76 H          10.9458 -132.9454   12.0728 H         1 37Y         0.0268
     77 H           9.3725 -131.2183   12.7840 H         1 37Y         0.0265
     78 H           9.9599 -132.1012   14.2339 H         1 37Y         0.0265
     79 H           7.3183 -132.5304   12.7701 H         1 37Y         0.0265
     80 H           7.5481 -131.7772   14.3846 H         1 37Y         0.0265
     81 H           6.8149 -134.2193   14.4156 H         1 37Y         0.0265
     82 H           8.3082 -133.8512   15.3435 H         1 37Y         0.0265
     83 H           8.6836 -135.9159   14.1110 H         1 37Y         0.0268
     84 H           8.1061 -135.1720   12.5814 H         1 37Y         0.0268
     85 H          11.3066 -137.3619   10.7586 H         1 37Y         0.0620
     86 H          13.1763 -136.3923   11.6496 H         1 37Y         0.2099
     87 H          11.8287 -139.7313   10.7747 H         1 37Y         0.0346
     88 H          10.0540 -140.8021   12.2068 H         1 37Y         0.0234
     89 H           9.3943 -139.2885   11.4994 H         1 37Y         0.0234
     90 H           9.9422 -139.3162   13.2099 H         1 37Y         0.0234
     91 H          11.9048 -140.4346   13.5808 H         1 37Y         0.0560
     92 H          12.8820 -138.9327   13.4539 H         1 37Y         0.0560
     93 H          14.1223 -140.8568   12.9466 H         1 37Y         0.2094
@<TRIPOS>BOND
     1    1    2 2  
     2    3    1 1  
     3    1   10 am 
     4    4    3 1  
     5    6    4 1  
     6    4    7 1  
     7    8    5 1  
     8    5    9 1  
     9    6    8 1  
    10    7    9 1  
    11   10   11 1  
    12   11   12 1  
    13   11   13 1  
    14   13   14 2  
    15   13   15 am 
    16   15   16 1  
    17   16   17 1  
    18   16   26 1  
    19   17   18 1  
    20   18   19 ar 
    21   18   25 ar 
    22   19   20 ar 
    23   20   21 ar 
    24   21   22 1  
    25   21   24 ar 
    26   22   23 1  
    27   24   25 ar 
    28   26   27 2  
    29   26   28 am 
    30   28   29 1  
    31   29   30 1  
    32   29   37 1  
    33   30   31 1  
    34   31   32 1  
    35   31   36 1  
    36   32   33 1  
    37   33   34 1  
    38   34   35 1  
    39   35   36 1  
    40   37   38 1  
    41   37   39 1  
    42   39   40 1  
    43   39   41 1  
    44   41   42 1  
    45    3   43 1  
    46    3   44 1  
    47    4   45 1  
    48    6   46 1  
    49    6   47 1  
    50    7   48 1  
    51    7   49 1  
    52    8   50 1  
    53    8   51 1  
    54    9   52 1  
    55    9   53 1  
    56   10   54 1  
    57   11   55 1  
    58   12   56 1  
    59   12   57 1  
    60   12   58 1  
    61   15   59 1  
    62   16   60 1  
    63   17   61 1  
    64   17   62 1  
    65   19   63 1  
    66   20   64 1  
    67   23   65 1  
    68   23   66 1  
    69   23   67 1  
    70   24   68 1  
    71   25   69 1  
    72   28   70 1  
    73   29   71 1  
    74   30   72 1  
    75   30   73 1  
    76   31   74 1  
    77   32   75 1  
    78   32   76 1  
    79   33   77 1  
    80   33   78 1  
    81   34   79 1  
    82   34   80 1  
    83   35   81 1  
    84   35   82 1  
    85   36   83 1  
    86   36   84 1  
    87   37   85 1  
    88   38   86 1  
    89   39   87 1  
    90   40   88 1  
    91   40   89 1  
    92   40   90 1  
    93   41   91 1  
    94   41   92 1  
    95   42   93 1  
@<TRIPOS>SUBSTRUCTURE
     1 37Y         1

