### 
### Created by X-TOOL on Mon Sep 10 21:13:17 2018
### 

@<TRIPOS>MOLECULE
4qlt_ligand
   88    92     1     0     0
SMALL
GAST_HUCK


@<TRIPOS>ATOM
      1 C59        11.4490 -138.6240   23.8950 C.3       1 39V        -0.0341
      2 C58        11.6390 -137.1260   23.9650 C.2       1 39V        -0.0328
      3 C57        12.1720 -136.5350   25.0060 C.ar      1 39V        -0.0186
      4 C56        12.5740 -137.0060   26.1680 C.ar      1 39V        -0.0616
      5 C55        13.1100 -136.2060   27.1440 C.ar      1 39V        -0.0683
      6 C54        13.2100 -134.8810   26.8690 C.ar      1 39V        -0.0684
      7 C53        12.7620 -134.4500   25.6420 C.ar      1 39V        -0.0579
      8 C52        12.2520 -135.2610   24.7380 C.ar      1 39V        -0.0247
      9 C51        11.7360 -135.0330   23.4790 C.3       1 39V         0.0162
     10 C50        11.3460 -136.2560   23.0280 C.2       1 39V         0.0334
     11 C2         10.7980 -136.5270   21.8520 C.2       1 39V         0.1916
     12 O3         10.5770 -137.6590   21.5300 O.2       1 39V        -0.3965
     13 N1         10.5450 -135.5210   21.0590 N.am      1 39V        -0.2690
     14 C11         9.9160 -135.6060   19.7450 C.3       1 39V         0.1270
     15 C12         8.8570 -136.6640   19.7040 C.3       1 39V        -0.0246
     16 C13        10.9210 -135.7580   18.6450 C.2       1 39V         0.2035
     17 O14        11.8750 -135.0250   18.6490 O.2       1 39V        -0.3944
     18 N15        10.6880 -136.6280   17.6800 N.am      1 39V        -0.2627
     19 C16        11.6060 -136.7770   16.5660 C.3       1 39V         0.1350
     20 C26        10.7810 -136.8410   15.3290 C.2       1 39V         0.2034
     21 O27         9.6630 -137.2740   15.4030 O.2       1 39V        -0.3944
     22 C17        12.4820 -138.0190   16.7050 C.3       1 39V         0.0042
     23 C66        13.5260 -137.6960   17.7520 C.2       1 39V        -0.0418
     24 C65        13.2880 -137.7470   19.0300 C.2       1 39V         0.0167
     25 C67        14.7470 -137.2860   17.5720 C.ar      1 39V        -0.0214
     26 N69        14.3820 -137.3790   19.6440 N.pl3     1 39V        -0.2890
     27 C68        15.2750 -137.0940   18.7440 C.ar      1 39V         0.0603
     28 C63        15.4310 -137.0760   16.5000 C.ar      1 39V        -0.0747
     29 C60        16.4990 -136.6940   18.9190 C.ar      1 39V        -0.0443
     30 C62        16.7280 -136.6510   16.6140 C.ar      1 39V        -0.0792
     31 C61        17.2820 -136.4570   17.8460 C.ar      1 39V        -0.0768
     32 N28        11.3700 -136.4230   14.2150 N.am      1 39V        -0.2774
     33 C29        10.7460 -136.3230   12.9070 C.3       1 39V         0.0777
     34 C31        11.5710 -137.0480   11.8240 C.3       1 39V         0.0845
     35 O32        12.8100 -136.6870   12.0470 O.3       1 39V        -0.3890
     36 C37        11.4860 -138.6130   11.7460 C.3       1 39V         0.0077
     37 C38        10.0890 -139.0910   12.0050 C.3       1 39V        -0.0579
     38 C39        12.3750 -139.2530   12.7730 C.3       1 39V         0.0492
     39 O40        12.4330 -138.4720   13.9440 O.3       1 39V        -0.3947
     40 C30        10.7590 -134.8150   12.6210 C.3       1 39V         0.0064
     41 C41         9.8350 -133.9960   13.2500 C.ar      1 39V        -0.0408
     42 C42         8.8830 -134.4580   14.1140 C.ar      1 39V        -0.0603
     43 C43         8.0100 -133.5790   14.7060 C.ar      1 39V        -0.0686
     44 C44         8.0770 -132.2400   14.4310 C.ar      1 39V        -0.0687
     45 C45         9.0240 -131.7660   13.5640 C.ar      1 39V        -0.0686
     46 C46         9.8950 -132.6500   12.9880 C.ar      1 39V        -0.0603
     47 H          11.7882 -139.0810   24.8363 H         1 39V         0.0381
     48 H          12.0365 -139.0294   23.0581 H         1 39V         0.0381
     49 H          10.3841 -138.8517   23.7398 H         1 39V         0.0381
     50 H          12.4774 -138.0684   26.3606 H         1 39V         0.0602
     51 H          13.4392 -136.6138   28.0929 H         1 39V         0.0563
     52 H          13.6277 -134.1875   27.5899 H         1 39V         0.0593
     53 H          12.8319 -133.3938   25.4081 H         1 39V         0.0567
     54 H          12.5045 -134.6051   22.8185 H         1 39V         0.0625
     55 H          10.8761 -134.3491   23.5323 H         1 39V         0.0625
     56 H          10.8056 -134.6108   21.3809 H         1 39V         0.1864
     57 H           9.4082 -134.6452   19.5749 H         1 39V         0.0795
     58 H           8.4091 -136.6957   18.6998 H         1 39V         0.0277
     59 H           8.0783 -136.4324   20.4456 H         1 39V         0.0277
     60 H           9.3056 -137.6411   19.9363 H         1 39V         0.0277
     61 H           9.8646 -137.1942   17.7172 H         1 39V         0.1884
     62 H          12.2622 -135.8953   16.5203 H         1 39V         0.0815
     63 H          12.9663 -138.2514   15.7451 H         1 39V         0.0397
     64 H          11.8747 -138.8779   17.0268 H         1 39V         0.0397
     65 H          12.3513 -138.0416   19.5009 H         1 39V         0.0795
     66 H          14.5133 -137.3244   20.6641 H         1 39V         0.2216
     67 H          14.9868 -137.2332   15.5237 H         1 39V         0.0540
     68 H          16.8884 -136.5517   19.9206 H         1 39V         0.0541
     69 H          17.3167 -136.4680   15.7223 H         1 39V         0.0510
     70 H          18.3082 -136.1263   17.9579 H         1 39V         0.0530
     71 H          12.3303 -136.1524   14.2825 H         1 39V         0.1857
     72 H           9.7212 -136.7221   12.9271 H         1 39V         0.0604
     73 H          11.2477 -136.6635   10.8454 H         1 39V         0.0621
     74 H          13.0644 -136.9558   12.9219 H         1 39V         0.2099
     75 H          11.8004 -138.9323   10.7414 H         1 39V         0.0346
     76 H          10.0599 -140.1889   11.9440 H         1 39V         0.0234
     77 H           9.4099 -138.6639   11.2525 H         1 39V         0.0234
     78 H           9.7721 -138.7711   13.0086 H         1 39V         0.0234
     79 H          13.3886 -139.3559   12.3582 H         1 39V         0.0560
     80 H          11.9783 -140.2480   13.0230 H         1 39V         0.0560
     81 H          12.7783 -137.6125   13.7333 H         1 39V         0.2094
     82 H          10.6107 -134.6928   11.5379 H         1 39V         0.0449
     83 H          11.7569 -134.4446   12.8986 H         1 39V         0.0449
     84 H           8.8169 -135.5178   14.3320 H         1 39V         0.0557
     85 H           7.2613 -133.9488   15.3972 H         1 39V         0.0599
     86 H           7.3800 -131.5549   14.8999 H         1 39V         0.0559
     87 H           9.0830 -130.7076   13.3374 H         1 39V         0.0599
     88 H          10.6520 -132.2778   12.3072 H         1 39V         0.0557
@<TRIPOS>BOND
     1    1    2 1  
     2    2    3 1  
     3    2   10 2  
     4    3    4 ar 
     5    3    8 ar 
     6    4    5 ar 
     7    5    6 ar 
     8    6    7 ar 
     9    7    8 ar 
    10    8    9 1  
    11    9   10 1  
    12   10   11 1  
    13   11   12 2  
    14   11   13 am 
    15   13   14 1  
    16   14   15 1  
    17   14   16 1  
    18   16   17 2  
    19   16   18 am 
    20   18   19 1  
    21   19   20 1  
    22   19   22 1  
    23   20   21 2  
    24   20   32 am 
    25   22   23 1  
    26   23   24 2  
    27   23   25 1  
    28   24   26 1  
    29   25   27 ar 
    30   25   28 ar 
    31   26   27 1  
    32   27   29 ar 
    33   28   30 ar 
    34   29   31 ar 
    35   30   31 ar 
    36   32   33 1  
    37   33   34 1  
    38   33   40 1  
    39   34   35 1  
    40   34   36 1  
    41   36   37 1  
    42   36   38 1  
    43   38   39 1  
    44   40   41 1  
    45   41   42 ar 
    46   41   46 ar 
    47   42   43 ar 
    48   43   44 ar 
    49   44   45 ar 
    50   45   46 ar 
    51    1   47 1  
    52    1   48 1  
    53    1   49 1  
    54    4   50 1  
    55    5   51 1  
    56    6   52 1  
    57    7   53 1  
    58    9   54 1  
    59    9   55 1  
    60   13   56 1  
    61   14   57 1  
    62   15   58 1  
    63   15   59 1  
    64   15   60 1  
    65   18   61 1  
    66   19   62 1  
    67   22   63 1  
    68   22   64 1  
    69   24   65 1  
    70   26   66 1  
    71   28   67 1  
    72   29   68 1  
    73   30   69 1  
    74   31   70 1  
    75   32   71 1  
    76   33   72 1  
    77   34   73 1  
    78   35   74 1  
    79   36   75 1  
    80   37   76 1  
    81   37   77 1  
    82   37   78 1  
    83   38   79 1  
    84   38   80 1  
    85   39   81 1  
    86   40   82 1  
    87   40   83 1  
    88   42   84 1  
    89   43   85 1  
    90   44   86 1  
    91   45   87 1  
    92   46   88 1  
@<TRIPOS>SUBSTRUCTURE
     1 39V         1

