### 
### Created by X-TOOL on Mon Sep 10 21:13:20 2018
### 

@<TRIPOS>MOLECULE
4qlu_ligand
   94    98     1     0     0
SMALL
GAST_HUCK


@<TRIPOS>ATOM
      1 C59        11.4050 -139.2310   23.7430 C.3       1 38X        -0.0341
      2 C58        11.4510 -137.7240   23.8770 C.2       1 38X        -0.0328
      3 C57        11.9110 -137.0900   24.9470 C.ar      1 38X        -0.0186
      4 C56        12.3340 -137.5080   26.1250 C.ar      1 38X        -0.0616
      5 C55        12.7670 -136.6650   27.1080 C.ar      1 38X        -0.0683
      6 C54        12.7400 -135.3330   26.8470 C.ar      1 38X        -0.0684
      7 C53        12.2600 -134.9480   25.6270 C.ar      1 38X        -0.0579
      8 C52        11.8570 -135.8080   24.7090 C.ar      1 38X        -0.0247
      9 C51        11.3460 -135.6220   23.4410 C.3       1 38X         0.0162
     10 C50        11.0910 -136.8650   22.9550 C.2       1 38X         0.0334
     11 C2         10.5680 -137.1450   21.7650 C.2       1 38X         0.1916
     12 O3         10.4520 -138.2850   21.3980 O.2       1 38X        -0.3965
     13 N1         10.2340 -136.1310   21.0030 N.am      1 38X        -0.2690
     14 C11         9.6000 -136.2260   19.6990 C.3       1 38X         0.1270
     15 C12         8.6180 -137.3740   19.6380 C.3       1 38X        -0.0246
     16 C13        10.6170 -136.2720   18.6450 C.2       1 38X         0.2035
     17 O14        11.4930 -135.4510   18.7000 O.2       1 38X        -0.3944
     18 N15        10.4760 -137.1400   17.6620 N.am      1 38X        -0.2627
     19 C16        11.4500 -137.2150   16.5920 C.3       1 38X         0.1350
     20 C26        10.6680 -137.3030   15.3040 C.2       1 38X         0.2032
     21 O27         9.5200 -137.6490   15.3340 O.2       1 38X        -0.3944
     22 C17        12.4910 -138.3290   16.9070 C.3       1 38X         0.0042
     23 C66        13.8660 -137.7180   17.2750 C.2       1 38X        -0.0418
     24 C65        14.1510 -136.4740   17.0960 C.2       1 38X         0.0167
     25 C67        14.9280 -138.2670   17.8040 C.ar      1 38X        -0.0214
     26 N69        15.3600 -136.2620   17.4890 N.pl3     1 38X        -0.2890
     27 C68        15.8530 -137.3510   17.9150 C.ar      1 38X         0.0603
     28 C63        15.2180 -139.4900   18.2000 C.ar      1 38X        -0.0747
     29 C60        17.0540 -137.5510   18.3990 C.ar      1 38X        -0.0443
     30 C62        16.4750 -139.7880   18.7190 C.ar      1 38X        -0.0792
     31 C61        17.4250 -138.7940   18.8270 C.ar      1 38X        -0.0768
     32 N28        11.2570 -136.8930   14.2050 N.am      1 38X        -0.2794
     33 C29        10.5930 -136.7620   12.9130 C.3       1 38X         0.0685
     34 C30        10.6630 -135.2430   12.7260 C.3       1 38X        -0.0246
     35 C41         9.3980 -134.4010   12.7360 C.3       1 38X        -0.0389
     36 C42         9.8820 -132.9690   12.6950 C.3       1 38X        -0.0501
     37 C43         9.1260 -131.9260   13.4340 C.3       1 38X        -0.0528
     38 C44         7.7390 -132.2870   13.6630 C.3       1 38X        -0.0530
     39 C45         7.7150 -133.5180   14.4710 C.3       1 38X        -0.0528
     40 C46         8.5530 -134.6750   13.9360 C.3       1 38X        -0.0501
     41 C31        11.3460 -137.4670   11.7470 C.3       1 38X         0.0827
     42 O32        12.6630 -137.3630   12.0180 O.3       1 38X        -0.3892
     43 C37        11.0510 -138.9960   11.5500 C.3       1 38X         0.0075
     44 C38         9.5790 -139.2790   11.6710 C.3       1 38X        -0.0579
     45 C39        11.6630 -139.7860   12.6760 C.3       1 38X         0.0492
     46 O40        12.8910 -139.2350   13.0610 O.3       1 38X        -0.3947
     47 H          11.7667 -139.6930   24.6734 H         1 38X         0.0381
     48 H          12.0451 -139.5443   22.9051 H         1 38X         0.0381
     49 H          10.3698 -139.5508   23.5532 H         1 38X         0.0381
     50 H          12.3379 -138.5739   26.3222 H         1 38X         0.0602
     51 H          13.1189 -137.0448   28.0604 H         1 38X         0.0563
     52 H          13.0841 -134.6068   27.5745 H         1 38X         0.0593
     53 H          12.2076 -133.8888   25.4023 H         1 38X         0.0567
     54 H          12.0800 -135.1059   22.8048 H         1 38X         0.0625
     55 H          10.4192 -135.0311   23.4851 H         1 38X         0.0625
     56 H          10.4327 -135.2141   21.3491 H         1 38X         0.1864
     57 H           9.0198 -135.3039   19.5473 H         1 38X         0.0795
     58 H           8.1606 -137.4125   18.6384 H         1 38X         0.0277
     59 H           7.8335 -137.2261   20.3947 H         1 38X         0.0277
     60 H           9.1454 -138.3187   19.8364 H         1 38X         0.0277
     61 H           9.6868 -137.7541   17.6551 H         1 38X         0.1884
     62 H          12.0111 -136.2694   16.5603 H         1 38X         0.0815
     63 H          12.6086 -138.9717   16.0221 H         1 38X         0.0397
     64 H          12.1277 -138.9318   17.7524 H         1 38X         0.0397
     65 H          13.4796 -135.7241   16.6804 H         1 38X         0.0795
     66 H          15.8474 -135.3550   17.4617 H         1 38X         0.2216
     67 H          14.4708 -140.2713   18.1209 H         1 38X         0.0540
     68 H          17.7558 -136.7271   18.4600 H         1 38X         0.0541
     69 H          16.7063 -140.7981   19.0372 H         1 38X         0.0510
     70 H          18.4124 -138.9886   19.2297 H         1 38X         0.0530
     71 H          12.2267 -136.6543   14.2571 H         1 38X         0.1855
     72 H           9.5569 -137.1288   12.9563 H         1 38X         0.0582
     73 H          11.1491 -135.0680   11.7549 H         1 38X         0.0291
     74 H          11.3041 -134.8564   13.5320 H         1 38X         0.0291
     75 H           8.8017 -134.6165   11.8371 H         1 38X         0.0302
     76 H           9.8980 -132.6655   11.6378 H         1 38X         0.0268
     77 H          10.9074 -132.9650   13.0932 H         1 38X         0.0268
     78 H           9.1539 -130.9935   12.8512 H         1 38X         0.0265
     79 H           9.6116 -131.7646   14.4077 H         1 38X         0.0265
     80 H           7.2355 -132.4625   12.7009 H         1 38X         0.0265
     81 H           7.2268 -131.4767   14.2025 H         1 38X         0.0265
     82 H           6.6712 -133.8588   14.5374 H         1 38X         0.0265
     83 H           8.0844 -133.2697   15.4769 H         1 38X         0.0265
     84 H           9.2221 -135.0023   14.7454 H         1 38X         0.0268
     85 H           7.8637 -135.4921   13.6770 H         1 38X         0.0268
     86 H          11.1044 -136.9428   10.8106 H         1 38X         0.0620
     87 H          12.8491 -137.7878   12.8472 H         1 38X         0.2099
     88 H          11.4376 -139.3276   10.5750 H         1 38X         0.0346
     89 H           9.3996 -140.3550   11.5292 H         1 38X         0.0234
     90 H           9.0322 -138.7119   10.9033 H         1 38X         0.0234
     91 H           9.2284 -138.9772   12.6690 H         1 38X         0.0234
     92 H          11.8213 -140.8228   12.3445 H         1 38X         0.0560
     93 H          10.9781 -139.7767   13.5367 H         1 38X         0.0560
     94 H          12.7583 -138.3402   13.3512 H         1 38X         0.2094
@<TRIPOS>BOND
     1    1    2 1  
     2    2    3 1  
     3    2   10 2  
     4    3    4 ar 
     5    3    8 ar 
     6    4    5 ar 
     7    5    6 ar 
     8    6    7 ar 
     9    7    8 ar 
    10    8    9 1  
    11    9   10 1  
    12   10   11 1  
    13   11   12 2  
    14   11   13 am 
    15   13   14 1  
    16   14   15 1  
    17   14   16 1  
    18   16   17 2  
    19   16   18 am 
    20   18   19 1  
    21   19   20 1  
    22   19   22 1  
    23   20   21 2  
    24   20   32 am 
    25   22   23 1  
    26   23   24 2  
    27   23   25 1  
    28   24   26 1  
    29   25   27 ar 
    30   25   28 ar 
    31   26   27 1  
    32   27   29 ar 
    33   28   30 ar 
    34   29   31 ar 
    35   30   31 ar 
    36   32   33 1  
    37   33   34 1  
    38   33   41 1  
    39   34   35 1  
    40   35   36 1  
    41   35   40 1  
    42   36   37 1  
    43   37   38 1  
    44   38   39 1  
    45   39   40 1  
    46   41   42 1  
    47   41   43 1  
    48   43   44 1  
    49   43   45 1  
    50   45   46 1  
    51    1   47 1  
    52    1   48 1  
    53    1   49 1  
    54    4   50 1  
    55    5   51 1  
    56    6   52 1  
    57    7   53 1  
    58    9   54 1  
    59    9   55 1  
    60   13   56 1  
    61   14   57 1  
    62   15   58 1  
    63   15   59 1  
    64   15   60 1  
    65   18   61 1  
    66   19   62 1  
    67   22   63 1  
    68   22   64 1  
    69   24   65 1  
    70   26   66 1  
    71   28   67 1  
    72   29   68 1  
    73   30   69 1  
    74   31   70 1  
    75   32   71 1  
    76   33   72 1  
    77   34   73 1  
    78   34   74 1  
    79   35   75 1  
    80   36   76 1  
    81   36   77 1  
    82   37   78 1  
    83   37   79 1  
    84   38   80 1  
    85   38   81 1  
    86   39   82 1  
    87   39   83 1  
    88   40   84 1  
    89   40   85 1  
    90   41   86 1  
    91   42   87 1  
    92   43   88 1  
    93   44   89 1  
    94   44   90 1  
    95   44   91 1  
    96   45   92 1  
    97   45   93 1  
    98   46   94 1  
@<TRIPOS>SUBSTRUCTURE
     1 38X         1

