### 
### Created by X-TOOL on Mon Sep 10 21:13:18 2018
### 

@<TRIPOS>MOLECULE
4qlv_ligand
   87    89     1     0     0
SMALL
GAST_HUCK


@<TRIPOS>ATOM
      1 C2          7.7130 -136.2370   19.7840 C.2       1 39Q         0.2238
      2 O3          7.2110 -137.0930   19.0870 O.2       1 39Q        -0.3910
      3 C4          6.9620 -134.9890   20.1430 C.3       1 39Q         0.0582
      4 N5          5.6670 -135.0080   19.4890 N.4       1 39Q         0.2552
      5 O8          3.0290 -134.6800   20.0390 O.3       1 39Q        -0.3693
      6 C10         4.8700 -136.1200   20.0210 C.3       1 39Q        -0.0060
      7 C6          5.1030 -133.6740   19.7090 C.3       1 39Q        -0.0060
      8 C9          3.4320 -135.9720   19.6030 C.3       1 39Q         0.0878
      9 C7          3.6530 -133.6490   19.3140 C.3       1 39Q         0.0878
     10 N1          8.9260 -136.3190   20.2680 N.am      1 39Q        -0.2615
     11 C11         9.7340 -137.4580   19.9830 C.3       1 39Q         0.1283
     12 C12        10.5760 -137.6530   21.2220 C.3       1 39Q        -0.0244
     13 C13        10.5910 -137.0550   18.8340 C.2       1 39Q         0.2037
     14 O14        11.0770 -135.9490   18.8350 O.2       1 39Q        -0.3944
     15 N15        10.7340 -137.9200   17.8550 N.am      1 39Q        -0.2621
     16 C16        11.5690 -137.6360   16.7050 C.3       1 39Q         0.1389
     17 C17        12.6630 -138.6740   16.7190 C.3       1 39Q         0.0163
     18 C18        13.4810 -138.4890   17.8090 C.ar      1 39Q        -0.0493
     19 C19        13.1050 -138.8930   19.0590 C.ar      1 39Q        -0.0685
     20 C20        13.9410 -138.7050   20.1430 C.ar      1 39Q        -0.0396
     21 C21        15.1710 -138.1180   19.9710 C.ar      1 39Q         0.0837
     22 O22        16.0240 -137.9010   20.9970 O.3       1 39Q        -0.3257
     23 C23        16.2250 -139.0370   21.8200 C.3       1 39Q         0.0579
     24 C24        15.5420 -137.7200   18.7150 C.ar      1 39Q        -0.0396
     25 C25        14.7070 -137.9110   17.6460 C.ar      1 39Q        -0.0685
     26 C26        10.7530 -137.7020   15.4170 C.2       1 39Q         0.2040
     27 O27         9.6190 -138.1180   15.4440 O.2       1 39Q        -0.3943
     28 N28        11.3370 -137.2750   14.2990 N.am      1 39Q        -0.2774
     29 C29        10.6400 -137.1850   13.0100 C.3       1 39Q         0.0777
     30 C31        11.4060 -137.9120   11.8900 C.3       1 39Q         0.0845
     31 O32        12.6890 -137.4860   12.0190 O.3       1 39Q        -0.3890
     32 C37        11.3570 -139.4360   11.9220 C.3       1 39Q         0.0077
     33 C38         9.9700 -139.8620   12.2760 C.3       1 39Q        -0.0579
     34 C39        12.2720 -139.9600   13.0060 C.3       1 39Q         0.0492
     35 O40        13.4890 -139.1880   13.0300 O.3       1 39Q        -0.3947
     36 C30        10.6230 -135.6920   12.6470 C.3       1 39Q         0.0064
     37 C41         9.6630 -134.8730   13.2260 C.ar      1 39Q        -0.0408
     38 C42         8.7200 -135.3150   14.1160 C.ar      1 39Q        -0.0603
     39 C43         7.8050 -134.4380   14.6570 C.ar      1 39Q        -0.0686
     40 C44         7.8100 -133.1150   14.3180 C.ar      1 39Q        -0.0687
     41 C45         8.7470 -132.6670   13.4310 C.ar      1 39Q        -0.0686
     42 C46         9.6610 -133.5410   12.8940 C.ar      1 39Q        -0.0603
     43 H           7.5302 -134.1084   19.8088 H         1 39Q         0.1063
     44 H           6.8231 -134.9437   21.2332 H         1 39Q         0.1063
     45 H           5.7826 -135.1527   18.4982 H         1 39Q         0.2054
     46 H           4.9315 -136.1190   21.1193 H         1 39Q         0.0837
     47 H           5.2658 -137.0699   19.6324 H         1 39Q         0.0837
     48 H           5.6567 -132.9415   19.1033 H         1 39Q         0.0837
     49 H           5.1936 -133.4128   20.7737 H         1 39Q         0.0837
     50 H           3.3415 -136.0521   18.5097 H         1 39Q         0.0613
     51 H           2.8136 -136.7467   20.0799 H         1 39Q         0.0613
     52 H           3.2050 -132.6777   19.5706 H         1 39Q         0.0613
     53 H           3.5495 -133.8265   18.2334 H         1 39Q         0.0613
     54 H           9.2866 -135.5813   20.8388 H         1 39Q         0.1884
     55 H           9.1394 -138.3536   19.7500 H         1 39Q         0.0797
     56 H          11.2359 -138.5222   21.0838 H         1 39Q         0.0277
     57 H           9.9198 -137.8249   22.0880 H         1 39Q         0.0277
     58 H          11.1854 -136.7540   21.3964 H         1 39Q         0.0277
     59 H          10.2546 -138.7962   17.9048 H         1 39Q         0.1885
     60 H          12.0072 -136.6313   16.7978 H         1 39Q         0.0821
     61 H          13.2590 -138.5858   15.7987 H         1 39Q         0.0453
     62 H          12.2122 -139.6761   16.7693 H         1 39Q         0.0453
     63 H          12.1402 -139.3662   19.2018 H         1 39Q         0.0530
     64 H          13.6257 -139.0212   21.1308 H         1 39Q         0.0525
     65 H          16.9271 -138.7845   22.6283 H         1 39Q         0.0575
     66 H          16.6401 -139.8579   21.2169 H         1 39Q         0.0575
     67 H          15.2639 -139.3503   22.2537 H         1 39Q         0.0575
     68 H          16.5066 -137.2488   18.5647 H         1 39Q         0.0525
     69 H          15.0240 -137.5990   16.6574 H         1 39Q         0.0530
     70 H          12.2982 -137.0021   14.3394 H         1 39Q         0.1857
     71 H           9.6205 -137.5890   13.0962 H         1 39Q         0.0604
     72 H          11.0004 -137.5874   10.9204 H         1 39Q         0.0621
     73 H          13.0144 -137.7208   12.8801 H         1 39Q         0.2099
     74 H          11.6501 -139.8436   10.9433 H         1 39Q         0.0346
     75 H           9.9195 -140.9605   12.3029 H         1 39Q         0.0234
     76 H           9.2656 -139.4809   11.5219 H         1 39Q         0.0234
     77 H           9.7033 -139.4584   13.2639 H         1 39Q         0.0234
     78 H          12.5118 -141.0143   12.8039 H         1 39Q         0.0560
     79 H          11.7683 -139.8788   13.9805 H         1 39Q         0.0560
     80 H          13.2818 -138.2776   13.2051 H         1 39Q         0.2094
     81 H          10.4893 -135.6259   11.5572 H         1 39Q         0.0449
     82 H          11.6059 -135.2815   12.9214 H         1 39Q         0.0449
     83 H           8.6934 -136.3617   14.3966 H         1 39Q         0.0557
     84 H           7.0689 -134.8043   15.3635 H         1 39Q         0.0599
     85 H           7.0836 -132.4330   14.7451 H         1 39Q         0.0559
     86 H           8.7696 -131.6202   13.1503 H         1 39Q         0.0599
     87 H          10.3982 -133.1699   12.1913 H         1 39Q         0.0557
@<TRIPOS>BOND
     1    1    2 2  
     2    3    1 1  
     3    1   10 am 
     4    4    3 1  
     5    6    4 1  
     6    4    7 1  
     7    8    5 1  
     8    5    9 1  
     9    6    8 1  
    10    7    9 1  
    11   10   11 1  
    12   11   12 1  
    13   11   13 1  
    14   13   14 2  
    15   13   15 am 
    16   15   16 1  
    17   16   17 1  
    18   16   26 1  
    19   17   18 1  
    20   18   19 ar 
    21   18   25 ar 
    22   19   20 ar 
    23   20   21 ar 
    24   21   22 1  
    25   21   24 ar 
    26   22   23 1  
    27   24   25 ar 
    28   26   27 2  
    29   26   28 am 
    30   28   29 1  
    31   29   30 1  
    32   29   36 1  
    33   30   31 1  
    34   30   32 1  
    35   32   33 1  
    36   32   34 1  
    37   34   35 1  
    38   36   37 1  
    39   37   38 ar 
    40   37   42 ar 
    41   38   39 ar 
    42   39   40 ar 
    43   40   41 ar 
    44   41   42 ar 
    45    3   43 1  
    46    3   44 1  
    47    4   45 1  
    48    6   46 1  
    49    6   47 1  
    50    7   48 1  
    51    7   49 1  
    52    8   50 1  
    53    8   51 1  
    54    9   52 1  
    55    9   53 1  
    56   10   54 1  
    57   11   55 1  
    58   12   56 1  
    59   12   57 1  
    60   12   58 1  
    61   15   59 1  
    62   16   60 1  
    63   17   61 1  
    64   17   62 1  
    65   19   63 1  
    66   20   64 1  
    67   23   65 1  
    68   23   66 1  
    69   23   67 1  
    70   24   68 1  
    71   25   69 1  
    72   28   70 1  
    73   29   71 1  
    74   30   72 1  
    75   31   73 1  
    76   32   74 1  
    77   33   75 1  
    78   33   76 1  
    79   33   77 1  
    80   34   78 1  
    81   34   79 1  
    82   35   80 1  
    83   36   81 1  
    84   36   82 1  
    85   38   83 1  
    86   39   84 1  
    87   40   85 1  
    88   41   86 1  
    89   42   87 1  
@<TRIPOS>SUBSTRUCTURE
     1 39Q         1

