### 
### Created by X-TOOL on Mon Sep 10 21:13:20 2018
### 

@<TRIPOS>MOLECULE
4qmm_ligand
   52    56     1     0     0
SMALL
GAST_HUCK


@<TRIPOS>ATOM
      1 O1        124.8160    0.1160   77.4390 O.2       1 35R        -0.3916
      2 C2        125.3470    1.1450   76.9660 C.2       1 35R         0.2841
      3 N3        125.2400    2.3460   77.5790 N.am      1 35R        -0.2653
      4 C4        125.4320    3.5960   76.9280 C.3       1 35R         0.0430
      5 C5        126.8780    4.1060   76.7920 C.3       1 35R        -0.0280
      6 C6        125.9360    4.7290   77.8330 C.3       1 35R        -0.0280
      7 N7        126.0700    1.1360   75.8250 N.am      1 35R        -0.2261
      8 C8        126.3070    0.0930   74.9810 C.2       1 35R         0.1052
      9 C9        125.9290   -1.2410   75.0930 C.2       1 35R         0.0381
     10 N10       126.3960   -1.8730   74.0070 N.2       1 35R        -0.2126
     11 N12       127.0420   -1.0570   73.2280 N.pl3     1 35R        -0.2185
     12 C13       127.0320    0.1700   73.7810 C.2       1 35R         0.1528
     13 C14       127.6330    1.3050   73.1790 C.2       1 35R         0.1458
     14 N15       128.2850    1.3140   71.9940 N.2       1 35R        -0.3246
     15 C16       128.6930    2.5680   71.7470 C.ar      1 35R         0.0170
     16 C17       129.4100    3.1350   70.6750 C.ar      1 35R        -0.0688
     17 C18       129.6960    4.5200   70.7060 C.ar      1 35R        -0.0700
     18 C19       129.2860    5.3240   71.8090 C.ar      1 35R        -0.0124
     19 C20       129.5760    6.7900   71.8180 C.3       1 35R        -0.0030
     20 N21       130.9990    7.2560   71.9700 N.4       1 35R         0.2495
     21 C23       131.4160    7.3300   73.4030 C.3       1 35R        -0.0065
     22 C24       132.8760    7.8210   73.5350 C.3       1 35R         0.0878
     23 O25       133.0330    9.1130   72.9110 O.3       1 35R        -0.3693
     24 C26       132.6680    9.1100   71.5120 C.3       1 35R         0.0878
     25 C27       131.2280    8.5770   71.2890 C.3       1 35R        -0.0065
     26 C28       128.5620    4.7180   72.8730 C.ar      1 35R        -0.0359
     27 C29       128.2780    3.3420   72.8240 C.ar      1 35R         0.0705
     28 N30       127.6200    2.5560   73.6930 N.pl3     1 35R        -0.2565
     29 H1        125.0112    2.3557   78.5524 H         1 35R         0.1854
     30 H2        124.6859    3.7637   76.1373 H         1 35R         0.0553
     31 H3        127.1767    4.6835   75.9047 H         1 35R         0.0288
     32 H4        127.7173    3.4741   77.1178 H         1 35R         0.0288
     33 H5        126.1018    4.5439   78.9046 H         1 35R         0.0288
     34 H6        125.5611    5.7534   77.6915 H         1 35R         0.0288
     35 H7        126.4852    2.0081   75.5662 H         1 35R         0.2214
     36 H8        125.3614   -1.6872   75.9082 H         1 35R         0.0664
     37 H9        127.4882   -1.3082   72.3343 H         1 35R         0.2472
     38 H10       129.7362    2.5219   69.8427 H         1 35R         0.0525
     39 H11       130.2330    4.9749   69.8816 H         1 35R         0.0473
     40 H12       129.0045    7.2256   72.6509 H         1 35R         0.0966
     41 H13       129.2046    7.1970   70.8660 H         1 35R         0.0966
     42 H14       131.5872    6.5739   71.5175 H         1 35R         0.2049
     43 H15       131.3315    6.3301   73.8535 H         1 35R         0.0837
     44 H16       130.7530    8.0287   73.9342 H         1 35R         0.0837
     45 H17       133.5464    7.0990   73.0460 H         1 35R         0.0613
     46 H18       133.1365    7.8997   74.6008 H         1 35R         0.0613
     47 H19       133.3731    8.4692   70.9622 H         1 35R         0.0613
     48 H20       132.7298   10.1384   71.1265 H         1 35R         0.0613
     49 H21       130.5129    9.3106   71.6895 H         1 35R         0.0837
     50 H22       131.0597    8.4526   70.2091 H         1 35R         0.0837
     51 H23       128.2313    5.3135   73.7163 H         1 35R         0.0469
     52 H24       127.1883    2.8500   74.5807 H         1 35R         0.2263
@<TRIPOS>BOND
     1    1    2 2  
     2    2    3 am 
     3    2    7 am 
     4    3    4 1  
     5    4    5 1  
     6    4    6 1  
     7    5    6 1  
     8    7    8 1  
     9    8    9 1  
    10    8   12 2  
    11    9   10 2  
    12   10   11 1  
    13   11   12 1  
    14   12   13 1  
    15   13   14 2  
    16   13   28 1  
    17   14   15 1  
    18   15   16 ar 
    19   15   27 ar 
    20   16   17 ar 
    21   17   18 ar 
    22   18   19 1  
    23   18   26 ar 
    24   19   20 1  
    25   20   21 1  
    26   20   25 1  
    27   21   22 1  
    28   22   23 1  
    29   23   24 1  
    30   24   25 1  
    31   26   27 ar 
    32   27   28 1  
    33    3   29 1  
    34    4   30 1  
    35    5   31 1  
    36    5   32 1  
    37    6   33 1  
    38    6   34 1  
    39    7   35 1  
    40    9   36 1  
    41   11   37 1  
    42   16   38 1  
    43   17   39 1  
    44   19   40 1  
    45   19   41 1  
    46   20   42 1  
    47   21   43 1  
    48   21   44 1  
    49   22   45 1  
    50   22   46 1  
    51   24   47 1  
    52   24   48 1  
    53   25   49 1  
    54   25   50 1  
    55   26   51 1  
    56   28   52 1  
@<TRIPOS>SUBSTRUCTURE
     1 35R         1

