### 
### Created by X-TOOL on Mon Sep 10 21:13:23 2018
### 

@<TRIPOS>MOLECULE
4qmn_ligand
   67    70     1     0     0
SMALL
GAST_HUCK


@<TRIPOS>ATOM
      1 CAA        -3.7830   -2.3270   17.3620 C.3       1 DB8         0.0581
      2 O02        -0.1440    4.8450   20.8800 O.3       1 DB8        -0.3228
      3 CAC        -8.7670   -1.0960   12.0020 C.3       1 DB8        -0.0290
      4 NAD         0.5640    4.9290   16.4170 N.1       1 DB8        -0.3470
      5 CL1         2.6850    4.4580   21.1320 Cl        1 DB8        -0.0883
      6 CL2         2.1220    0.8280   17.2440 Cl        1 DB8        -0.0884
      7 CAG        -0.3230    4.2490   16.1540 C.1       1 DB8         0.0848
      8 CAH        -2.2340    4.0430   14.9120 C.ar      1 DB8         0.0167
      9 CAI         2.2500    2.6530   19.1750 C.ar      1 DB8        -0.0510
     10 CAJ        -0.5280    3.2090   19.1190 C.ar      1 DB8        -0.0078
     11 CAK        -4.7630    1.4620   14.5310 C.ar      1 DB8        -0.0186
     12 CAL        -3.1340    0.1890   16.4230 C.ar      1 DB8        -0.0192
     13 CAM        -7.4360   -1.4280   12.7200 C.3       1 DB8         0.0154
     14 CAN        -6.5910   -0.1940   13.1480 C.3       1 DB8         0.0758
     15 CAO       -13.1410   -3.4100   15.0830 C.3       1 DB8        -0.0427
     16 CAP       -10.7710   -2.6430   12.1540 C.3       1 DB8         0.0094
     17 CAQ        -9.7930   -1.7060   14.2350 C.3       1 DB8         0.0094
     18 CAR       -12.1100   -2.8600   12.9020 C.3       1 DB8         0.0092
     19 CAS       -11.1230   -1.9520   14.9930 C.3       1 DB8         0.0092
     20 NAT        -3.3150    3.3490   14.5140 N.ar      1 DB8        -0.3220
     21 NAU        -0.7810    1.5850   17.3440 N.pl3     1 DB8        -0.2555
     22 OAV        -4.6600   -1.7210   16.3960 O.3       1 DB8        -0.3205
     23 OAW        -6.2350   -0.4190   14.5310 O.3       1 DB8        -0.3133
     24 CAX         0.3150    3.8860   20.0200 C.ar      1 DB8         0.0967
     25 CAY         1.6960    3.6080   20.0430 C.ar      1 DB8         0.0570
     26 CAZ         1.4100    1.9720   18.2750 C.ar      1 DB8         0.0530
     27 CBA        -1.3450    3.4880   15.8530 C.ar      1 DB8         0.1345
     28 CBB         0.0150    2.2400   18.2410 C.ar      1 DB8         0.0731
     29 CBC        -4.2920   -0.4700   15.9540 C.ar      1 DB8         0.1307
     30 CBD        -5.1050    0.1820   15.0000 C.ar      1 DB8         0.1315
     31 CBE        -1.6080    2.1840   16.4030 C.ar      1 DB8         0.1193
     32 CBF        -3.6090    2.1130   14.9970 C.ar      1 DB8         0.0210
     33 CBG        -2.7680    1.4850   15.9570 C.ar      1 DB8         0.0290
     34 NBH       -10.0040   -1.5090   12.7630 N.4       1 DB8         0.2428
     35 NBI       -11.8810   -3.0760   14.3640 N.4       1 DB8         0.2405
     36 C01        -1.5300    5.2050   20.7570 C.3       1 DB8         0.0595
     37 H1         -4.1731   -3.3169   17.6412 H         1 DB8         0.0575
     38 H2         -3.7264   -1.6895   18.2566 H         1 DB8         0.0575
     39 H3         -2.7789   -2.4381   16.9268 H         1 DB8         0.0575
     40 H4         -8.7722   -1.6118   11.0304 H         1 DB8         0.0815
     41 H5         -8.8092   -0.0088   11.8402 H         1 DB8         0.0815
     42 H6         -2.0465    5.0312   14.5079 H         1 DB8         0.0842
     43 H7          3.3132    2.4429   19.1982 H         1 DB8         0.0576
     44 H8         -1.5893    3.4287   19.0973 H         1 DB8         0.0462
     45 H9         -5.3971    1.9524   13.8013 H         1 DB8         0.0495
     46 H10        -2.5070   -0.3043   17.1569 H         1 DB8         0.0544
     47 H11        -6.8253   -2.0397   12.0397 H         1 DB8         0.0343
     48 H12        -7.6721   -2.0092   13.6236 H         1 DB8         0.0343
     49 H13        -7.1831    0.7279   13.0503 H         1 DB8         0.0617
     50 H14        -5.6860   -0.1160   12.5277 H         1 DB8         0.0617
     51 H15       -13.6467   -4.2412   14.5698 H         1 DB8         0.0778
     52 H16       -13.8011   -2.5302   15.0942 H         1 DB8         0.0778
     53 H17       -12.9063   -3.7055   16.1162 H         1 DB8         0.0778
     54 H18       -10.9796   -2.4127   11.0988 H         1 DB8         0.0868
     55 H19       -10.1689   -3.5614   12.2168 H         1 DB8         0.0868
     56 H20        -9.1348   -2.5745   14.3847 H         1 DB8         0.0868
     57 H21        -9.3124   -0.8063   14.6468 H         1 DB8         0.0868
     58 H22       -12.6165   -3.7422   12.4835 H         1 DB8         0.0868
     59 H23       -12.7458   -1.9729   12.7652 H         1 DB8         0.0868
     60 H24       -11.7344   -1.0383   14.9581 H         1 DB8         0.0868
     61 H25       -10.9018   -2.2054   16.0403 H         1 DB8         0.0868
     62 H26        -0.7663    0.5554   17.3680 H         1 DB8         0.2218
     63 H27       -10.6185   -0.7131   12.6923 H         1 DB8         0.2038
     64 H28       -11.2901   -3.8890   14.4412 H         1 DB8         0.2035
     65 H29        -1.7747    5.9800   21.4983 H         1 DB8         0.0578
     66 H30        -2.1563    4.3181   20.9334 H         1 DB8         0.0578
     67 H31        -1.7198    5.5926   19.7452 H         1 DB8         0.0578
@<TRIPOS>BOND
     1   22    1 1  
     2   24    2 1  
     3    2   36 1  
     4   13    3 1  
     5    3   34 1  
     6    7    4 3  
     7   25    5 1  
     8   26    6 1  
     9   27    7 1  
    10   20    8 ar 
    11    8   27 ar 
    12    9   25 ar 
    13   26    9 ar 
    14   10   24 ar 
    15   28   10 ar 
    16   30   11 ar 
    17   11   32 ar 
    18   29   12 ar 
    19   12   33 ar 
    20   14   13 1  
    21   23   14 1  
    22   35   15 1  
    23   16   18 1  
    24   34   16 1  
    25   17   19 1  
    26   34   17 1  
    27   18   35 1  
    28   19   35 1  
    29   32   20 ar 
    30   21   28 1  
    31   31   21 1  
    32   29   22 1  
    33   30   23 1  
    34   24   25 ar 
    35   28   26 ar 
    36   27   31 ar 
    37   29   30 ar 
    38   31   33 ar 
    39   32   33 ar 
    40    1   37 1  
    41    1   38 1  
    42    1   39 1  
    43    3   40 1  
    44    3   41 1  
    45    8   42 1  
    46    9   43 1  
    47   10   44 1  
    48   11   45 1  
    49   12   46 1  
    50   13   47 1  
    51   13   48 1  
    52   14   49 1  
    53   14   50 1  
    54   15   51 1  
    55   15   52 1  
    56   15   53 1  
    57   16   54 1  
    58   16   55 1  
    59   17   56 1  
    60   17   57 1  
    61   18   58 1  
    62   18   59 1  
    63   19   60 1  
    64   19   61 1  
    65   21   62 1  
    66   34   63 1  
    67   35   64 1  
    68   36   65 1  
    69   36   66 1  
    70   36   67 1  
@<TRIPOS>SUBSTRUCTURE
     1 DB8         1

