### 
### Created by X-TOOL on Mon Sep 10 21:13:21 2018
### 

@<TRIPOS>MOLECULE
4qmo_ligand
   27    30     1     0     0
SMALL
GAST_HUCK


@<TRIPOS>ATOM
      1 C01       125.5600   -1.1840   76.5080 C.ar      1 34L         0.0514
      2 C02       124.8050   -1.8190   77.4870 C.ar      1 34L         0.0233
      3 C03       124.6190   -3.2430   77.4490 C.ar      1 34L        -0.0649
      4 C04       125.1930   -3.9800   76.4170 C.ar      1 34L        -0.0472
      5 C05       125.9680   -3.3170   75.4100 C.ar      1 34L         0.0661
      6 C06       126.1540   -1.9290   75.4510 C.ar      1 34L         0.0197
      7 N07       126.6280   -3.7890   74.3170 N.am      1 34L        -0.2383
      8 C08       127.2180   -2.7810   73.6790 C.2       1 34L         0.2209
      9 C09       126.9450   -1.5580   74.3470 C.2       1 34L         0.0452
     10 C10       127.3860   -0.1510   73.9990 C.2       1 34L        -0.0193
     11 C11       128.0770    0.2550   72.7210 C.2       1 34L         0.0802
     12 C12       129.1200    0.2810   70.8030 C.2       1 34L         0.1031
     13 N13       128.5760   -0.5140   71.7380 N.pl3     1 34L        -0.2553
     14 C14       128.3390    1.5790   72.3630 C.2       1 34L        -0.0007
     15 N15       128.9810    1.5550   71.1760 N.2       1 34L        -0.3122
     16 O16       127.9720   -2.9160   72.5480 O.2       1 34L        -0.3777
     17 N17       124.2550   -0.9540   78.4790 N.2       1 34L        -0.3044
     18 C18       124.5660    0.3570   78.3180 C.2       1 34L         0.0746
     19 S19       125.5170    0.4920   76.9250 S.3       1 34L        -0.0050
     20 H1        124.0369   -3.7391   78.2171 H         1 34L         0.0545
     21 H2        125.0540   -5.0542   76.3750 H         1 34L         0.0468
     22 H3        126.6641   -4.7480   74.0360 H         1 34L         0.2249
     23 H4        127.1881    0.6307   74.7309 H         1 34L         0.0692
     24 H5        129.5986   -0.0594   69.8860 H         1 34L         0.1287
     25 H6        128.5460   -1.5431   71.7072 H         1 34L         0.2381
     26 H7        128.0743    2.4667   72.9356 H         1 34L         0.0580
     27 H8        124.2589    1.1749   78.9682 H         1 34L         0.1205
@<TRIPOS>BOND
     1    1    2 ar 
     2    1    6 ar 
     3    1   19 1  
     4    2    3 ar 
     5    2   17 1  
     6    3    4 ar 
     7    4    5 ar 
     8    5    6 ar 
     9    5    7 1  
    10    6    9 1  
    11    7    8 am 
    12    8    9 1  
    13    8   16 2  
    14    9   10 2  
    15   10   11 1  
    16   11   13 1  
    17   11   14 2  
    18   13   12 1  
    19   12   15 2  
    20   14   15 1  
    21   17   18 2  
    22   18   19 1  
    23    3   20 1  
    24    4   21 1  
    25    7   22 1  
    26   10   23 1  
    27   12   24 1  
    28   13   25 1  
    29   14   26 1  
    30   18   27 1  
@<TRIPOS>SUBSTRUCTURE
     1 34L         1

