### 
### Created by X-TOOL on Mon Sep 10 21:13:23 2018
### 

@<TRIPOS>MOLECULE
4qmp_ligand
   41    43     1     0     0
SMALL
GAST_HUCK


@<TRIPOS>ATOM
      1 FAF        27.6040    0.5220   77.5470 F         1 DKI        -0.1939
      2 CAU        26.3150    0.6580   77.4790 C.ar      1 DKI         0.1530
      3 CAI        25.6530    1.4040   78.4750 C.ar      1 DKI        -0.0443
      4 CAH        24.2580    1.5720   78.4180 C.ar      1 DKI        -0.0797
      5 CAJ        23.5270    0.9890   77.3760 C.ar      1 DKI        -0.0443
      6 CAV        24.2030    0.2590   76.3760 C.ar      1 DKI         0.1530
      7 FAG        23.5200   -0.2890   75.4190 F         1 DKI        -0.1939
      8 CAZ        25.5950    0.0740   76.4250 C.ar      1 DKI         0.1428
      9 NAQ        26.1420   -0.6620   75.4170 N.am      1 DKI        -0.2175
     10 CAS        26.4410   -1.9550   75.3070 C.2       1 DKI         0.2457
     11 SAE        25.8230   -3.0200   76.5000 S.2       1 DKI        -0.2453
     12 NBA        27.1240   -2.4040   74.2590 N.am      1 DKI        -0.0786
     13 NAP        27.7520   -1.5740   73.4870 N.2       1 DKI        -0.1775
     14 CAT        27.2400   -3.6390   73.7380 C.2       1 DKI         0.2583
     15 NAA        26.7180   -4.7960   74.1810 N.pl3     1 DKI        -0.2879
     16 NAO        27.9830   -3.5520   72.6330 N.2       1 DKI        -0.2712
     17 CAX        28.2970   -2.2600   72.4840 C.2       1 DKI         0.1527
     18 NAR        29.0570   -1.8300   71.4470 N.pl3     1 DKI        -0.2660
     19 CAW        29.5310   -0.6020   71.1110 C.ar      1 DKI         0.0579
     20 CAL        29.3520    0.4860   71.9990 C.ar      1 DKI        -0.0384
     21 CAN        29.8440    1.7650   71.6620 C.ar      1 DKI        -0.0460
     22 CAK        30.2120   -0.3890   69.8930 C.ar      1 DKI        -0.0384
     23 CAM        30.6980    0.8840   69.5540 C.ar      1 DKI        -0.0460
     24 CAY        30.5180    1.9610   70.4340 C.ar      1 DKI         0.0953
     25 SBB        31.1460    3.5370   69.9390 S.o2      1 DKI         0.0603
     26 OAC        31.3290    4.4950   71.2000 O.2       1 DKI        -0.1521
     27 OAD        32.5320    3.3580   69.1660 O.2       1 DKI        -0.1521
     28 NAB        30.0250    4.2580   68.8070 N.am      1 DKI        -0.2623
     29 H1         26.2195    1.8484   79.2853 H         1 DKI         0.0532
     30 H2         23.7495    2.1520   79.1796 H         1 DKI         0.0477
     31 H3         22.4491    1.0978   77.3379 H         1 DKI         0.0532
     32 H4         26.3616   -0.1271   74.6012 H         1 DKI         0.2363
     33 H5         26.8971   -5.6714   73.6686 H         1 DKI         0.1825
     34 H6         26.1389   -4.8070   75.0328 H         1 DKI         0.1825
     35 H7         29.3260   -2.5756   70.7893 H         1 DKI         0.2077
     36 H8         28.8356    0.3362   72.9403 H         1 DKI         0.0528
     37 H9         29.7055    2.5965   72.3436 H         1 DKI         0.0604
     38 H10        30.3616   -1.2183   69.2111 H         1 DKI         0.0528
     39 H11        31.2125    1.0343   68.6118 H         1 DKI         0.0604
     40 H12        30.2177    5.1586   68.4173 H         1 DKI         0.1633
     41 H13        29.1912    3.7697   68.5493 H         1 DKI         0.1633
@<TRIPOS>BOND
     1    1    2 1  
     2    2    3 ar 
     3    2    8 ar 
     4    3    4 ar 
     5    4    5 ar 
     6    5    6 ar 
     7    6    7 1  
     8    6    8 ar 
     9    8    9 1  
    10    9   10 am 
    11   10   11 2  
    12   10   12 am 
    13   12   13 1  
    14   12   14 1  
    15   13   17 2  
    16   14   15 1  
    17   14   16 2  
    18   16   17 1  
    19   17   18 1  
    20   18   19 1  
    21   19   20 ar 
    22   19   22 ar 
    23   20   21 ar 
    24   21   24 ar 
    25   22   23 ar 
    26   23   24 ar 
    27   24   25 1  
    28   25   26 2  
    29   25   27 2  
    30   25   28 am 
    31    3   29 1  
    32    4   30 1  
    33    5   31 1  
    34    9   32 1  
    35   15   33 1  
    36   15   34 1  
    37   18   35 1  
    38   20   36 1  
    39   21   37 1  
    40   22   38 1  
    41   23   39 1  
    42   28   40 1  
    43   28   41 1  
@<TRIPOS>SUBSTRUCTURE
     1 DKI         1

