### 
### Created by X-TOOL on Mon Sep 10 21:13:23 2018
### 

@<TRIPOS>MOLECULE
4qmq_ligand
   59    63     1     0     0
SMALL
GAST_HUCK


@<TRIPOS>ATOM
      1 C01        27.6810    2.2550  131.6040 C.3       1 34U         0.0366
      2 O02        27.0400    0.9570  131.6590 O.3       1 34U        -0.3803
      3 C03        27.8840   -0.0120  132.0980 C.3       1 34U         0.0747
      4 C04        26.9540   -1.2550  132.5360 C.3       1 34U         0.0916
      5 O05        26.2730   -0.8470  133.7200 O.3       1 34U        -0.3229
      6 C06        25.6360   -1.8790  134.4570 C.ar      1 34U         0.0776
      7 C07        25.6020   -3.2010  133.9440 C.ar      1 34U        -0.0328
      8 C08        24.9830   -4.1870  134.6980 C.ar      1 34U         0.0297
      9 C09        24.3970   -3.8880  135.8970 C.ar      1 34U         0.0964
     10 C10        24.4260   -2.5160  136.4180 C.ar      1 34U        -0.0408
     11 C11        25.0180   -1.5570  135.7070 C.ar      1 34U        -0.0422
     12 N12        23.8430   -5.0910  136.3840 N.pl3     1 34U        -0.1815
     13 C13        24.0960   -6.0730  135.5300 C.2       1 34U         0.1232
     14 N14        24.7810   -5.5300  134.4820 N.2       1 34U        -0.3046
     15 C15        23.1780   -5.2710  137.6100 C.ar      1 34U         0.1653
     16 N16        22.7000   -4.1950  138.2880 N.ar      1 34U        -0.2742
     17 C17        22.0850   -4.3190  139.5080 C.ar      1 34U         0.0615
     18 C18        21.9570   -5.5400  140.1000 C.ar      1 34U        -0.0102
     19 C19        21.3310   -5.6540  141.3950 C.ar      1 34U        -0.0669
     20 C20        20.8470   -4.5160  142.0200 C.ar      1 34U        -0.0759
     21 C21        20.9650   -3.2610  141.4130 C.ar      1 34U        -0.0435
     22 C22        21.5860   -3.1490  140.1540 C.ar      1 34U         0.0638
     23 N23        21.7040   -1.8870  139.4700 N.pl3     1 34U        -0.3043
     24 C24        20.8620   -1.7840  138.2810 C.3       1 34U         0.0334
     25 C25        21.1790   -0.5490  137.4430 C.3       1 34U         0.0103
     26 C26        20.9940    0.6790  138.2720 C.3       1 34U        -0.0207
     27 C27        21.8210    0.6540  139.4710 C.3       1 34U         0.0103
     28 C28        21.6800   -0.6520  140.2710 C.3       1 34U         0.0334
     29 N29        21.3360    1.8340  137.4360 N.4       1 34U         0.2208
     30 C30        22.4970   -6.7540  139.4030 C.ar      1 34U        -0.0414
     31 C31        23.1180   -6.5660  138.1500 C.ar      1 34U         0.0010
     32 H1         26.9608    3.0046  131.2442 H         1 34U         0.0524
     33 H2         28.5390    2.2115  130.9170 H         1 34U         0.0524
     34 H3         28.0298    2.5346  132.6090 H         1 34U         0.0524
     35 H4         28.4660    0.3503  132.9582 H         1 34U         0.0586
     36 H5         28.5695   -0.3141  131.2925 H         1 34U         0.0586
     37 H6         27.5733   -2.1412  132.7390 H         1 34U         0.0633
     38 H7         26.2300   -1.4878  131.7412 H         1 34U         0.0633
     39 H8         26.0494   -3.4353  132.9849 H         1 34U         0.0464
     40 H9         23.9694   -2.2848  137.3736 H         1 34U         0.0545
     41 H10        25.0314   -0.5371  136.0739 H         1 34U         0.0495
     42 H11        23.8105   -7.1178  135.6436 H         1 34U         0.1374
     43 H12        21.2401   -6.6217  141.8749 H         1 34U         0.0492
     44 H13        20.3714   -4.5991  142.9905 H         1 34U         0.0573
     45 H14        20.5798   -2.3780  141.9100 H         1 34U         0.0489
     46 H15        19.8097   -1.7343  138.5976 H         1 34U         0.0520
     47 H16        21.0165   -2.6795  137.6612 H         1 34U         0.0520
     48 H17        20.5027   -0.5110  136.5763 H         1 34U         0.0339
     49 H18        22.2206   -0.6012  137.0933 H         1 34U         0.0339
     50 H19        19.9397    0.7504  138.5773 H         1 34U         0.0851
     51 H20        21.5271    1.4943  140.1172 H         1 34U         0.0339
     52 H21        22.8735    0.7709  139.1734 H         1 34U         0.0339
     53 H22        22.5086   -0.6992  140.9930 H         1 34U         0.0520
     54 H23        20.7232   -0.6169  140.8126 H         1 34U         0.0520
     55 H24        20.7554    1.8360  136.6120 H         1 34U         0.1997
     56 H25        22.3049    1.7769  137.1641 H         1 34U         0.1997
     57 H26        21.1827    2.6831  137.9571 H         1 34U         0.1997
     58 H27        22.4131   -7.7398  139.8460 H         1 34U         0.0732
     59 H28        23.5417   -7.4071  137.6132 H         1 34U         0.0678
@<TRIPOS>BOND
     1    1    2 1  
     2    2    3 1  
     3    3    4 1  
     4    4    5 1  
     5    5    6 1  
     6    6    7 ar 
     7    6   11 ar 
     8    7    8 ar 
     9    8    9 ar 
    10    8   14 1  
    11    9   10 ar 
    12    9   12 1  
    13   10   11 ar 
    14   12   13 1  
    15   12   15 1  
    16   13   14 2  
    17   15   16 ar 
    18   15   31 ar 
    19   16   17 ar 
    20   17   18 ar 
    21   17   22 ar 
    22   18   19 ar 
    23   18   30 ar 
    24   19   20 ar 
    25   20   21 ar 
    26   21   22 ar 
    27   22   23 1  
    28   23   24 1  
    29   23   28 1  
    30   24   25 1  
    31   25   26 1  
    32   26   27 1  
    33   26   29 1  
    34   27   28 1  
    35   30   31 ar 
    36    1   32 1  
    37    1   33 1  
    38    1   34 1  
    39    3   35 1  
    40    3   36 1  
    41    4   37 1  
    42    4   38 1  
    43    7   39 1  
    44   10   40 1  
    45   11   41 1  
    46   13   42 1  
    47   19   43 1  
    48   20   44 1  
    49   21   45 1  
    50   24   46 1  
    51   24   47 1  
    52   25   48 1  
    53   25   49 1  
    54   26   50 1  
    55   27   51 1  
    56   27   52 1  
    57   28   53 1  
    58   28   54 1  
    59   29   55 1  
    60   29   56 1  
    61   29   57 1  
    62   30   58 1  
    63   31   59 1  
@<TRIPOS>SUBSTRUCTURE
     1 34U         1

