### 
### Created by X-TOOL on Mon Sep 10 21:13:22 2018
### 

@<TRIPOS>MOLECULE
4qms_ligand
   60    63     1     0     0
SMALL
GAST_HUCK


@<TRIPOS>ATOM
      1 C1         45.4280    4.0810   15.0500 C.2       1 1N1        -0.0104
      2 C2         45.8810    3.2350   16.0610 C.2       1 1N1         0.1128
      3 C3         46.9750    3.5490   17.0430 C.2       1 1N1         0.2261
      4 N6         38.5580   -3.7510   11.4210 N.4       1 1N1         0.2397
      5 C7         50.1440    3.6580   20.9520 C.ar      1 1N1        -0.0834
      6 C8         48.8830    4.2490   21.0460 C.ar      1 1N1        -0.0735
      7 C9         47.8890    3.9300   20.1270 C.ar      1 1N1        -0.0235
      8 C10        46.5070    4.5440   20.2060 C.3       1 1N1        -0.0351
      9 C11        42.4870    0.3680   14.3860 C.ar      1 1N1         0.1348
     10 C12        41.4510   -0.1860   13.6030 C.ar      1 1N1         0.0208
     11 C13        40.9350   -1.4380   13.9590 C.ar      1 1N1         0.1091
     12 C14        42.4400   -1.5270   15.7570 C.ar      1 1N1         0.0703
     13 C15        43.0070   -2.2320   16.9420 C.3       1 1N1        -0.0028
     14 C16        39.0790   -3.0620   13.6880 C.3       1 1N1         0.0716
     15 C19        39.5540   -1.5220   11.7670 C.3       1 1N1         0.0716
     16 C20        37.1490   -3.8520   10.9960 C.3       1 1N1        -0.0080
     17 C21        37.0720   -4.5970    9.6980 C.3       1 1N1         0.0841
     18 N          42.9970    1.6720   13.9950 N.pl3     1 1N1        -0.2165
     19 C          44.0410    2.3710   14.6880 C.2       1 1N1         0.2125
     20 N1         44.4420    3.5650   14.3510 N.2       1 1N1        -0.2981
     21 S          44.9510    1.7440   16.0460 S.3       1 1N1         0.0354
     22 N2         47.1460    2.6610   18.1570 N.am      1 1N1        -0.2384
     23 C4         48.1860    3.0000   19.1200 C.ar      1 1N1         0.0817
     24 C5         49.4440    2.4070   19.0260 C.ar      1 1N1         0.0531
     25 C6         50.4360    2.7310   19.9440 C.ar      1 1N1        -0.0685
     26 CL         49.7250    1.2630   17.7430 Cl        1 1N1        -0.0853
     27 O          47.6900    4.5320   16.9160 O.2       1 1N1        -0.3859
     28 N3         41.4510   -2.0790   15.0410 N.ar      1 1N1        -0.2701
     29 N4         42.9470   -0.3280   15.4370 N.ar      1 1N1        -0.2662
     30 N5         39.8520   -1.9960   13.1200 N.pl3     1 1N1        -0.2818
     31 C17        39.0690   -4.2010   12.7160 C.3       1 1N1        -0.0108
     32 C18        39.3790   -2.6930   10.8090 C.3       1 1N1        -0.0108
     33 O1         35.8390   -5.2010    9.5800 O.3       1 1N1        -0.3898
     34 H1         45.8478    5.0676   14.8591 H         1 1N1         0.0652
     35 H2         38.8928   -4.5313   10.8778 H         1 1N1         0.2036
     36 H3         50.9106    3.9212   21.6718 H         1 1N1         0.0471
     37 H4         48.6776    4.9595   21.8385 H         1 1N1         0.0515
     38 H5         46.4647    5.2440   21.0535 H         1 1N1         0.0362
     39 H6         45.7603    3.7492   20.3494 H         1 1N1         0.0362
     40 H7         46.2922    5.0849   19.2726 H         1 1N1         0.0362
     41 H8         41.0626    0.3475   12.7430 H         1 1N1         0.0519
     42 H9         42.4930   -3.1952   17.0761 H         1 1N1         0.0460
     43 H10        42.8650   -1.6125   17.8398 H         1 1N1         0.0460
     44 H11        44.0812   -2.4085   16.7844 H         1 1N1         0.0460
     45 H12        38.0499   -2.7194   13.8709 H         1 1N1         0.0577
     46 H13        39.5317   -3.3859   14.6367 H         1 1N1         0.0577
     47 H14        40.3828   -0.8898   11.4158 H         1 1N1         0.0577
     48 H15        38.6260   -0.9318   11.7880 H         1 1N1         0.0577
     49 H16        36.7321   -2.8426   10.8648 H         1 1N1         0.0837
     50 H17        36.5722   -4.3902   11.7626 H         1 1N1         0.0837
     51 H18        37.8591   -5.3649    9.6702 H         1 1N1         0.0610
     52 H19        37.2158   -3.8941    8.8642 H         1 1N1         0.0610
     53 H20        42.5822    2.1232   13.1672 H         1 1N1         0.2300
     54 H21        46.5771    1.8461   18.2676 H         1 1N1         0.2226
     55 H22        51.4172    2.2747   19.8808 H         1 1N1         0.0526
     56 H23        40.0934   -4.5816   12.5908 H         1 1N1         0.0835
     57 H24        38.4242   -5.0039   13.1027 H         1 1N1         0.0835
     58 H25        38.8853   -2.3382    9.8923 H         1 1N1         0.0835
     59 H26        40.3678   -3.1039   10.5574 H         1 1N1         0.0835
     60 H27        35.7957   -5.6716    8.7559 H         1 1N1         0.2096
@<TRIPOS>BOND
     1    2    1 2  
     2    1   20 1  
     3    3    2 1  
     4    2   21 1  
     5   22    3 am 
     6    3   27 2  
     7    4   16 1  
     8   31    4 1  
     9   32    4 1  
    10    6    5 ar 
    11    5   25 ar 
    12    7    6 ar 
    13    7    8 1  
    14   23    7 ar 
    15    9   10 ar 
    16   18    9 1  
    17    9   29 ar 
    18   10   11 ar 
    19   11   28 ar 
    20   11   30 1  
    21   12   13 1  
    22   12   28 ar 
    23   29   12 ar 
    24   30   14 1  
    25   14   31 1  
    26   30   15 1  
    27   15   32 1  
    28   16   17 1  
    29   17   33 1  
    30   19   18 1  
    31   19   20 2  
    32   21   19 1  
    33   22   23 1  
    34   23   24 ar 
    35   24   25 ar 
    36   24   26 1  
    37    1   34 1  
    38    4   35 1  
    39    5   36 1  
    40    6   37 1  
    41    8   38 1  
    42    8   39 1  
    43    8   40 1  
    44   10   41 1  
    45   13   42 1  
    46   13   43 1  
    47   13   44 1  
    48   14   45 1  
    49   14   46 1  
    50   15   47 1  
    51   15   48 1  
    52   16   49 1  
    53   16   50 1  
    54   17   51 1  
    55   17   52 1  
    56   18   53 1  
    57   22   54 1  
    58   25   55 1  
    59   31   56 1  
    60   31   57 1  
    61   32   58 1  
    62   32   59 1  
    63   33   60 1  
@<TRIPOS>SUBSTRUCTURE
     1 1N1         1

