### 
### Created by X-TOOL on Mon Sep 10 21:13:20 2018
### 

@<TRIPOS>MOLECULE
4qmt_ligand
   70    74     1     0     0
SMALL
GAST_HUCK


@<TRIPOS>ATOM
      1 CAJ        18.0070    6.8820   66.4750 C.3       1 H1N        -0.0307
      2 CAL        18.1520    6.3050   65.0520 C.3       1 H1N        -0.0123
      3 CAW        16.7860    5.7750   64.5930 C.3       1 H1N        -0.0434
      4 CAV        16.3040    4.7090   65.5960 C.3       1 H1N        -0.0123
      5 CAK        16.3450    5.1570   67.0770 C.3       1 H1N        -0.0307
      6 NAI        17.5840    5.8780   67.5110 N.4       1 H1N         0.2458
      7 CAH        17.3940    6.6010   68.8210 C.3       1 H1N        -0.0028
      8 CAG        18.4760    7.5000   69.3070 C.ar      1 H1N        -0.0090
      9 CAS        18.4370    8.8950   69.0660 C.ar      1 H1N        -0.0637
     10 CAR        19.4670    9.7270   69.5290 C.ar      1 H1N        -0.0432
     11 CAF        19.5630    6.9800   70.0340 C.ar      1 H1N        -0.0637
     12 CAE        20.5900    7.8120   70.4960 C.ar      1 H1N        -0.0432
     13 CAQ        20.5590    9.2060   70.2540 C.ar      1 H1N         0.0599
     14 NAP        21.4990   10.1300   70.6520 N.pl3     1 H1N        -0.2640
     15 CAO        22.6280   10.1030   71.4260 C.2       1 H1N         0.0923
     16 CAN        23.1640    8.9050   71.8870 C.ar      1 H1N         0.0221
     17 CAM        24.0170    8.1300   71.0600 C.ar      1 H1N        -0.0453
     18 CAC        24.5640    6.9270   71.5370 C.ar      1 H1N        -0.0568
     19 CAA        24.2680    6.4940   72.8430 C.ar      1 H1N        -0.0580
     20 CAB        23.4310    7.2540   73.6770 C.ar      1 H1N        -0.0568
     21 CAD        22.8760    8.4600   73.2050 C.ar      1 H1N        -0.0453
     22 CBD        23.2430   11.2860   71.6890 C.2       1 H1N         0.0593
     23 CBC        24.4810   11.5830   72.3080 C.ar      1 H1N        -0.0257
     24 CBB        25.4560   10.8600   73.0650 C.ar      1 H1N        -0.0623
     25 CBJ        22.8440   12.4980   71.1160 C.2       1 H1N         0.1983
     26 OBK        21.8000   12.7700   70.4600 O.2       1 H1N        -0.3983
     27 NBI        23.7350   13.4550   71.3450 N.am      1 H1N        -0.2525
     28 CBH        24.7290   12.9400   72.0520 C.ar      1 H1N         0.0474
     29 CBG        25.8640   13.6160   72.5020 C.ar      1 H1N        -0.0613
     30 CBF        26.8030   12.8860   73.2380 C.ar      1 H1N        -0.0638
     31 CBA        26.6310   11.5180   73.5420 C.ar      1 H1N         0.0396
     32 NAZ        27.5840   10.8530   74.2740 N.am      1 H1N        -0.2020
     33 SAY        27.6320    9.1770   74.6060 S.o2      1 H1N         0.0570
     34 OBE        28.8340    8.8620   75.6220 O.2       1 H1N        -0.1505
     35 OAU        26.2350    8.6670   75.1880 O.2       1 H1N        -0.1505
     36 CAX        27.8690    8.2980   73.0150 C.3       1 H1N         0.0866
     37 CAT        29.3340    8.2940   72.5730 C.3       1 H1N        -0.0435
     38 H1         17.2551    7.6844   66.4462 H         1 H1N         0.0814
     39 H2         18.9783    7.3003   66.7775 H         1 H1N         0.0814
     40 H3         18.8841    5.4841   65.0585 H         1 H1N         0.0317
     41 H4         18.4922    7.0944   64.3656 H         1 H1N         0.0317
     42 H5         16.8806    5.3259   63.5933 H         1 H1N         0.0269
     43 H6         16.0619    6.6022   64.5563 H         1 H1N         0.0269
     44 H7         16.9440    3.8209   65.4878 H         1 H1N         0.0317
     45 H8         15.2659    4.4456   65.3453 H         1 H1N         0.0317
     46 H9         16.2416    4.2587   67.7033 H         1 H1N         0.0814
     47 H10        15.4887    5.8253   67.2503 H         1 H1N         0.0814
     48 H11        18.3187    5.1972   67.6239 H         1 H1N         0.2046
     49 H12        17.2393    5.8340   69.5942 H         1 H1N         0.0959
     50 H13        16.4848    7.2125   68.7239 H         1 H1N         0.0959
     51 H14        17.6046    9.3232   68.5194 H         1 H1N         0.0533
     52 H15        19.4229   10.7909   69.3257 H         1 H1N         0.0526
     53 H16        19.6059    5.9166   70.2399 H         1 H1N         0.0533
     54 H17        21.4196    7.3828   71.0462 H         1 H1N         0.0526
     55 H18        21.3060   11.0694   70.2763 H         1 H1N         0.2183
     56 H19        24.2477    8.4673   70.0560 H         1 H1N         0.0663
     57 H20        25.2118    6.3343   70.9013 H         1 H1N         0.0628
     58 H21        24.6900    5.5650   73.2090 H         1 H1N         0.0649
     59 H22        23.2124    6.9130   74.6825 H         1 H1N         0.0628
     60 H23        22.2299    9.0477   73.8470 H         1 H1N         0.0663
     61 H24        25.3026    9.8082   73.2777 H         1 H1N         0.0365
     62 H25        23.6670   14.4037   71.0360 H         1 H1N         0.2182
     63 H26        26.0124   14.6684   72.2889 H         1 H1N         0.0450
     64 H27        27.6967   13.3897   73.5883 H         1 H1N         0.0401
     65 H28        28.3264   11.4064   74.6517 H         1 H1N         0.2099
     66 H29        27.2664    8.7961   72.2412 H         1 H1N         0.0520
     67 H30        27.5304    7.2578   73.1304 H         1 H1N         0.0520
     68 H31        29.4271    7.7575   71.6172 H         1 H1N         0.0246
     69 H32        29.9460    7.7916   73.3366 H         1 H1N         0.0246
     70 H33        29.6819    9.3299   72.4474 H         1 H1N         0.0246
@<TRIPOS>BOND
     1    1    2 1  
     2    1    6 1  
     3    2    3 1  
     4    3    4 1  
     5    4    5 1  
     6    5    6 1  
     7    6    7 1  
     8    7    8 1  
     9    8    9 ar 
    10    8   11 ar 
    11    9   10 ar 
    12   10   13 ar 
    13   11   12 ar 
    14   12   13 ar 
    15   13   14 1  
    16   14   15 1  
    17   15   16 1  
    18   15   22 2  
    19   16   17 ar 
    20   16   21 ar 
    21   17   18 ar 
    22   18   19 ar 
    23   19   20 ar 
    24   20   21 ar 
    25   22   23 1  
    26   22   25 1  
    27   23   24 ar 
    28   23   28 ar 
    29   24   31 ar 
    30   25   26 2  
    31   25   27 am 
    32   27   28 1  
    33   28   29 ar 
    34   29   30 ar 
    35   30   31 ar 
    36   31   32 1  
    37   32   33 am 
    38   33   34 2  
    39   33   35 2  
    40   33   36 1  
    41   36   37 1  
    42    1   38 1  
    43    1   39 1  
    44    2   40 1  
    45    2   41 1  
    46    3   42 1  
    47    3   43 1  
    48    4   44 1  
    49    4   45 1  
    50    5   46 1  
    51    5   47 1  
    52    6   48 1  
    53    7   49 1  
    54    7   50 1  
    55    9   51 1  
    56   10   52 1  
    57   11   53 1  
    58   12   54 1  
    59   14   55 1  
    60   17   56 1  
    61   18   57 1  
    62   19   58 1  
    63   20   59 1  
    64   21   60 1  
    65   24   61 1  
    66   27   62 1  
    67   29   63 1  
    68   30   64 1  
    69   32   65 1  
    70   36   66 1  
    71   36   67 1  
    72   37   68 1  
    73   37   69 1  
    74   37   70 1  
@<TRIPOS>SUBSTRUCTURE
     1 H1N         1

