### 
### Created by X-TOOL on Mon Sep 10 21:13:23 2018
### 

@<TRIPOS>MOLECULE
4qmu_ligand
   39    41     1     0     0
SMALL
GAST_HUCK


@<TRIPOS>ATOM
      1 S          -6.7560   -4.5450   12.9610 S.o2      1 SKE         0.0603
      2 C1         -2.4460    2.9950   15.2250 C.2       1 SKE         0.2527
      3 F1          1.2730    0.1050   16.1120 F         1 SKE        -0.1782
      4 N1         -1.8500    4.1810   15.4510 N.pl3     1 SKE        -0.2893
      5 O1         -6.2830   -5.4810   14.1730 O.2       1 SKE        -0.1521
      6 C2         -3.7990    1.5880   14.3730 C.2       1 SKE         0.1508
      7 F2         -3.0770   -0.4250   18.0340 F         1 SKE        -0.1782
      8 N2         -3.4630    2.8820   14.3640 N.2       1 SKE        -0.2739
      9 O2         -8.3510   -4.5500   12.8180 O.2       1 SKE        -0.1521
     10 C3         -5.1500   -0.3240   13.5730 C.ar      1 SKE         0.0575
     11 N3         -4.7900    0.9880   13.6700 N.pl3     1 SKE        -0.2669
     12 O3         -0.5170    2.3610   17.1410 O.2       1 SKE        -0.3518
     13 C4         -6.3260   -0.5460   12.8270 C.ar      1 SKE        -0.0385
     14 N4         -6.0960   -5.1420   11.4510 N.am      1 SKE        -0.2623
     15 C5         -6.8130   -1.8410   12.6440 C.ar      1 SKE        -0.0460
     16 N5         -2.9960    0.9460   15.2260 N.2       1 SKE        -0.1813
     17 C6         -6.1240   -2.9200   13.2160 C.ar      1 SKE         0.0952
     18 N6         -2.1670    1.7790   15.7570 N.am      1 SKE        -0.0829
     19 C7         -4.9480   -2.7240   13.9610 C.ar      1 SKE        -0.0460
     20 C8         -4.4620   -1.4230   14.1460 C.ar      1 SKE        -0.0385
     21 C9         -1.1960    1.4160   16.6650 C.2       1 SKE         0.2888
     22 C10        -0.9330    0.0430   17.0460 C.ar      1 SKE         0.1350
     23 C11         0.3200   -0.5520   16.7150 C.ar      1 SKE         0.1536
     24 C12         0.6180   -1.8910   17.0320 C.ar      1 SKE        -0.0261
     25 C13        -0.3430   -2.6820   17.6780 C.ar      1 SKE        -0.0610
     26 C14        -1.5930   -2.1430   18.0040 C.ar      1 SKE        -0.0261
     27 C15        -1.8860   -0.8030   17.6810 C.ar      1 SKE         0.1536
     28 H1         -2.1817    5.0253   14.9632 H         1 SKE         0.1819
     29 H2         -1.0623    4.2439   16.1117 H         1 SKE         0.1819
     30 H3         -5.3702    1.6325   13.1142 H         1 SKE         0.2073
     31 H4         -6.8551    0.2947   12.3929 H         1 SKE         0.0527
     32 H5         -5.1058   -5.2177   11.3333 H         1 SKE         0.1633
     33 H6         -6.7096   -5.4069   10.7071 H         1 SKE         0.1633
     34 H7         -7.7141   -2.0109   12.0659 H         1 SKE         0.0604
     35 H8         -4.4227   -3.5707   14.3879 H         1 SKE         0.0604
     36 H9         -3.5615   -1.2571   14.7262 H         1 SKE         0.0527
     37 H10         1.5856   -2.3085   16.7779 H         1 SKE         0.0582
     38 H11        -0.1174   -3.7130   17.9254 H         1 SKE         0.0633
     39 H12        -2.3345   -2.7554   18.5042 H         1 SKE         0.0582
@<TRIPOS>BOND
     1    1    5 2  
     2    1    9 2  
     3    1   14 am 
     4   17    1 1  
     5    2    4 1  
     6    2    8 2  
     7   18    2 1  
     8   23    3 1  
     9    6    8 1  
    10    6   11 1  
    11   16    6 2  
    12   27    7 1  
    13   11   10 1  
    14   10   13 ar 
    15   10   20 ar 
    16   21   12 2  
    17   13   15 ar 
    18   15   17 ar 
    19   18   16 1  
    20   19   17 ar 
    21   21   18 am 
    22   20   19 ar 
    23   22   21 1  
    24   22   23 ar 
    25   22   27 ar 
    26   23   24 ar 
    27   24   25 ar 
    28   25   26 ar 
    29   26   27 ar 
    30    4   28 1  
    31    4   29 1  
    32   11   30 1  
    33   13   31 1  
    34   14   32 1  
    35   14   33 1  
    36   15   34 1  
    37   19   35 1  
    38   20   36 1  
    39   24   37 1  
    40   25   38 1  
    41   26   39 1  
@<TRIPOS>SUBSTRUCTURE
     1 SKE         1

