### 
### Created by X-TOOL on Mon Sep 10 21:13:21 2018
### 

@<TRIPOS>MOLECULE
4qmv_ligand
   59    63     1     0     0
SMALL
GAST_HUCK


@<TRIPOS>ATOM
      1 C01        37.5420    2.8220   71.6720 C.3       1 34W         0.0258
      2 C02        36.3190    2.5080   70.9090 C.2       1 34W         0.1749
      3 O03        36.1310    3.0760   69.7980 O.2       1 34W        -0.3972
      4 N04        35.4110    1.6270   71.4200 N.am      1 34W        -0.2685
      5 C05        34.1960    1.2600   70.7620 C.3       1 34W         0.1204
      6 C06        33.0380    2.1150   71.1440 C.2       1 34W         0.2047
      7 O07        33.2240    3.0100   72.0120 O.2       1 34W        -0.3943
      8 N08        31.7810    1.9730   70.5900 N.am      1 34W        -0.2467
      9 C09        30.5780    2.7020   70.8780 C.3       1 34W         0.0748
     10 C10        30.0440    3.0690   69.4520 C.3       1 34W        -0.0180
     11 C11        30.5950    1.9120   68.5710 C.3       1 34W        -0.0171
     12 C12        31.3110    1.0210   69.6340 C.3       1 34W         0.0767
     13 C13        30.3610    0.4480   70.6130 C.ar      1 34W        -0.0202
     14 C14        29.8980    1.5070   71.4000 C.ar      1 34W        -0.0222
     15 C15        28.9610    1.3090   72.4250 C.ar      1 34W        -0.0712
     16 C16        28.5100   -0.0130   72.6430 C.ar      1 34W        -0.0476
     17 C17        28.9870   -1.0990   71.8660 C.ar      1 34W         0.0620
     18 C18        29.9140   -0.8600   70.8270 C.ar      1 34W        -0.0372
     19 N19        28.5250   -2.3570   72.0880 N.pl3     1 34W        -0.2327
     20 C20        27.8750   -2.9530   73.1230 C.ar      1 34W         0.2271
     21 N21        27.5820   -4.2710   73.0750 N.ar      1 34W        -0.2275
     22 C22        26.9240   -4.9010   74.0630 C.ar      1 34W         0.0374
     23 C23        26.5080   -4.2060   75.2080 C.ar      1 34W         0.0980
     24 C24        26.8160   -2.8220   75.2520 C.ar      1 34W         0.1500
     25 N25        27.4830   -2.2520   74.2110 N.ar      1 34W        -0.2078
     26 N26        26.4670   -2.0600   76.3240 N.pl3     1 34W        -0.2820
     27 C27        26.9460   -0.7320   76.5510 C.3       1 34W         0.0478
     28 C28        26.5450   -0.1890   77.9400 C.3       1 34W        -0.0280
     29 C29        26.2180    1.1450   77.2600 C.3       1 34W        -0.0485
     30 C30        26.0260    0.3550   75.9540 C.3       1 34W        -0.0280
     31 C31        25.7810   -4.9430   76.2720 C.3       1 34W         0.3624
     32 F32        24.5070   -4.4550   76.4740 F         1 34W        -0.2410
     33 F33        26.4620   -4.8910   77.4490 F         1 34W        -0.2410
     34 F34        25.6280   -6.2590   75.9390 F         1 34W        -0.2410
     35 H1         37.5481    2.2451   72.6086 H         1 34W         0.0467
     36 H2         37.5639    3.8971   71.9035 H         1 34W         0.0467
     37 H3         38.4259    2.5578   71.0729 H         1 34W         0.0467
     38 H4         35.6073    1.2129   72.3088 H         1 34W         0.1880
     39 H5         33.9602    0.2171   71.0203 H         1 34W         0.0763
     40 H6         34.3482    1.3433   69.6758 H         1 34W         0.0763
     41 H7         30.6465    3.5579   71.5655 H         1 34W         0.0692
     42 H8         30.4363    4.0415   69.1199 H         1 34W         0.0309
     43 H9         28.9444    3.0917   69.4341 H         1 34W         0.0309
     44 H10        31.3037    2.2845   67.8166 H         1 34W         0.0310
     45 H11        29.7815    1.3654   68.0716 H         1 34W         0.0310
     46 H12        32.0393    0.3182   69.2032 H         1 34W         0.0707
     47 H13        28.5978    2.1355   73.0251 H         1 34W         0.0518
     48 H14        27.7816   -0.2011   73.4234 H         1 34W         0.0482
     49 H15        30.2719   -1.6745   70.2077 H         1 34W         0.0474
     50 H16        28.7063   -2.9980   71.3024 H         1 34W         0.2285
     51 H17        26.7120   -5.9603   73.9738 H         1 34W         0.1102
     52 H18        25.8181   -2.4645   77.0141 H         1 34W         0.1982
     53 H19        28.0121   -0.6509   76.2924 H         1 34W         0.0579
     54 H20        27.3684   -0.1416   78.6678 H         1 34W         0.0289
     55 H21        25.6807   -0.6937   78.3964 H         1 34W         0.0289
     56 H22        27.0482    1.8664   77.2419 H         1 34W         0.0267
     57 H23        25.3099    1.6403   77.6343 H         1 34W         0.0267
     58 H24        24.9932    0.0275   75.7642 H         1 34W         0.0289
     59 H25        26.4245    0.8501   75.0562 H         1 34W         0.0289
@<TRIPOS>BOND
     1    1    2 1  
     2    2    3 2  
     3    2    4 am 
     4    4    5 1  
     5    5    6 1  
     6    6    7 2  
     7    6    8 am 
     8    8    9 1  
     9    8   12 1  
    10    9   10 1  
    11    9   14 1  
    12   10   11 1  
    13   11   12 1  
    14   12   13 1  
    15   13   14 ar 
    16   13   18 ar 
    17   14   15 ar 
    18   15   16 ar 
    19   16   17 ar 
    20   17   18 ar 
    21   17   19 1  
    22   19   20 1  
    23   20   21 ar 
    24   20   25 ar 
    25   21   22 ar 
    26   22   23 ar 
    27   23   24 ar 
    28   23   31 1  
    29   24   25 ar 
    30   24   26 1  
    31   26   27 1  
    32   27   28 1  
    33   27   30 1  
    34   28   29 1  
    35   29   30 1  
    36   31   32 1  
    37   31   33 1  
    38   31   34 1  
    39    1   35 1  
    40    1   36 1  
    41    1   37 1  
    42    4   38 1  
    43    5   39 1  
    44    5   40 1  
    45    9   41 1  
    46   10   42 1  
    47   10   43 1  
    48   11   44 1  
    49   11   45 1  
    50   12   46 1  
    51   15   47 1  
    52   16   48 1  
    53   18   49 1  
    54   19   50 1  
    55   22   51 1  
    56   26   52 1  
    57   27   53 1  
    58   28   54 1  
    59   28   55 1  
    60   29   56 1  
    61   29   57 1  
    62   30   58 1  
    63   30   59 1  
@<TRIPOS>SUBSTRUCTURE
     1 34W         1

