### 
### Created by X-TOOL on Mon Sep 10 21:13:23 2018
### 

@<TRIPOS>MOLECULE
4qmw_ligand
   41    45     1     0     0
SMALL
GAST_HUCK


@<TRIPOS>ATOM
      1 CAI        -1.9110   -2.5120   15.9920 C.3       1 KS1        -0.0215
      2 CAG        -2.0410   -3.8330   16.7790 C.3       1 KS1        -0.0502
      3 CAH        -2.7000   -3.4750   18.1310 C.3       1 KS1        -0.0502
      4 CAJ        -3.0860   -1.9780   18.0610 C.3       1 KS1        -0.0215
      5 CAW        -1.9750   -1.4750   17.1250 C.3       1 KS1         0.0810
      6 NAX        -1.7870   -0.0720   16.8450 N.pl3     1 KS1        -0.1808
      7 NAN        -0.6830    0.3720   17.3190 N.2       1 KS1        -0.1947
      8 C4         -2.4210    0.9450   16.2070 C.ar      1 KS1         0.1633
      9 N3         -3.6030    1.0070   15.5390 N.ar      1 KS1        -0.2676
     10 C2         -3.9910    2.1880   14.9840 C.ar      1 KS1         0.0565
     11 N1         -3.2050    3.3050   15.0870 N.ar      1 KS1        -0.2656
     12 C6         -2.0210    3.3030   15.7570 C.ar      1 KS1         0.1274
     13 NAA        -1.3290    4.4540   15.8140 N.pl3     1 KS1        -0.3125
     14 C5         -1.6060    2.0870   16.3370 C.ar      1 KS1         0.0868
     15 CAR        -0.5000    1.6620   17.0760 C.2       1 KS1         0.0718
     16 CAP         0.6940    2.2390   17.5350 C.ar      1 KS1         0.0037
     17 CAF         1.5160    3.0160   16.6930 C.ar      1 KS1        -0.0478
     18 CAS         2.7180    3.4990   17.2360 C.ar      1 KS1        -0.0004
     19 CAD         3.7300    4.3000   16.7250 C.2       1 KS1        -0.0557
     20 CAB         4.6580    4.4350   17.7560 C.2       1 KS1         0.0273
     21 NAO         4.2460    3.7570   18.8400 N.pl3     1 KS1        -0.2652
     22 CAT         3.0680    3.1830   18.5560 C.ar      1 KS1         0.1358
     23 NAM         2.2870    2.4110   19.3330 N.ar      1 KS1        -0.2850
     24 CAE         1.1120    1.9290   18.8530 C.ar      1 KS1         0.0030
     25 H1         -2.7412   -2.3835   15.2819 H         1 KS1         0.0295
     26 H2         -0.9545   -2.4584   15.4514 H         1 KS1         0.0295
     27 H3         -1.0478   -4.2755   16.9457 H         1 KS1         0.0266
     28 H4         -2.6713   -4.5447   16.2256 H         1 KS1         0.0266
     29 H5         -1.9904   -3.6445   18.9543 H         1 KS1         0.0266
     30 H6         -3.5982   -4.0901   18.2886 H         1 KS1         0.0266
     31 H7         -3.0406   -1.4956   19.0485 H         1 KS1         0.0295
     32 H8         -4.0861   -1.8316   17.6270 H         1 KS1         0.0295
     33 H9         -1.0602   -1.6776   17.7012 H         1 KS1         0.0660
     34 H10        -4.9346    2.2451   14.4535 H         1 KS1         0.1030
     35 H11        -0.4285    4.4894   16.3128 H         1 KS1         0.1842
     36 H12        -1.6992    5.3006   15.3588 H         1 KS1         0.1842
     37 H13         1.2321    3.2316   15.6693 H         1 KS1         0.0669
     38 H14         3.7869    4.7325   15.7272 H         1 KS1         0.0305
     39 H15         5.5825    5.0069   17.6921 H         1 KS1         0.0964
     40 H16         4.7491    3.6896   19.7363 H         1 KS1         0.2309
     41 H17         0.4896    1.3030   19.4821 H         1 KS1         0.0754
@<TRIPOS>BOND
     1    1    2 1  
     2    1    5 1  
     3    2    3 1  
     4    3    4 1  
     5    4    5 1  
     6    5    6 1  
     7    6    7 1  
     8    6    8 1  
     9    7   15 2  
    10    8    9 ar 
    11    8   14 ar 
    12    9   10 ar 
    13   10   11 ar 
    14   11   12 ar 
    15   12   13 1  
    16   12   14 ar 
    17   14   15 1  
    18   15   16 1  
    19   16   17 ar 
    20   16   24 ar 
    21   17   18 ar 
    22   18   19 1  
    23   18   22 ar 
    24   19   20 2  
    25   20   21 1  
    26   21   22 1  
    27   22   23 ar 
    28   23   24 ar 
    29    1   25 1  
    30    1   26 1  
    31    2   27 1  
    32    2   28 1  
    33    3   29 1  
    34    3   30 1  
    35    4   31 1  
    36    4   32 1  
    37    5   33 1  
    38   10   34 1  
    39   13   35 1  
    40   13   36 1  
    41   17   37 1  
    42   19   38 1  
    43   20   39 1  
    44   21   40 1  
    45   24   41 1  
@<TRIPOS>SUBSTRUCTURE
     1 KS1         1

