### 
### Created by X-TOOL on Mon Sep 10 21:13:23 2018
### 

@<TRIPOS>MOLECULE
4qmx_ligand
   72    77     1     0     0
SMALL
GAST_HUCK


@<TRIPOS>ATOM
      1 C1         14.3050    2.9090   66.3240 C.3       1 H8H        -0.0427
      2 N2         15.1320    3.8480   67.0700 N.4       1 H8H         0.2405
      3 C3         16.4410    4.2860   66.5910 C.3       1 H8H         0.0092
      4 C4         16.7690    5.6350   67.1100 C.3       1 H8H         0.0095
      5 N5         16.6880    5.7380   68.5920 N.4       1 H8H         0.2446
      6 C6         17.2200    6.9590   69.2010 C.3       1 H8H        -0.0027
      7 C7         18.6620    6.8490   69.6650 C.3       1 H8H         0.1117
      8 O8         18.7340    7.5080   70.8900 O.3       1 H8H        -0.3113
      9 C9         19.9020    8.1530   71.3990 C.ar      1 H8H         0.0865
     10 C10        20.6410    7.5020   72.4090 C.ar      1 H8H         0.0045
     11 C11        21.8120    8.0670   72.9690 C.ar      1 H8H         0.1147
     12 O12        22.5030    7.3530   73.9970 O.3       1 H8H        -0.3068
     13 C13        23.6030    6.5570   73.6410 C.3       1 H8H         0.0886
     14 C14        24.0210    5.6190   74.7390 C.3       1 H8H         0.0020
     15 C15        25.3250    5.0220   74.2910 C.3       1 H8H         0.0504
     16 O16        25.1780    4.3600   73.0540 O.3       1 H8H        -0.3796
     17 C17        24.7650    5.2220   72.0490 C.3       1 H8H         0.0504
     18 C18        23.4230    5.7720   72.3670 C.3       1 H8H         0.0020
     19 C19        22.2350    9.3630   72.5180 C.ar      1 H8H         0.0830
     20 C20        23.3970   10.0690   73.0080 C.ar      1 H8H         0.1537
     21 N21        24.2600    9.5040   74.0600 N.pl3     1 H8H        -0.2519
     22 C22        25.3010   10.2040   74.7780 C.ar      1 H8H         0.1046
     23 C23        25.0000   11.2480   75.6410 C.ar      1 H8H         0.1483
     24 O24        23.8300   11.8250   75.9660 O.3       1 H8H        -0.2955
     25 C25        24.1250   13.0050   76.6860 C.3       1 H8H         0.1843
     26 O26        25.4810   12.8650   77.0840 O.3       1 H8H        -0.2941
     27 C27        26.0140   11.8670   76.3250 C.ar      1 H8H         0.1156
     28 C28        27.3300   11.4500   76.1630 C.ar      1 H8H        -0.0509
     29 C29        27.6230   10.4020   75.3290 C.ar      1 H8H        -0.0757
     30 C30        26.6120    9.7830   74.6460 C.ar      1 H8H         0.0450
     31 CL3        26.9750    8.4770   73.5900 Cl        1 H8H        -0.0913
     32 N32        23.6860   11.2750   72.4860 N.ar      1 H8H        -0.2599
     33 C33        22.9360   11.8270   71.5360 C.ar      1 H8H         0.0532
     34 N34        21.8370   11.2190   71.0360 N.ar      1 H8H        -0.3053
     35 C35        21.4590   10.0250   71.4900 C.ar      1 H8H         0.0258
     36 C36        20.3000    9.4090   70.9430 C.ar      1 H8H        -0.0286
     37 C37        15.3720    5.2260   68.9810 C.3       1 H8H         0.0095
     38 C38        15.1960    3.8380   68.5170 C.3       1 H8H         0.0092
     39 H1         14.4129    3.1014   65.2463 H         1 H8H         0.0778
     40 H2         13.2520    3.0360   66.6155 H         1 H8H         0.0778
     41 H3         14.6257    1.8807   66.5468 H         1 H8H         0.0778
     42 H4         14.5829    4.6779   66.9091 H         1 H8H         0.2035
     43 H5         16.4309    4.3157   65.4915 H         1 H8H         0.0868
     44 H6         17.2063    3.5731   66.9316 H         1 H8H         0.0868
     45 H7         16.0642    6.3571   66.6721 H         1 H8H         0.0868
     46 H8         17.7934    5.8878   66.7992 H         1 H8H         0.0868
     47 H9         17.3294    5.0382   68.9309 H         1 H8H         0.2039
     48 H10        16.5962    7.2098   70.0716 H         1 H8H         0.0841
     49 H11        17.1576    7.7692   68.4596 H         1 H8H         0.0841
     50 H12        19.3333    7.3268   68.9363 H         1 H8H         0.0671
     51 H13        18.9433    5.7923   69.7848 H         1 H8H         0.0671
     52 H14        20.3010    6.5374   72.7681 H         1 H8H         0.0474
     53 H15        24.4392    7.2512   73.4711 H         1 H8H         0.0659
     54 H16        23.2663    4.8309   74.8779 H         1 H8H         0.0317
     55 H17        24.1551    6.1686   75.6823 H         1 H8H         0.0317
     56 H18        25.6691    4.3005   75.0467 H         1 H8H         0.0561
     57 H19        26.0701    5.8240   74.1837 H         1 H8H         0.0561
     58 H20        24.7169    4.6737   71.0966 H         1 H8H         0.0561
     59 H21        25.4851    6.0488   71.9603 H         1 H8H         0.0561
     60 H22        23.0745    6.4288   71.5564 H         1 H8H         0.0317
     61 H23        22.6989    4.9575   72.5160 H         1 H8H         0.0317
     62 H24        24.1069    8.5159   74.3074 H         1 H8H         0.2195
     63 H25        23.4713   13.0942   77.5662 H         1 H8H         0.0969
     64 H26        23.9999   13.8902   76.0451 H         1 H8H         0.0969
     65 H27        28.1267   11.9547   76.6974 H         1 H8H         0.0428
     66 H28        28.6471   10.0667   75.2117 H         1 H8H         0.0479
     67 H29        23.2164   12.7999   71.1487 H         1 H8H         0.1046
     68 H30        19.7275    9.9145   70.1737 H         1 H8H         0.0394
     69 H31        14.5914    5.8584   68.5329 H         1 H8H         0.0868
     70 H32        15.2828    5.2545   70.0770 H         1 H8H         0.0868
     71 H33        16.0470    3.2244   68.8477 H         1 H8H         0.0868
     72 H34        14.2635    3.4237   68.9279 H         1 H8H         0.0868
@<TRIPOS>BOND
     1    1    2 1  
     2    2    3 1  
     3    2   38 1  
     4    3    4 1  
     5    4    5 1  
     6    5    6 1  
     7    5   37 1  
     8    6    7 1  
     9    7    8 1  
    10    8    9 1  
    11    9   10 ar 
    12    9   36 ar 
    13   10   11 ar 
    14   11   12 1  
    15   11   19 ar 
    16   12   13 1  
    17   13   14 1  
    18   13   18 1  
    19   14   15 1  
    20   15   16 1  
    21   16   17 1  
    22   17   18 1  
    23   19   20 ar 
    24   19   35 ar 
    25   20   21 1  
    26   20   32 ar 
    27   21   22 1  
    28   22   23 ar 
    29   22   30 ar 
    30   23   24 1  
    31   23   27 ar 
    32   24   25 1  
    33   25   26 1  
    34   26   27 1  
    35   27   28 ar 
    36   28   29 ar 
    37   29   30 ar 
    38   30   31 1  
    39   32   33 ar 
    40   33   34 ar 
    41   34   35 ar 
    42   35   36 ar 
    43   37   38 1  
    44    1   39 1  
    45    1   40 1  
    46    1   41 1  
    47    2   42 1  
    48    3   43 1  
    49    3   44 1  
    50    4   45 1  
    51    4   46 1  
    52    5   47 1  
    53    6   48 1  
    54    6   49 1  
    55    7   50 1  
    56    7   51 1  
    57   10   52 1  
    58   13   53 1  
    59   14   54 1  
    60   14   55 1  
    61   15   56 1  
    62   15   57 1  
    63   17   58 1  
    64   17   59 1  
    65   18   60 1  
    66   18   61 1  
    67   21   62 1  
    68   25   63 1  
    69   25   64 1  
    70   28   65 1  
    71   29   66 1  
    72   33   67 1  
    73   36   68 1  
    74   37   69 1  
    75   37   70 1  
    76   38   71 1  
    77   38   72 1  
@<TRIPOS>SUBSTRUCTURE
     1 H8H         1

