### 
### Created by X-TOOL on Mon Sep 10 21:13:23 2018
### 

@<TRIPOS>MOLECULE
4qmy_ligand
   65    72     1     0     0
SMALL
GAST_HUCK


@<TRIPOS>ATOM
      1 O4         23.2320   -2.5650   75.0350 O.3       1 STU        -0.3153
      2 C25        22.5800   -2.8520   73.7510 C.3       1 STU         0.1663
      3 C24        23.2820   -3.9030   72.8600 C.3       1 STU         0.0455
      4 C23        24.5000   -4.3610   73.5640 C.3       1 STU         0.0141
      5 C22        25.3430   -3.1620   73.8510 C.3       1 STU         0.1552
      6 C21        24.6070   -2.3150   74.9660 C.3       1 STU         0.2002
      7 C26        25.0370   -2.8470   76.3260 C.3       1 STU        -0.0063
      8 N2         24.9980   -0.8520   74.7340 N.pl3     1 STU        -0.2358
      9 C18        24.2480   -0.0860   73.8980 C.ar      1 STU         0.0861
     10 C19        23.0980   -0.3930   73.1820 C.ar      1 STU         0.0859
     11 C6         22.4350    0.5870   72.3390 C.ar      1 STU        -0.0077
     12 C7         23.0200    1.9510   72.2560 C.ar      1 STU         0.0211
     13 C10        24.1680    2.2740   72.9610 C.ar      1 STU        -0.0073
     14 C11        24.8130    1.2450   73.8080 C.ar      1 STU        -0.0104
     15 C12        26.0190    1.2460   74.6800 C.ar      1 STU        -0.0115
     16 C17        26.1320   -0.0460   75.2460 C.ar      1 STU         0.0664
     17 C16        27.2450   -0.2830   76.1350 C.ar      1 STU        -0.0416
     18 C15        28.1610    0.7330   76.4210 C.ar      1 STU        -0.0743
     19 C14        28.0230    2.0140   75.8510 C.ar      1 STU        -0.0762
     20 C13        26.9390    2.2670   74.9690 C.ar      1 STU        -0.0703
     21 C9         24.4640    3.6580   72.6590 C.3       1 STU        -0.0069
     22 N1         23.5230    4.1220   71.7870 N.4       1 STU         0.2674
     23 C8         22.6350    3.1440   71.5300 C.3       1 STU         0.1053
     24 O5         21.5470    3.2100   70.7300 O.3       1 STU        -0.3440
     25 C5         21.2130   -0.1230   71.7150 C.ar      1 STU        -0.0114
     26 C20        21.1990   -1.4790   72.2170 C.ar      1 STU         0.0661
     27 C1         20.1810   -2.3940   71.8210 C.ar      1 STU        -0.0416
     28 C2         19.1650   -1.9630   70.9270 C.ar      1 STU        -0.0743
     29 C3         19.1680   -0.6220   70.4340 C.ar      1 STU        -0.0762
     30 C4         20.1930    0.2980   70.8230 C.ar      1 STU        -0.0703
     31 N3         22.3620   -1.5880   73.0840 N.pl3     1 STU        -0.2401
     32 O6         25.4940   -2.3980   72.6730 O.3       1 STU        -0.3686
     33 C27        26.7660   -2.0850   72.1610 C.3       1 STU         0.0373
     34 N4         25.2310   -5.3410   72.7540 N.4       1 STU         0.2291
     35 C28        24.5300   -6.6150   72.7320 C.3       1 STU        -0.0445
     36 H1         21.5910   -3.2734   73.9839 H         1 STU         0.0932
     37 H2         23.5564   -3.4509   71.8955 H         1 STU         0.0372
     38 H3         22.6084   -4.7553   72.6871 H         1 STU         0.0372
     39 H4         24.2127   -4.8358   74.5138 H         1 STU         0.0880
     40 H5         26.3330   -3.4760   74.2134 H         1 STU         0.0709
     41 H6         26.1241   -2.7241   76.4408 H         1 STU         0.0284
     42 H7         24.7787   -3.9136   76.4009 H         1 STU         0.0284
     43 H8         24.5191   -2.2877   77.1190 H         1 STU         0.0284
     44 H9         27.3715   -1.2606   76.5859 H         1 STU         0.0535
     45 H10        28.9894    0.5326   77.0909 H         1 STU         0.0560
     46 H11        28.7357    2.7972   76.0829 H         1 STU         0.0513
     47 H12        26.8219    3.2465   74.5196 H         1 STU         0.0565
     48 H13        25.4619    3.7328   72.2023 H         1 STU         0.0938
     49 H14        24.4383    4.2532   73.5837 H         1 STU         0.0938
     50 H15        23.9696    4.4054   70.9289 H         1 STU         0.2064
     51 H16        23.0463    4.9112   72.1944 H         1 STU         0.2064
     52 H17        21.9978    3.4829   72.3601 H         1 STU         0.1309
     53 H18        21.1009    2.3713   70.7342 H         1 STU         0.2180
     54 H19        20.1820   -3.4101   72.1987 H         1 STU         0.0535
     55 H20        18.3869   -2.6518   70.6186 H         1 STU         0.0560
     56 H21        18.3852   -0.2978   69.7578 H         1 STU         0.0513
     57 H22        20.1901    1.3114   70.4381 H         1 STU         0.0565
     58 H23        26.6553   -1.4870   71.2444 H         1 STU         0.0524
     59 H24        27.3069   -3.0144   71.9293 H         1 STU         0.0524
     60 H25        27.3307   -1.5088   72.9088 H         1 STU         0.0524
     61 H26        26.1496   -5.4756   73.1466 H         1 STU         0.2014
     62 H27        25.3160   -4.9938   71.8115 H         1 STU         0.2014
     63 H28        25.0948   -7.3337   72.1201 H         1 STU         0.0777
     64 H29        23.5277   -6.4746   72.3011 H         1 STU         0.0777
     65 H30        24.4374   -7.0003   73.7581 H         1 STU         0.0777
@<TRIPOS>BOND
     1    1    2 1  
     2    1    6 1  
     3    2    3 1  
     4    2   31 1  
     5    3    4 1  
     6    4    5 1  
     7    4   34 1  
     8    5    6 1  
     9    5   32 1  
    10    6    7 1  
    11    6    8 1  
    12    8    9 1  
    13    8   16 1  
    14    9   10 ar 
    15    9   14 ar 
    16   10   11 ar 
    17   10   31 1  
    18   11   12 ar 
    19   11   25 1  
    20   12   13 ar 
    21   12   23 1  
    22   13   14 ar 
    23   13   21 1  
    24   14   15 1  
    25   15   16 ar 
    26   15   20 ar 
    27   16   17 ar 
    28   17   18 ar 
    29   18   19 ar 
    30   19   20 ar 
    31   21   22 1  
    32   22   23 1  
    33   23   24 1  
    34   25   26 ar 
    35   25   30 ar 
    36   26   27 ar 
    37   26   31 1  
    38   27   28 ar 
    39   28   29 ar 
    40   29   30 ar 
    41   32   33 1  
    42   34   35 1  
    43    2   36 1  
    44    3   37 1  
    45    3   38 1  
    46    4   39 1  
    47    5   40 1  
    48    7   41 1  
    49    7   42 1  
    50    7   43 1  
    51   17   44 1  
    52   18   45 1  
    53   19   46 1  
    54   20   47 1  
    55   21   48 1  
    56   21   49 1  
    57   22   50 1  
    58   22   51 1  
    59   23   52 1  
    60   24   53 1  
    61   27   54 1  
    62   28   55 1  
    63   29   56 1  
    64   30   57 1  
    65   33   58 1  
    66   33   59 1  
    67   33   60 1  
    68   34   61 1  
    69   34   62 1  
    70   35   63 1  
    71   35   64 1  
    72   35   65 1  
@<TRIPOS>SUBSTRUCTURE
     1 STU         1

