### 
### Created by X-TOOL on Mon Sep 10 21:13:21 2018
### 

@<TRIPOS>MOLECULE
4qmz_ligand
   57    59     1     0     0
SMALL
GAST_HUCK


@<TRIPOS>ATOM
      1 C4         -6.9130   -0.0260   12.8640 C.3       1 B49         0.0032
      2 C5          1.1010    3.8460   16.8640 C.ar      1 B49        -0.0474
      3 C6          0.1700    4.4450   16.0300 C.ar      1 B49        -0.0482
      4 C7         -0.3500    1.8880   17.0960 C.ar      1 B49        -0.0432
      5 C13        -4.6590   -1.1520   15.6330 C.2       1 B49        -0.0268
      6 C15         0.8530    2.5750   17.4020 C.ar      1 B49         0.1099
      7 C17        -1.2990    2.4970   16.2370 C.ar      1 B49        -0.0112
      8 C20        -2.5780    2.0560   15.7400 C.2       1 B49         0.0299
      9 C21        -3.0680    3.0790   14.9220 C.2       1 B49         0.2046
     10 C22        -6.5470   -2.7080   14.6140 C.2       1 B49         0.1771
     11 C3         -4.1100   -2.1160   16.6740 C.3       1 B49        -0.0381
     12 C12        -3.1200    0.8260   16.0970 C.2       1 B49        -0.0340
     13 C14        -5.8950   -0.2510   13.9730 C.2       1 B49         0.0723
     14 C16        -1.0580    3.7440   15.7020 C.ar      1 B49         0.0612
     15 C18        -4.2210    0.1370   15.3830 C.2       1 B49         0.0643
     16 C19        -5.7370   -1.4040   14.7280 C.2       1 B49         0.0573
     17 N23        -4.9740    0.6520   14.3820 N.pl3     1 B49        -0.2702
     18 N24        -2.1430    4.0910   14.9080 N.am      1 B49        -0.2438
     19 N25        -5.8470   -3.9630   14.6250 N.am      1 B49        -0.2873
     20 O27        -4.1090    3.1310   14.3230 O.2       1 B49        -0.3913
     21 O28        -7.7840   -2.6590   14.5060 O.2       1 B49        -0.4049
     22 F29         1.7580    2.0160   18.2060 F         1 B49        -0.1977
     23 C37        -6.5480   -5.2260   14.5200 C.3       1 B49         0.0694
     24 C38        -6.9830   -5.6870   13.1430 C.3       1 B49        -0.0114
     25 N4         -8.0060   -6.7300   13.0520 N.4       1 B49         0.2363
     26 C39        -9.3430   -6.1300   13.2880 C.3       1 B49        -0.0347
     27 C40        -7.7510   -7.8340   13.9730 C.3       1 B49        -0.0347
     28 C41        -8.9110   -8.4950   14.6560 C.3       1 B49        -0.0245
     29 C42       -10.3260   -6.1480   12.1840 C.3       1 B49        -0.0245
     30 H1         -6.7910    0.9876   12.4544 H         1 B49         0.0471
     31 H2         -7.9290   -0.1372   13.2707 H         1 B49         0.0471
     32 H3         -6.7547   -0.7656   12.0653 H         1 B49         0.0471
     33 H4          2.0243    4.3620   17.1013 H         1 B49         0.0519
     34 H5          0.3581    5.4326   15.6245 H         1 B49         0.0478
     35 H6         -0.5416    0.9068   17.5151 H         1 B49         0.0507
     36 H7         -3.2822   -1.6366   17.2171 H         1 B49         0.0375
     37 H8         -3.7432   -3.0250   16.1747 H         1 B49         0.0375
     38 H9         -4.9075   -2.3834   17.3829 H         1 B49         0.0375
     39 H10        -2.7019    0.3293   16.9713 H         1 B49         0.0691
     40 H11        -4.8616    1.5970   13.9880 H         1 B49         0.2314
     41 H12        -2.2357    4.9489   14.4026 H         1 B49         0.2226
     42 H13        -4.8504   -3.9643   14.7073 H         1 B49         0.1834
     43 H14        -7.4532   -5.1501   15.1404 H         1 B49         0.0571
     44 H15        -5.8860   -6.0025   14.9307 H         1 B49         0.0571
     45 H16        -6.0872   -6.0635   12.6274 H         1 B49         0.0834
     46 H17        -7.3689   -4.8050   12.6109 H         1 B49         0.0834
     47 H18        -7.9889   -7.1029   12.1157 H         1 B49         0.2034
     48 H19        -9.1830   -5.0773   13.5639 H         1 B49         0.0812
     49 H20        -9.7954   -6.6664   14.1351 H         1 B49         0.0812
     50 H21        -7.0893   -7.4485   14.7627 H         1 B49         0.0812
     51 H22        -7.2256   -8.6143   13.4029 H         1 B49         0.0812
     52 H23        -8.5420   -9.2997   15.3089 H         1 B49         0.0281
     53 H24        -9.5890   -8.9180   13.9002 H         1 B49         0.0281
     54 H25        -9.4528   -7.7522   15.2599 H         1 B49         0.0281
     55 H26       -11.2590   -5.6692   12.5160 H         1 B49         0.0281
     56 H27       -10.5314   -7.1887   11.8929 H         1 B49         0.0281
     57 H28        -9.9191   -5.5995   11.3217 H         1 B49         0.0281
@<TRIPOS>BOND
     1   13    1 1  
     2    3    2 ar 
     3    6    2 ar 
     4   14    3 ar 
     5    4    6 ar 
     6    7    4 ar 
     7    5   11 1  
     8    5   15 2  
     9   16    5 1  
    10    6   22 1  
    11    8    7 1  
    12    7   14 ar 
    13    8    9 1  
    14   12    8 2  
    15    9   18 am 
    16    9   20 2  
    17   16   10 1  
    18   10   19 am 
    19   10   21 2  
    20   15   12 1  
    21   13   16 2  
    22   13   17 1  
    23   14   18 1  
    24   15   17 1  
    25   19   23 1  
    26   23   24 1  
    27   24   25 1  
    28   25   26 1  
    29   25   27 1  
    30   26   29 1  
    31   27   28 1  
    32    1   30 1  
    33    1   31 1  
    34    1   32 1  
    35    2   33 1  
    36    3   34 1  
    37    4   35 1  
    38   11   36 1  
    39   11   37 1  
    40   11   38 1  
    41   12   39 1  
    42   17   40 1  
    43   18   41 1  
    44   19   42 1  
    45   23   43 1  
    46   23   44 1  
    47   24   45 1  
    48   24   46 1  
    49   25   47 1  
    50   26   48 1  
    51   26   49 1  
    52   27   50 1  
    53   27   51 1  
    54   28   52 1  
    55   28   53 1  
    56   28   54 1  
    57   29   55 1  
    58   29   56 1  
    59   29   57 1  
@<TRIPOS>SUBSTRUCTURE
     1 B49         1

