### 
### Created by X-TOOL on Mon Sep 10 21:13:17 2018
### 

@<TRIPOS>MOLECULE
4qn7_ligand
   46    46     1     0     0
SMALL
GAST_HUCK


@<TRIPOS>ATOM
      1 C1          1.6790   88.9300  130.3660 C.2       1 G39         0.0381
      2 O1A         2.2360   87.8760  129.9010 O.co2     1 G39        -0.5687
      3 O1B         2.1170   90.0780  130.1750 O.co2     1 G39        -0.5687
      4 C2          0.4020   88.7680  131.2470 C.3       1 G39         0.0194
      5 C3         -0.4200   87.5140  130.9720 C.3       1 G39         0.0069
      6 C4         -1.3520   87.3080  132.1810 C.3       1 G39         0.0033
      7 C5         -2.2820   88.4960  132.3510 C.3       1 G39         0.1105
      8 N5         -3.0770   88.2870  133.5230 N.am      1 G39        -0.2762
      9 C10        -4.4880   87.9530  133.3630 C.2       1 G39         0.1734
     10 O10        -4.9720   87.8510  132.2450 O.2       1 G39        -0.3974
     11 C11        -5.3620   87.7310  134.6040 C.3       1 G39         0.0257
     12 C6         -1.5320   89.8350  132.4420 C.3       1 G39         0.0888
     13 C7         -0.5200   90.0000  131.3100 C.3       1 G39        -0.0096
     14 O7         -2.4410   90.8880  132.3190 O.3       1 G39        -0.3708
     15 C8         -2.7800   91.5690  133.5300 C.3       1 G39         0.0587
     16 C9         -3.9050   92.5350  133.1900 C.3       1 G39        -0.0294
     17 C81        -1.5720   92.2460  134.1040 C.3       1 G39        -0.0294
     18 C82        -1.0050   93.3290  133.1740 C.3       1 G39        -0.0629
     19 C91        -5.1930   91.7960  132.8520 C.3       1 G39        -0.0629
     20 N4         -2.1250   86.1130  132.0110 N.4       1 G39         0.2225
     21 H           0.7904   88.6437  132.2686 H         1 G39         0.0469
     22 H           0.2447   86.6453  130.8559 H         1 G39         0.0341
     23 H          -1.0143   87.6460  130.0559 H         1 G39         0.0341
     24 H          -0.7363   87.2079  133.0870 H         1 G39         0.0875
     25 H          -2.9472   88.5406  131.4761 H         1 G39         0.0638
     26 H          -2.6728   88.3684  134.4340 H         1 G39         0.1857
     27 H          -6.3887   87.4902  134.2911 H         1 G39         0.0467
     28 H          -5.3700   88.6455  135.2152 H         1 G39         0.0467
     29 H          -4.9541   86.8981  135.1955 H         1 G39         0.0467
     30 H          -1.0152   89.8921  133.4113 H         1 G39         0.0622
     31 H          -1.0553   90.1042  130.3547 H         1 G39         0.0311
     32 H           0.0859   90.9001  131.4909 H         1 G39         0.0311
     33 H          -3.1477   90.8412  134.2683 H         1 G39         0.0596
     34 H          -3.6043   93.1432  132.3242 H         1 G39         0.0287
     35 H          -4.0859   93.1913  134.0541 H         1 G39         0.0287
     36 H          -0.7935   91.4889  134.2790 H         1 G39         0.0287
     37 H          -1.8507   92.7131  135.0601 H         1 G39         0.0287
     38 H          -0.1237   93.7906  133.6433 H         1 G39         0.0231
     39 H          -1.7712   94.0981  132.9969 H         1 G39         0.0231
     40 H          -0.7139   92.8739  132.2158 H         1 G39         0.0231
     41 H          -5.9816   92.5245  132.6123 H         1 G39         0.0231
     42 H          -5.5047   91.1889  133.7147 H         1 G39         0.0231
     43 H          -5.0231   91.1409  131.9849 H         1 G39         0.0231
     44 H          -1.5059   85.3256  131.8983 H         1 G39         0.1998
     45 H          -2.7068   86.2027  131.1928 H         1 G39         0.1998
     46 H          -2.7059   85.9703  132.8223 H         1 G39         0.1998
@<TRIPOS>BOND
     1    1    2 ar 
     2    1    3 ar 
     3    1    4 1  
     4    4    5 1  
     5    4   13 1  
     6    5    6 1  
     7    6    7 1  
     8    6   20 1  
     9    7    8 1  
    10    7   12 1  
    11    8    9 am 
    12    9   10 2  
    13    9   11 1  
    14   12   13 1  
    15   12   14 1  
    16   14   15 1  
    17   15   16 1  
    18   15   17 1  
    19   16   19 1  
    20   17   18 1  
    21    4   21 1  
    22    5   22 1  
    23    5   23 1  
    24    6   24 1  
    25    7   25 1  
    26    8   26 1  
    27   11   27 1  
    28   11   28 1  
    29   11   29 1  
    30   12   30 1  
    31   13   31 1  
    32   13   32 1  
    33   15   33 1  
    34   16   34 1  
    35   16   35 1  
    36   17   36 1  
    37   17   37 1  
    38   18   38 1  
    39   18   39 1  
    40   18   40 1  
    41   19   41 1  
    42   19   42 1  
    43   19   43 1  
    44   20   44 1  
    45   20   45 1  
    46   20   46 1  
@<TRIPOS>SUBSTRUCTURE
     1 G39         1

