### 
### Created by X-TOOL on Mon Sep 10 21:13:25 2018
### 

@<TRIPOS>MOLECULE
4qn9_ligand
   67    70     1     0     0
SMALL
GAST_HUCK


@<TRIPOS>ATOM
      1 C1         17.4710   19.7750  186.1190 C.3       1 DXC         0.0555
      2 C2         17.0440   21.0490  185.4210 C.3       1 DXC        -0.0235
      3 C3         15.6130   21.3660  185.8810 C.3       1 DXC        -0.0330
      4 C4         14.6240   20.2750  185.4730 C.3       1 DXC        -0.0259
      5 C5         15.1520   18.9870  186.1120 C.3       1 DXC        -0.0448
      6 C6         16.5800   18.6560  185.6530 C.3       1 DXC        -0.0263
      7 C7         15.1370   22.7360  185.4140 C.3       1 DXC        -0.0494
      8 C8         15.0080   22.7350  183.9120 C.3       1 DXC        -0.0494
      9 C9         14.0420   21.6440  183.4450 C.3       1 DXC        -0.0342
     10 C10        14.4740   20.2660  183.9410 C.3       1 DXC        -0.0299
     11 C11        13.9540   21.6180  181.8980 C.3       1 DXC        -0.0299
     12 C12        12.9650   20.6220  181.3360 C.3       1 DXC         0.0001
     13 C13        13.3280   19.2180  181.8290 C.3       1 DXC         0.0614
     14 C14        13.5020   19.2070  183.3860 C.3       1 DXC        -0.0227
     15 C15        13.6500   22.9130  181.1680 C.3       1 DXC        -0.0491
     16 C16        13.2270   22.4530  179.7830 C.3       1 DXC        -0.0491
     17 C17        13.1490   20.9230  179.8460 C.3       1 DXC        -0.0303
     18 C18        13.2710   20.5030  186.1560 C.3       1 DXC        -0.0590
     19 C19        12.1190   20.3120  178.8850 C.3       1 DXC        -0.0390
     20 O1         14.4790   18.7330  181.1020 O.3       1 DXC        -0.3912
     21 O2         18.7870   19.3990  185.8240 O.3       1 DXC        -0.3918
     22 C20        11.5390   20.9400  181.7650 C.3       1 DXC        -0.0567
     23 C21        12.4280   20.7180  177.4480 C.3       1 DXC        -0.0386
     24 C22        11.2240   20.5260  176.5350 C.3       1 DXC         0.0004
     25 C23        11.5450   20.8740  175.0950 C.2       1 DXC         0.0348
     26 O3         12.6120   20.4720  174.5450 O.co2     1 DXC        -0.5690
     27 O4         10.6840   21.5480  174.4960 O.co2     1 DXC        -0.5690
     28 C24        12.1380   18.7950  178.9770 C.3       1 DXC        -0.0620
     29 H1         17.3695   19.9129  187.2056 H         1 DXC         0.0593
     30 H2         17.0656   20.9059  184.3306 H         1 DXC         0.0293
     31 H3         17.7188   21.8730  185.6961 H         1 DXC         0.0293
     32 H4         15.6315   21.3904  186.9806 H         1 DXC         0.0307
     33 H5         14.4884   18.1552  185.8333 H         1 DXC         0.0271
     34 H6         15.1501   19.1071  187.2054 H         1 DXC         0.0271
     35 H7         16.9071   17.7045  186.0975 H         1 DXC         0.0290
     36 H8         16.6144   18.5794  184.5562 H         1 DXC         0.0290
     37 H9         15.8654   23.5016  185.7194 H         1 DXC         0.0268
     38 H10        14.1594   22.9589  185.8663 H         1 DXC         0.0268
     39 H11        15.9972   22.5543  183.4662 H         1 DXC         0.0268
     40 H12        14.6307   23.7144  183.5827 H         1 DXC         0.0268
     41 H13        13.0452   21.8676  183.8528 H         1 DXC         0.0306
     42 H14        15.4674   20.0466  183.5227 H         1 DXC         0.0310
     43 H15        14.9555   21.3031  181.5697 H         1 DXC         0.0310
     44 H16        12.4877   18.5483  181.5938 H         1 DXC         0.0599
     45 H17        12.5151   19.3782  183.8406 H         1 DXC         0.0293
     46 H18        13.8742   18.2147  183.6805 H         1 DXC         0.0293
     47 H19        14.5437   23.5520  181.1134 H         1 DXC         0.0268
     48 H20        12.8365   23.4620  181.6647 H         1 DXC         0.0268
     49 H21        13.9690   22.7665  179.0339 H         1 DXC         0.0268
     50 H22        12.2444   22.8746  179.5247 H         1 DXC         0.0268
     51 H23        14.1235   20.5148  179.5401 H         1 DXC         0.0310
     52 H24        13.4070   20.5048  187.2476 H         1 DXC         0.0235
     53 H25        12.5776   19.6969  185.8743 H         1 DXC         0.0235
     54 H26        12.8574   21.4709  185.8365 H         1 DXC         0.0235
     55 H27        11.1181   20.6780  179.1574 H         1 DXC         0.0302
     56 H28        14.3013   18.7688  180.1694 H         1 DXC         0.2098
     57 H29        19.3816   20.0844  186.1053 H         1 DXC         0.2098
     58 H30        11.4206   20.7195  182.8362 H         1 DXC         0.0236
     59 H31        10.8356   20.3253  181.1842 H         1 DXC         0.0236
     60 H32        11.3307   22.0049  181.5847 H         1 DXC         0.0236
     61 H33        13.2596   20.1022  177.0749 H         1 DXC         0.0286
     62 H34        12.7211   21.7781  177.4326 H         1 DXC         0.0286
     63 H35        10.4064   21.1741  176.8836 H         1 DXC         0.0430
     64 H36        10.9047   19.4745  176.5839 H         1 DXC         0.0430
     65 H37        11.9164   18.4875  180.0096 H         1 DXC         0.0233
     66 H38        13.1321   18.4226  178.6889 H         1 DXC         0.0233
     67 H39        11.3792   18.3770  178.2991 H         1 DXC         0.0233
@<TRIPOS>BOND
     1    1    2 1  
     2    1    6 1  
     3    1   21 1  
     4    2    3 1  
     5    3    4 1  
     6    3    7 1  
     7    4    5 1  
     8    4   10 1  
     9    4   18 1  
    10    5    6 1  
    11    7    8 1  
    12    8    9 1  
    13    9   10 1  
    14    9   11 1  
    15   10   14 1  
    16   11   12 1  
    17   11   15 1  
    18   12   13 1  
    19   12   17 1  
    20   12   22 1  
    21   13   14 1  
    22   13   20 1  
    23   15   16 1  
    24   16   17 1  
    25   17   19 1  
    26   19   23 1  
    27   19   28 1  
    28   23   24 1  
    29   24   25 1  
    30   25   26 ar 
    31   25   27 ar 
    32    1   29 1  
    33    2   30 1  
    34    2   31 1  
    35    3   32 1  
    36    5   33 1  
    37    5   34 1  
    38    6   35 1  
    39    6   36 1  
    40    7   37 1  
    41    7   38 1  
    42    8   39 1  
    43    8   40 1  
    44    9   41 1  
    45   10   42 1  
    46   11   43 1  
    47   13   44 1  
    48   14   45 1  
    49   14   46 1  
    50   15   47 1  
    51   15   48 1  
    52   16   49 1  
    53   16   50 1  
    54   17   51 1  
    55   18   52 1  
    56   18   53 1  
    57   18   54 1  
    58   19   55 1  
    59   20   56 1  
    60   21   57 1  
    61   22   58 1  
    62   22   59 1  
    63   22   60 1  
    64   23   61 1  
    65   23   62 1  
    66   24   63 1  
    67   24   64 1  
    68   28   65 1  
    69   28   66 1  
    70   28   67 1  
@<TRIPOS>SUBSTRUCTURE
     1 DXC         1

