### 
### Created by X-TOOL on Mon Sep 10 21:13:23 2018
### 

@<TRIPOS>MOLECULE
4qna_ligand
   24    25     1     0     0
SMALL
GAST_HUCK


@<TRIPOS>ATOM
      1 N1         -0.6010    1.5680   16.9260 N.ar      1 X11        -0.2468
      2 C2          0.5460    2.1630   17.3000 C.ar      1 X11         0.1792
      3 N3          0.7310    3.4630   17.0450 N.ar      1 X11        -0.2236
      4 C4         -0.2330    4.1660   16.4240 C.ar      1 X11         0.1792
      5 N5         -1.3820    3.5810   16.0440 N.ar      1 X11        -0.2468
      6 C6         -1.5670    2.2740   16.2940 C.ar      1 X11         0.1023
      7 N7          1.5740    1.4240   17.9690 N.pl3     1 X11        -0.3011
      8 N8         -0.0310    5.5500   16.1620 N.pl3     1 X11        -0.3011
      9 C9         -2.8230    1.5790   15.8900 C.ar      1 X11         0.0504
     10 C10        -3.7810    2.1750   15.0590 C.ar      1 X11         0.1088
     11 C11        -4.9220    1.4780   14.7120 C.ar      1 X11        -0.0255
     12 C12        -5.1260    0.1910   15.1860 C.ar      1 X11        -0.0649
     13 C13        -4.1770   -0.4000   16.0090 C.ar      1 X11        -0.0660
     14 C14        -3.0280    0.2910   16.3610 C.ar      1 X11        -0.0517
     15 O15        -3.6130    3.4500   14.5560 O.3       1 X11        -0.3261
     16 H1          1.4408    0.4226   18.1697 H         1 X11         0.1859
     17 H2          2.4466    1.8939   18.2495 H         1 X11         0.1859
     18 H3          0.8466    6.0059   16.4499 H         1 X11         0.1859
     19 H4         -0.7624    6.0959   15.6845 H         1 X11         0.1859
     20 H5         -5.6609    1.9390   14.0666 H         1 X11         0.0558
     21 H6         -6.0240   -0.3522   14.9147 H         1 X11         0.0634
     22 H7         -4.3353   -1.4068   16.3782 H         1 X11         0.0541
     23 H8         -2.2903   -0.1752   17.0040 H         1 X11         0.0645
     24 H9         -2.7924    3.8087   14.8730 H         1 X11         0.2520
@<TRIPOS>BOND
     1    1    2 ar 
     2    1    6 ar 
     3    2    3 ar 
     4    2    7 1  
     5    3    4 ar 
     6    4    5 ar 
     7    4    8 1  
     8    5    6 ar 
     9    6    9 1  
    10    9   10 ar 
    11    9   14 ar 
    12   10   11 ar 
    13   10   15 1  
    14   11   12 ar 
    15   12   13 ar 
    16   13   14 ar 
    17    7   16 1  
    18    7   17 1  
    19    8   18 1  
    20    8   19 1  
    21   11   20 1  
    22   12   21 1  
    23   13   22 1  
    24   14   23 1  
    25   15   24 1  
@<TRIPOS>SUBSTRUCTURE
     1 X11         1

