### 
### Created by X-TOOL on Mon Sep 10 21:13:20 2018
### 

@<TRIPOS>MOLECULE
4qnb_ligand
   59    62     1     0     0
SMALL
GAST_HUCK


@<TRIPOS>ATOM
      1 O24        16.1490   26.7250   -0.2270 O.2       1 1B0        -0.3959
      2 C23        15.3040   25.9020   -0.0200 C.2       1 1B0         0.1811
      3 N4         15.2250   24.6950   -0.7830 N.am      1 1B0        -0.2627
      4 C5         16.1210   24.4070   -1.8520 C.3       1 1B0         0.1463
      5 C13        15.4850   24.9000   -3.1350 C.2       1 1B0         0.2335
      6 N15        16.2770   25.4890   -4.2120 N.am      1 1B0        -0.2210
      7 C17        17.7230   25.6170   -4.0020 C.ar      1 1B0         0.0688
      8 C22        18.5780   24.6240   -4.4660 C.ar      1 1B0        -0.0411
      9 C21        19.9560   24.7330   -4.2380 C.ar      1 1B0        -0.0755
     10 C20        20.4560   25.8310   -3.5570 C.ar      1 1B0        -0.0772
     11 C19        19.5980   26.8230   -3.0860 C.ar      1 1B0        -0.0755
     12 C18        18.2270   26.7210   -3.3060 C.ar      1 1B0        -0.0411
     13 C16        15.6150   25.9290   -5.4600 C.3       1 1B0         0.0445
     14 O14        14.3080   24.7780   -3.2760 O.2       1 1B0        -0.3819
     15 C6         16.3140   22.8980   -2.0330 C.3       1 1B0         0.0219
     16 C7         17.2480   22.4470   -0.9200 C.ar      1 1B0        -0.0385
     17 C12        18.6270   22.4770   -1.1120 C.ar      1 1B0        -0.0601
     18 C11        19.4680   22.0870   -0.0710 C.ar      1 1B0        -0.0686
     19 C10        18.9290   21.6960    1.1500 C.ar      1 1B0        -0.0687
     20 C9         17.5470   21.6870    1.3340 C.ar      1 1B0        -0.0686
     21 C8         16.7160   22.0730    0.3000 C.ar      1 1B0        -0.0601
     22 C25        14.2470   26.1540    1.0970 C.3       1 1B0         0.0481
     23 C1         14.8630   26.3020    2.4840 C.2       1 1B0        -0.0299
     24 C26        15.1780   27.4790    3.1760 C.ar      1 1B0        -0.0298
     25 C31        15.0510   28.8320    2.8300 C.ar      1 1B0        -0.0797
     26 C30        15.4360   29.8090    3.7260 C.ar      1 1B0        -0.0830
     27 C29        15.9450   29.4550    4.9750 C.ar      1 1B0        -0.0802
     28 C28        16.0790   28.1250    5.3060 C.ar      1 1B0        -0.0482
     29 C27        15.6740   27.1320    4.3990 C.ar      1 1B0         0.0561
     30 N3         15.6820   25.7350    4.4740 N.pl3     1 1B0        -0.2813
     31 C2         15.1770   25.2360    3.2760 C.2       1 1B0         0.0375
     32 C32        15.2180   23.7230    3.4280 C.3       1 1B0        -0.0119
     33 H          14.5143   24.0285   -0.5576 H         1 1B0         0.1885
     34 H          17.0890   24.8984   -1.6745 H         1 1B0         0.0829
     35 H          18.1805   23.7695   -5.0016 H         1 1B0         0.0502
     36 H          20.6287   23.9608   -4.5932 H         1 1B0         0.0577
     37 H          21.5233   25.9192   -3.3892 H         1 1B0         0.0487
     38 H          19.9983   27.6747   -2.5480 H         1 1B0         0.0577
     39 H          17.5560   27.4902   -2.9412 H         1 1B0         0.0502
     40 H          14.5345   25.7351   -5.3899 H         1 1B0         0.0550
     41 H          16.0327   25.3731   -6.3123 H         1 1B0         0.0550
     42 H          15.7855   27.0059   -5.6055 H         1 1B0         0.0550
     43 H          16.7628   22.6871   -3.0149 H         1 1B0         0.0474
     44 H          15.3477   22.3786   -1.9523 H         1 1B0         0.0474
     45 H          19.0416   22.7999   -2.0601 H         1 1B0         0.0557
     46 H          20.5426   22.0885   -0.2132 H         1 1B0         0.0599
     47 H          19.5846   21.3977    1.9601 H         1 1B0         0.0559
     48 H          17.1263   21.3785    2.2842 H         1 1B0         0.0599
     49 H          15.6419   22.0827    0.4460 H         1 1B0         0.0557
     50 H          13.5471   25.3056    1.1140 H         1 1B0         0.0555
     51 H          13.6986   27.0770    0.8577 H         1 1B0         0.0555
     52 H          14.6515   29.1100    1.8614 H         1 1B0         0.0510
     53 H          15.3423   30.8551    3.4577 H         1 1B0         0.0500
     54 H          16.2341   30.2237    5.6826 H         1 1B0         0.0502
     55 H          16.4969   27.8446    6.2661 H         1 1B0         0.0531
     56 H          16.0049   25.1738    5.2751 H         1 1B0         0.2218
     57 H          14.8308   23.2519    2.5125 H         1 1B0         0.0409
     58 H          14.5971   23.4236    4.2852 H         1 1B0         0.0409
     59 H          16.2558   23.3993    3.5961 H         1 1B0         0.0409
@<TRIPOS>BOND
     1    1    2 2  
     2    2    3 am 
     3    2   22 1  
     4    3    4 1  
     5    4    5 1  
     6    4   15 1  
     7    5    6 am 
     8    5   14 2  
     9    6    7 1  
    10    6   13 1  
    11    7    8 ar 
    12    7   12 ar 
    13    8    9 ar 
    14    9   10 ar 
    15   10   11 ar 
    16   11   12 ar 
    17   15   16 1  
    18   16   17 ar 
    19   16   21 ar 
    20   17   18 ar 
    21   18   19 ar 
    22   19   20 ar 
    23   20   21 ar 
    24   22   23 1  
    25   23   24 1  
    26   23   31 2  
    27   24   25 ar 
    28   24   29 ar 
    29   25   26 ar 
    30   26   27 ar 
    31   27   28 ar 
    32   28   29 ar 
    33   29   30 1  
    34   30   31 1  
    35   31   32 1  
    36    3   33 1  
    37    4   34 1  
    38    8   35 1  
    39    9   36 1  
    40   10   37 1  
    41   11   38 1  
    42   12   39 1  
    43   13   40 1  
    44   13   41 1  
    45   13   42 1  
    46   15   43 1  
    47   15   44 1  
    48   17   45 1  
    49   18   46 1  
    50   19   47 1  
    51   20   48 1  
    52   21   49 1  
    53   22   50 1  
    54   22   51 1  
    55   25   52 1  
    56   26   53 1  
    57   27   54 1  
    58   28   55 1  
    59   30   56 1  
    60   32   57 1  
    61   32   58 1  
    62   32   59 1  
@<TRIPOS>SUBSTRUCTURE
     1 1B0         1

