### 
### Created by X-TOOL on Mon Sep 10 21:13:20 2018
### 

@<TRIPOS>MOLECULE
4qnu_ligand
   53    55     1     0     0
SMALL
GAST_HUCK


@<TRIPOS>ATOM
      1 C          37.7910   72.6840    9.9840 C.2       1 GEK         0.0846
      2 N          36.5350   70.7190    9.0190 N.4       1 GEK         0.2328
      3 O          37.9800   73.5060   10.8850 O.co2     1 GEK        -0.5643
      4 N1         34.3350   61.3120   10.1680 N.pl3     1 GEK        -0.2291
      5 C2         33.9370   62.6900    9.8340 C.2       1 GEK         0.1843
      6 N3         34.2920   63.6350   10.9030 N.2       1 GEK        -0.1466
      7 C4         34.9110   63.2990   12.0260 C.2       1 GEK         0.2484
      8 C5         35.1520   62.0080   12.2740 C.2       1 GEK         0.1561
      9 C6         34.8430   61.0510   11.3710 C.cat     1 GEK         0.1564
     10 N6         34.9860   59.7890   11.7190 N.pl3     1 GEK        -0.3449
     11 N7         35.6010   61.9620   13.5190 N.2       1 GEK        -0.2220
     12 C8         35.7430   63.2110   13.9820 C.2       1 GEK         0.1686
     13 N9         35.3340   64.0580   13.0380 N.pl3     1 GEK        -0.1358
     14 CA         36.5790   71.7270   10.1150 C.3       1 GEK         0.0327
     15 CB         36.6170   71.0690   11.5130 C.3       1 GEK         0.0474
     16 SD         37.9580   69.6820   13.5510 S.3       1 GEK         0.0061
     17 CE         39.6980   69.5030   14.1440 C.3       1 GEK         0.1610
     18 CG         37.8710   70.1770   11.7750 C.3       1 GEK         0.1182
     19 CZ         40.5460   70.7550   13.9700 C.2       1 GEK         0.0854
     20 C1'        35.1460   65.5540   13.1370 C.3       1 GEK         0.2139
     21 C2'        35.0430   66.1030   14.5460 C.3       1 GEK         0.1401
     22 O2'        33.7340   65.8540   15.0940 O.3       1 GEK        -0.3835
     23 C3'        35.2000   67.5800   14.2910 C.3       1 GEK         0.1169
     24 O3'        34.0390   68.2420   13.8530 O.3       1 GEK        -0.3863
     25 C4'        36.1280   67.6430   13.1770 C.3       1 GEK         0.1352
     26 O4'        36.1960   66.3160   12.5710 O.3       1 GEK        -0.3332
     27 C5'        37.4430   67.9670   13.8590 C.3       1 GEK         0.1400
     28 OXT        38.5710   72.5560    9.0230 O.co2     1 GEK        -0.5643
     29 OZ1        39.9350   71.8370   14.1740 O.co2     1 GEK        -0.5649
     30 OZ2        41.7790   70.5790   13.6870 O.co2     1 GEK        -0.5649
     31 H1         35.7335   70.1207    9.1447 H         1 GEK         0.2010
     32 H2         37.3757   70.1632    9.0397 H         1 GEK         0.2010
     33 H3         36.4659   71.1909    8.1310 H         1 GEK         0.2010
     34 H4         34.2214   60.5566    9.4771 H         1 GEK         0.2420
     35 H5         33.4401   62.9745    8.9077 H         1 GEK         0.1960
     36 H6         35.3757   59.5503   12.6421 H         1 GEK         0.1753
     37 H7         34.7082   59.0406   11.0681 H         1 GEK         0.1753
     38 H8         36.1272   63.4872   14.9628 H         1 GEK         0.1740
     39 H9         35.6604   72.3281   10.0455 H         1 GEK         0.1026
     40 H10        35.7202   70.4413   11.6218 H         1 GEK         0.0385
     41 H11        36.5995   71.8677   12.2692 H         1 GEK         0.0385
     42 H12        40.1718   68.6842   13.5826 H         1 GEK         0.1015
     43 H13        39.6739   69.2482   15.2138 H         1 GEK         0.1015
     44 H14        38.7776   70.7420   11.5126 H         1 GEK         0.0844
     45 H15        37.8085   69.2735   11.1508 H         1 GEK         0.0844
     46 H16        34.2132   65.7856   12.6019 H         1 GEK         0.1014
     47 H17        35.8244   65.7025   15.2085 H         1 GEK         0.0677
     48 H18        33.0789   66.2758   14.5505 H         1 GEK         0.2101
     49 H19        35.5957   68.0782   15.1883 H         1 GEK         0.0649
     50 H20        33.7454   67.8568   13.0357 H         1 GEK         0.2100
     51 H21        35.8463   68.4041   12.4345 H         1 GEK         0.0671
     52 H22        37.3279   67.8189   14.9429 H         1 GEK         0.0868
     53 H23        38.2192   67.2879   13.4765 H         1 GEK         0.0868
@<TRIPOS>BOND
     1    1    3 ar 
     2   14    1 1  
     3    1   28 ar 
     4   14    2 1  
     5    5    4 1  
     6    9    4 ar 
     7    6    5 2  
     8    7    6 1  
     9    7    8 2  
    10   13    7 1  
    11    8    9 1  
    12   11    8 1  
    13    9   10 ar 
    14   12   11 2  
    15   13   12 1  
    16   20   13 1  
    17   15   14 1  
    18   18   15 1  
    19   16   17 1  
    20   16   18 1  
    21   27   16 1  
    22   17   19 1  
    23   19   29 ar 
    24   19   30 ar 
    25   20   21 1  
    26   26   20 1  
    27   21   22 1  
    28   23   21 1  
    29   23   24 1  
    30   25   23 1  
    31   25   26 1  
    32   25   27 1  
    33    2   31 1  
    34    2   32 1  
    35    2   33 1  
    36    4   34 1  
    37    5   35 1  
    38   10   36 1  
    39   10   37 1  
    40   12   38 1  
    41   14   39 1  
    42   15   40 1  
    43   15   41 1  
    44   17   42 1  
    45   17   43 1  
    46   18   44 1  
    47   18   45 1  
    48   20   46 1  
    49   21   47 1  
    50   22   48 1  
    51   23   49 1  
    52   24   50 1  
    53   25   51 1  
    54   27   52 1  
    55   27   53 1  
@<TRIPOS>SUBSTRUCTURE
     1 GEK         1

