### 
### Created by X-TOOL on Mon Sep 10 21:13:20 2018
### 

@<TRIPOS>MOLECULE
4qo4_ligand
   67    71     1     0     0
SMALL
GAST_HUCK


@<TRIPOS>ATOM
      1 CL1        13.7440  -10.9270   17.2960 Cl        1 35S        -0.0771
      2 C9         12.0590  -11.0270   17.3480 C.ar      1 35S         0.0330
      3 C24        11.4660  -11.9100   18.2470 C.ar      1 35S        -0.0545
      4 C25        10.0650  -11.9640   18.2920 C.ar      1 35S        -0.0573
      5 C27        11.3320  -10.1970   16.4860 C.ar      1 35S        -0.0545
      6 C28         9.9260  -10.2660   16.5440 C.ar      1 35S        -0.0573
      7 C6          9.2980  -11.1460   17.4480 C.ar      1 35S        -0.0149
      8 C7          7.8010  -11.1880   17.5400 C.3       1 35S         0.0935
      9 N2          7.1050  -12.4230   17.0360 N.am      1 35S        -0.2389
     10 C8          7.6330  -13.1030   15.8450 C.3       1 35S         0.0934
     11 C11         5.9560  -12.9110   17.6040 C.2       1 35S         0.2104
     12 O1          5.3230  -13.8140   17.0750 O.2       1 35S        -0.3436
     13 C12         5.4050  -12.3260   18.9080 C.3       1 35S         0.0626
     14 C13         5.8940  -13.1640   20.1070 C.3       1 35S         0.0125
     15 C14         5.1750  -12.7970   21.3800 C.2       1 35S         0.0343
     16 O2          5.3640  -11.8580   22.1150 O.co2     1 35S        -0.5692
     17 O3          4.2330  -13.7610   21.5540 O.co2     1 35S        -0.5692
     18 C15         5.7870  -10.8830   19.1160 C.3       1 35S        -0.0228
     19 C16         7.2560  -10.6140   18.8790 C.3       1 35S         0.0258
     20 C17         7.6190   -9.1620   19.1140 C.ar      1 35S        -0.0354
     21 C18         6.8660   -8.1170   18.5380 C.ar      1 35S        -0.0597
     22 C19         7.2350   -6.7590   18.7130 C.ar      1 35S        -0.0680
     23 C20         8.3630   -6.4270   19.4690 C.ar      1 35S        -0.0548
     24 C21         9.1060   -7.4680   20.0420 C.ar      1 35S         0.0338
     25 CL2        10.5020   -7.1120   20.9640 Cl        1 35S        -0.0725
     26 C22         8.7540   -8.8200   19.8820 C.ar      1 35S        -0.0460
     27 C10         7.7140  -14.6310   15.9090 C.3       1 35S        -0.0202
     28 C23         8.7820  -15.1270   16.8790 C.3       1 35S        -0.0611
     29 C26         3.8660  -12.2720   18.7670 C.3       1 35S        -0.0512
     30 C29         5.9070  -10.6870   13.5820 C.ar      1 35S         0.0281
     31 C30         5.5720  -11.4290   12.4410 C.ar      1 35S        -0.0423
     32 C31         5.9090  -12.7860   12.3950 C.ar      1 35S        -0.0591
     33 C4          6.5740  -13.4000   13.4710 C.ar      1 35S        -0.0409
     34 C5          6.8890  -12.5960   14.5960 C.ar      1 35S         0.0413
     35 N1          6.5520  -11.2830   14.6210 N.ar      1 35S        -0.3011
     36 C1          5.3330   -8.6170   14.9700 C.2       1 35S        -0.0583
     37 C2          6.5290   -8.2720   14.1540 C.2       1 35S        -0.0583
     38 C3          5.5210   -9.2220   13.6220 C.3       1 35S         0.0463
     39 H          12.0695  -12.5373   18.8931 H         1 35S         0.0606
     40 H           9.5728  -12.6403   18.9815 H         1 35S         0.0558
     41 H          11.8331   -9.5252   15.7985 H         1 35S         0.0606
     42 H           9.3263   -9.6411   15.8922 H         1 35S         0.0558
     43 H           7.4939  -10.4318   16.8026 H         1 35S         0.0752
     44 H           8.6751  -12.7652   15.7459 H         1 35S         0.0753
     45 H           6.9717  -12.9921   20.2451 H         1 35S         0.0422
     46 H           5.7169  -14.2283   19.8928 H         1 35S         0.0422
     47 H           5.5432  -10.6028   20.1514 H         1 35S         0.0285
     48 H           5.2018  -10.2630   18.4209 H         1 35S         0.0285
     49 H           7.7832  -11.1760   19.6640 H         1 35S         0.0505
     50 H           5.9877   -8.3571   17.9498 H         1 35S         0.0558
     51 H           6.6399   -5.9751   18.2586 H         1 35S         0.0599
     52 H           8.6551   -5.3924   19.6083 H         1 35S         0.0565
     53 H           9.3512   -9.5965   20.3461 H         1 35S         0.0562
     54 H           7.9475  -15.0129   14.9042 H         1 35S         0.0310
     55 H           6.7376  -15.0214   16.2319 H         1 35S         0.0310
     56 H           8.7926  -16.2269   16.8816 H         1 35S         0.0232
     57 H           8.5568  -14.7602   17.8913 H         1 35S         0.0232
     58 H           9.7667  -14.7516   16.5635 H         1 35S         0.0232
     59 H           3.4764  -13.2885   18.6089 H         1 35S         0.0223
     60 H           3.5984  -11.6391   17.9080 H         1 35S         0.0223
     61 H           3.4284  -11.8501   19.6837 H         1 35S         0.0223
     62 H           5.0606  -10.9594   11.6085 H         1 35S         0.0569
     63 H           5.6543  -13.3714   11.5189 H         1 35S         0.0688
     64 H           6.8368  -14.4513   13.4417 H         1 35S         0.0566
     65 H           4.7491   -8.5075   15.8827 H         1 35S         0.0635
     66 H           7.4621   -7.7233   14.0346 H         1 35S         0.0635
     67 H           4.8718   -8.9553   12.7750 H         1 35S         0.0619
@<TRIPOS>BOND
     1    2    1 1  
     2    3    2 ar 
     3    5    2 ar 
     4    4    3 ar 
     5    7    4 ar 
     6    6    5 ar 
     7    7    6 ar 
     8    8    7 1  
     9    9    8 1  
    10    8   19 1  
    11   10    9 1  
    12    9   11 am 
    13   10   27 1  
    14   34   10 1  
    15   11   12 2  
    16   11   13 1  
    17   13   14 1  
    18   13   18 1  
    19   13   29 1  
    20   14   15 1  
    21   15   16 ar 
    22   15   17 ar 
    23   19   18 1  
    24   19   20 1  
    25   20   21 ar 
    26   20   26 ar 
    27   21   22 ar 
    28   22   23 ar 
    29   24   23 ar 
    30   24   25 1  
    31   26   24 ar 
    32   27   28 1  
    33   30   31 ar 
    34   30   35 ar 
    35   38   30 1  
    36   31   32 ar 
    37   32   33 ar 
    38   34   33 ar 
    39   35   34 ar 
    40   36   37 2  
    41   36   38 1  
    42   37   38 1  
    43    3   39 1  
    44    4   40 1  
    45    5   41 1  
    46    6   42 1  
    47    8   43 1  
    48   10   44 1  
    49   14   45 1  
    50   14   46 1  
    51   18   47 1  
    52   18   48 1  
    53   19   49 1  
    54   21   50 1  
    55   22   51 1  
    56   23   52 1  
    57   26   53 1  
    58   27   54 1  
    59   27   55 1  
    60   28   56 1  
    61   28   57 1  
    62   28   58 1  
    63   29   59 1  
    64   29   60 1  
    65   29   61 1  
    66   31   62 1  
    67   32   63 1  
    68   33   64 1  
    69   36   65 1  
    70   37   66 1  
    71   38   67 1  
@<TRIPOS>SUBSTRUCTURE
     1 35S         1

