### 
### Created by X-TOOL on Mon Sep 10 21:13:21 2018
### 

@<TRIPOS>MOLECULE
4qo9_ligand
   66    70     1     0     0
SMALL
GAST_HUCK


@<TRIPOS>ATOM
      1 N1        -10.1220    5.7430  -13.7150 N.am      1 627        -0.2534
      2 N2        -12.5590    6.1570  -11.1790 N.pl3     1 627        -0.2433
      3 C3        -10.5490    6.9970  -10.3700 C.2       1 627         0.1027
      4 N4        -11.9310    6.7280  -10.1520 N.2       1 627        -0.2404
      5 N5         -9.8150    7.5130   -9.5050 N.am      1 627        -0.2391
      6 C6         -8.4920    7.6820   -9.4990 C.2       1 627         0.2181
      7 C7         -7.7490    8.2690   -8.4570 C.ar      1 627         0.0412
      8 O8         -7.7930    7.3050  -10.4670 O.2       1 627        -0.3816
      9 C9         -8.3220    9.2570   -7.6190 C.ar      1 627        -0.0531
     10 C10        -7.5670    9.8460   -6.5830 C.ar      1 627        -0.0381
     11 C11        -5.6560    8.4680   -7.1920 C.ar      1 627        -0.0381
     12 C12        -6.4060    7.8840   -8.2260 C.ar      1 627        -0.0531
     13 C13       -11.7740    6.0190  -12.0410 C.2       1 627         0.0786
     14 C14       -10.3520    6.5990  -11.5170 C.2       1 627         0.0146
     15 C15        -9.4060    6.4540  -12.5310 C.3       1 627         0.0514
     16 C16       -11.6270    5.5430  -13.3730 C.3       1 627         0.0897
     17 N17        -5.5270   10.0640   -5.3110 N.pl3     1 627        -0.2958
     18 C18        -4.4930    9.3700   -4.5740 C.3       1 627         0.0680
     19 C19        -5.0640    8.8540   -3.1960 C.3       1 627        -0.0118
     20 N20        -5.7950    9.9420   -2.4390 N.4       1 627         0.2359
     21 C21        -6.8070   10.6280   -3.2930 C.3       1 627        -0.0118
     22 C22        -6.1350   11.1730   -4.5880 C.3       1 627         0.0680
     23 C23        -6.4250    9.4470   -1.1510 C.3       1 627        -0.0430
     24 C24        -6.2300    9.4700   -6.3420 C.ar      1 627         0.0460
     25 C25        -9.4160    5.4060  -15.1720 C.2       1 627         0.2222
     26 O26       -10.1520    4.8740  -16.0450 O.2       1 627        -0.3907
     27 C27        -7.2450    4.7680  -14.7270 C.ar      1 627         0.0044
     28 C28        -6.3380    5.2210  -13.8440 C.ar      1 627        -0.0555
     29 C29        -7.3220    3.3240  -14.9570 C.ar      1 627        -0.0555
     30 C31        -5.4830    4.3210  -13.1570 C.ar      1 627        -0.0680
     31 C33        -6.4940    2.4560  -14.3010 C.ar      1 627        -0.0680
     32 C20        -8.1490    5.6690  -15.4410 C.3       1 627         0.1804
     33 C35        -5.5710    2.9290  -13.3900 C.ar      1 627        -0.0684
     34 C36        -6.6260    6.3340  -17.2680 C.3       1 627         0.0424
     35 O34        -7.8950    5.7010  -16.8620 O.3       1 627        -0.3473
     36 H1        -13.5522    5.8860  -11.2109 H         1 627         0.2389
     37 H2        -10.2898    7.8515   -8.6926 H         1 627         0.2188
     38 H3         -9.3500    9.5633   -7.7752 H         1 627         0.0636
     39 H4         -8.0251   10.6044   -5.9585 H         1 627         0.0530
     40 H5         -4.6296    8.1571   -7.0345 H         1 627         0.0530
     41 H6         -5.9506    7.1283   -8.8557 H         1 627         0.0636
     42 H7         -9.0372    7.4404  -12.8487 H         1 627         0.0576
     43 H8         -8.5621    5.8436  -12.1771 H         1 627         0.0576
     44 H9        -11.8982    4.4787  -13.4342 H         1 627         0.0708
     45 H10       -12.2593    6.1227  -14.0616 H         1 627         0.0708
     46 H11        -3.6556   10.0581   -4.3862 H         1 627         0.0569
     47 H12        -4.1379    8.5127   -5.1647 H         1 627         0.0569
     48 H13        -4.2283    8.4927   -2.5787 H         1 627         0.0834
     49 H14        -5.7620    8.0260   -3.3890 H         1 627         0.0834
     50 H15        -5.1053   10.6311   -2.1828 H         1 627         0.2032
     51 H16        -7.2484   11.4652   -2.7325 H         1 627         0.0834
     52 H17        -7.5968    9.9129   -3.5665 H         1 627         0.0834
     53 H18        -6.8937   11.6547   -5.2222 H         1 627         0.0569
     54 H19        -5.3608   11.9072   -4.3205 H         1 627         0.0569
     55 H20        -5.6613    8.9455   -0.5384 H         1 627         0.0778
     56 H21        -7.2309    8.7363   -1.3865 H         1 627         0.0778
     57 H22        -6.8396   10.3002   -0.5940 H         1 627         0.0778
     58 H23        -6.2591    6.2855  -13.6549 H         1 627         0.0562
     59 H24        -8.0493    2.9358  -15.6608 H         1 627         0.0562
     60 H25        -4.7571    4.7032  -12.4484 H         1 627         0.0600
     61 H26        -6.5626    1.3921  -14.4971 H         1 627         0.0600
     62 H27        -7.9476    6.6821  -15.0628 H         1 627         0.1000
     63 H28        -4.9216    2.2418  -12.8597 H         1 627         0.0561
     64 H29        -6.5354    6.3038  -18.3638 H         1 627         0.0528
     65 H30        -5.7837    5.7903  -16.8153 H         1 627         0.0528
     66 H31        -6.6126    7.3799  -16.9277 H         1 627         0.0528
@<TRIPOS>BOND
     1    1   15 1  
     2    1   16 1  
     3   25    1 am 
     4    2    4 1  
     5   13    2 1  
     6    3    4 2  
     7    3    5 1  
     8   14    3 1  
     9    5    6 am 
    10    6    7 1  
    11    6    8 2  
    12    7    9 ar 
    13    7   12 ar 
    14    9   10 ar 
    15   10   24 ar 
    16   12   11 ar 
    17   11   24 ar 
    18   13   14 2  
    19   16   13 1  
    20   15   14 1  
    21   17   18 1  
    22   17   22 1  
    23   24   17 1  
    24   18   19 1  
    25   19   20 1  
    26   21   20 1  
    27   20   23 1  
    28   22   21 1  
    29   25   26 2  
    30   32   25 1  
    31   27   28 ar 
    32   27   29 ar 
    33   27   32 1  
    34   28   30 ar 
    35   29   31 ar 
    36   30   33 ar 
    37   31   33 ar 
    38   32   35 1  
    39   35   34 1  
    40    2   36 1  
    41    5   37 1  
    42    9   38 1  
    43   10   39 1  
    44   11   40 1  
    45   12   41 1  
    46   15   42 1  
    47   15   43 1  
    48   16   44 1  
    49   16   45 1  
    50   18   46 1  
    51   18   47 1  
    52   19   48 1  
    53   19   49 1  
    54   20   50 1  
    55   21   51 1  
    56   21   52 1  
    57   22   53 1  
    58   22   54 1  
    59   23   55 1  
    60   23   56 1  
    61   23   57 1  
    62   28   58 1  
    63   29   59 1  
    64   30   60 1  
    65   31   61 1  
    66   32   62 1  
    67   33   63 1  
    68   34   64 1  
    69   34   65 1  
    70   34   66 1  
@<TRIPOS>SUBSTRUCTURE
     1 627         1

