### 
### Created by X-TOOL on Mon Sep 10 21:13:25 2018
### 

@<TRIPOS>MOLECULE
4qoc_ligand
   70    74     1     0     0
SMALL
GAST_HUCK


@<TRIPOS>ATOM
      1 C17        29.1540   -2.9120  -14.5380 C.ar      1 35T        -0.0460
      2 C16        30.2030   -3.8880  -14.4540 C.ar      1 35T         0.0338
      3 CL2        29.9860   -5.2320  -13.4180 Cl        1 35T        -0.0725
      4 C15        31.4090   -3.7440  -15.2170 C.ar      1 35T        -0.0548
      5 C14        31.6380   -2.6330  -16.1020 C.ar      1 35T        -0.0680
      6 C13        30.5610   -1.6520  -16.1750 C.ar      1 35T        -0.0597
      7 C6         29.3270   -1.7740  -15.4120 C.ar      1 35T        -0.0354
      8 C19        28.1880   -0.7830  -15.5150 C.3       1 35T         0.0256
      9 C22        28.6540    0.6680  -15.3850 C.3       1 35T        -0.0228
     10 C4         27.4830    1.6420  -15.1790 C.3       1 35T         0.0624
     11 C21        26.9610    1.7410  -13.7560 C.3       1 35T         0.0125
     12 C23        27.9450    2.3450  -12.7390 C.2       1 35T         0.0343
     13 O3         28.9220    1.5150  -12.3460 O.co2     1 35T        -0.5692
     14 O2         27.8750    3.4630  -12.3010 O.co2     1 35T        -0.5692
     15 C24        27.8660    3.0350  -15.6480 C.3       1 35T        -0.0512
     16 C5         26.2560    1.3230  -16.0560 C.2       1 35T         0.2083
     17 O1         25.2930    2.0980  -15.9900 O.2       1 35T        -0.3438
     18 N1         26.3060    0.2030  -16.8660 N.am      1 35T        -0.2499
     19 C18        25.3460    0.0870  -17.9650 C.3       1 35T         0.0784
     20 C20        25.4410    1.3320  -18.8430 C.3       1 35T         0.1088
     21 C29        27.2720   -0.9410  -16.7710 C.3       1 35T         0.0912
     22 C7         26.6970   -2.2890  -16.8590 C.ar      1 35T        -0.0151
     23 C8         25.7400   -2.7030  -15.8660 C.ar      1 35T        -0.0573
     24 C9         25.2320   -4.0280  -15.9500 C.ar      1 35T        -0.0545
     25 C10        25.7440   -4.8150  -17.0360 C.ar      1 35T         0.0330
     26 CL1        25.1500   -6.3890  -17.1720 Cl        1 35T        -0.0771
     27 C11        26.6950   -4.4190  -18.0280 C.ar      1 35T        -0.0545
     28 C12        27.1960   -3.0940  -17.9430 C.ar      1 35T        -0.0573
     29 S1         26.9020    1.3720  -19.8450 S.o2      1 35T         0.0436
     30 O4         27.0720    0.2300  -20.6880 O.2       1 35T        -0.1552
     31 O5         27.9870    1.7050  -18.9800 O.2       1 35T        -0.1552
     32 N2         26.7830    2.7320  -20.9420 N.am      1 35T        -0.2384
     33 C25        27.1490    4.0370  -20.3000 C.3       1 35T         0.0293
     34 C26        26.4540    5.1280  -21.0800 C.3       1 35T        -0.0344
     35 C27        25.3680    4.4360  -21.8690 C.3       1 35T        -0.0344
     36 C28        25.6470    2.9230  -21.8640 C.3       1 35T         0.0293
     37 C1         22.9160   -0.2780  -18.5860 C.2       1 35T        -0.0782
     38 C2         23.9340   -0.0290  -17.3970 C.3       1 35T         0.0203
     39 C3         23.1900   -1.2870  -18.0050 C.2       1 35T        -0.0782
     40 H1         28.2470   -3.0265  -13.9555 H         1 35T         0.0562
     41 H2         32.1782   -4.5021  -15.1232 H         1 35T         0.0565
     42 H3         32.5513   -2.5316  -16.6770 H         1 35T         0.0599
     43 H4         30.6848   -0.7942  -16.8261 H         1 35T         0.0558
     44 H5         27.5454   -0.9839  -14.6451 H         1 35T         0.0505
     45 H6         29.1913    0.9503  -16.3024 H         1 35T         0.0285
     46 H7         29.3336    0.7452  -14.5235 H         1 35T         0.0285
     47 H8         26.7009    0.7273  -13.4174 H         1 35T         0.0422
     48 H9         26.0566    2.3670  -13.7678 H         1 35T         0.0422
     49 H10        28.2470    2.9830  -16.6786 H         1 35T         0.0223
     50 H11        28.6466    3.4422  -14.9886 H         1 35T         0.0223
     51 H12        26.9818    3.6886  -15.6165 H         1 35T         0.0223
     52 H13        25.5762   -0.8063  -18.5642 H         1 35T         0.0588
     53 H14        25.4392    2.2191  -18.1926 H         1 35T         0.0542
     54 H15        24.5628    1.3606  -19.5047 H         1 35T         0.0542
     55 H16        27.9278   -0.8469  -17.6491 H         1 35T         0.0750
     56 H17        25.4181   -2.0277  -15.0816 H         1 35T         0.0558
     57 H18        24.5082   -4.4171  -15.2431 H         1 35T         0.0606
     58 H19        27.0179   -5.0989  -18.8081 H         1 35T         0.0606
     59 H20        27.9158   -2.7088  -18.6561 H         1 35T         0.0558
     60 H21        28.2387    4.1828  -20.3369 H         1 35T         0.0478
     61 H22        26.8126    4.0495  -19.2528 H         1 35T         0.0478
     62 H23        27.1627    5.6262  -21.7579 H         1 35T         0.0281
     63 H24        26.0174    5.8704  -20.3958 H         1 35T         0.0281
     64 H25        25.3664    4.8092  -22.9037 H         1 35T         0.0281
     65 H26        24.3900    4.6341  -21.4062 H         1 35T         0.0281
     66 H27        24.7652    2.3712  -21.5063 H         1 35T         0.0478
     67 H28        25.9105    2.5779  -22.8747 H         1 35T         0.0478
     68 H29        22.3446    0.1721  -19.3964 H         1 35T         0.0576
     69 H30        23.7509    0.4616  -16.4297 H         1 35T         0.0409
     70 H31        23.0318   -2.3624  -17.9383 H         1 35T         0.0576
@<TRIPOS>BOND
     1    1    2 ar 
     2    1    7 ar 
     3    2    3 1  
     4    2    4 ar 
     5    4    5 ar 
     6    5    6 ar 
     7    6    7 ar 
     8    7    8 1  
     9    8    9 1  
    10    8   21 1  
    11    9   10 1  
    12   10   11 1  
    13   10   15 1  
    14   10   16 1  
    15   11   12 1  
    16   12   13 ar 
    17   12   14 ar 
    18   16   17 2  
    19   16   18 am 
    20   18   19 1  
    21   18   21 1  
    22   19   20 1  
    23   19   38 1  
    24   20   29 1  
    25   21   22 1  
    26   22   23 ar 
    27   22   28 ar 
    28   23   24 ar 
    29   24   25 ar 
    30   25   26 1  
    31   25   27 ar 
    32   27   28 ar 
    33   29   30 2  
    34   29   31 2  
    35   29   32 am 
    36   32   33 1  
    37   32   36 1  
    38   33   34 1  
    39   34   35 1  
    40   35   36 1  
    41   38   37 1  
    42   37   39 2  
    43   38   39 1  
    44    1   40 1  
    45    4   41 1  
    46    5   42 1  
    47    6   43 1  
    48    8   44 1  
    49    9   45 1  
    50    9   46 1  
    51   11   47 1  
    52   11   48 1  
    53   15   49 1  
    54   15   50 1  
    55   15   51 1  
    56   19   52 1  
    57   20   53 1  
    58   20   54 1  
    59   21   55 1  
    60   23   56 1  
    61   24   57 1  
    62   27   58 1  
    63   28   59 1  
    64   33   60 1  
    65   33   61 1  
    66   34   62 1  
    67   34   63 1  
    68   35   64 1  
    69   35   65 1  
    70   36   66 1  
    71   36   67 1  
    72   37   68 1  
    73   38   69 1  
    74   39   70 1  
@<TRIPOS>SUBSTRUCTURE
     1 35T         1

