### 
### Created by X-TOOL on Mon Sep 10 21:13:24 2018
### 

@<TRIPOS>MOLECULE
4qp1_ligand
   28    30     1     0     0
SMALL
GAST_HUCK


@<TRIPOS>ATOM
      1 N1        -16.7790  -37.1570  -27.6600 N.ar      1 EMU        -0.2689
      2 C2        -17.5160  -36.8520  -28.7120 C.ar      1 EMU         0.0502
      3 N3        -17.8420  -35.6140  -29.0090 N.ar      1 EMU        -0.2948
      4 C4        -17.4310  -34.6020  -28.2410 C.ar      1 EMU         0.1017
      5 C5        -16.6480  -34.8830  -27.1130 C.ar      1 EMU         0.1546
      6 C6        -16.3310  -36.2110  -26.8390 C.ar      1 EMU         0.1568
      7 C9        -14.5480  -37.5930  -25.8440 C.3       1 EMU         0.0625
      8 N7        -16.3740  -33.6690  -26.5190 N.pl3     1 EMU        -0.2409
      9 C8        -16.9710  -32.7180  -27.2690 C.2       1 EMU         0.1112
     10 N9        -17.5900  -33.2680  -28.2760 N.2       1 EMU        -0.2857
     11 C10       -14.8680  -38.6940  -24.8680 C.ar      1 EMU        -0.0208
     12 C11       -15.7080  -39.7250  -25.2460 C.ar      1 EMU        -0.0584
     13 C12       -16.0020  -40.7370  -24.3530 C.ar      1 EMU        -0.0685
     14 C13       -15.4560  -40.7170  -23.0820 C.ar      1 EMU        -0.0687
     15 C14       -14.6150  -39.6860  -22.7040 C.ar      1 EMU        -0.0685
     16 C15       -14.3210  -38.6740  -23.5980 C.ar      1 EMU        -0.0584
     17 N10       -15.5510  -36.5300  -25.7390 N.pl3     1 EMU        -0.2898
     18 H1        -17.8651  -37.6522  -29.3545 H         1 EMU         0.0974
     19 H2        -14.5516  -37.9988  -26.8664 H         1 EMU         0.0687
     20 H3        -13.5538  -37.1808  -25.6166 H         1 EMU         0.0687
     21 H4        -15.8190  -33.5165  -25.6648 H         1 EMU         0.2376
     22 H5        -16.9400  -31.6491  -27.0631 H         1 EMU         0.1402
     23 H6        -16.1354  -39.7392  -26.2421 H         1 EMU         0.0557
     24 H7        -16.6601  -41.5463  -24.6479 H         1 EMU         0.0599
     25 H8        -15.6877  -41.5108  -22.3811 H         1 EMU         0.0559
     26 H9        -14.1872  -39.6718  -21.7081 H         1 EMU         0.0599
     27 H10       -13.6621  -37.8650  -23.3040 H         1 EMU         0.0557
     28 H11       -15.6757  -36.0222  -24.8516 H         1 EMU         0.1867
@<TRIPOS>BOND
     1    1    2 ar 
     2    6    1 ar 
     3    2    3 ar 
     4    4    3 ar 
     5    5    4 ar 
     6    4   10 1  
     7    6    5 ar 
     8    5    8 1  
     9   17    6 1  
    10    7   11 1  
    11    7   17 1  
    12    8    9 1  
    13    9   10 2  
    14   11   12 ar 
    15   11   16 ar 
    16   12   13 ar 
    17   13   14 ar 
    18   14   15 ar 
    19   15   16 ar 
    20    2   18 1  
    21    7   19 1  
    22    7   20 1  
    23    8   21 1  
    24    9   22 1  
    25   12   23 1  
    26   13   24 1  
    27   14   25 1  
    28   15   26 1  
    29   16   27 1  
    30   17   28 1  
@<TRIPOS>SUBSTRUCTURE
     1 EMU         1

