### 
### Created by X-TOOL on Mon Sep 10 21:13:23 2018
### 

@<TRIPOS>MOLECULE
4qp2_ligand
   16    17     1     0     0
SMALL
GAST_HUCK


@<TRIPOS>ATOM
      1 C4        -17.6670  -36.2520  -28.4660 C.ar      1 36R         0.0274
      2 C5        -17.8780  -37.5810  -28.8270 C.ar      1 36R        -0.0522
      3 C6        -17.5390  -38.6050  -27.9580 C.ar      1 36R         0.0226
      4 C1        -16.9950  -38.3260  -26.7080 C.ar      1 36R        -0.0624
      5 C2        -16.7840  -37.0150  -26.3280 C.ar      1 36R        -0.0323
      6 C3        -17.1110  -35.9810  -27.1950 C.ar      1 36R         0.1389
      7 CL7       -17.7950  -40.2550  -28.4440 Cl        1 36R        -0.0813
      8 N8        -17.8800  -35.0490  -29.0880 N.2       1 36R        -0.2973
      9 C9        -17.4690  -34.1070  -28.2510 C.2       1 36R         0.2740
     10 O10       -17.0120  -34.6370  -27.1000 O.3       1 36R        -0.1976
     11 N11       -17.4990  -32.7570  -28.4580 N.pl3     1 36R        -0.2777
     12 H1        -18.3099  -37.8150  -29.7933 H         1 36R         0.0529
     13 H2        -16.7375  -39.1353  -26.0344 H         1 36R         0.0526
     14 H3        -16.3635  -36.7935  -25.3537 H         1 36R         0.0551
     15 H4        -17.8540  -32.3803  -29.3485 H         1 36R         0.1886
     16 H5        -17.1667  -32.1159  -27.7236 H         1 36R         0.1886
@<TRIPOS>BOND
     1    1    2 ar 
     2    1    6 ar 
     3    1    8 1  
     4    2    3 ar 
     5    3    4 ar 
     6    3    7 1  
     7    4    5 ar 
     8    5    6 ar 
     9    6   10 1  
    10    8    9 2  
    11    9   10 1  
    12    9   11 1  
    13    2   12 1  
    14    4   13 1  
    15    5   14 1  
    16   11   15 1  
    17   11   16 1  
@<TRIPOS>SUBSTRUCTURE
     1 36R         1

