### 
### Created by X-TOOL on Mon Sep 10 21:13:25 2018
### 

@<TRIPOS>MOLECULE
4qp6_ligand
   14    15     1     0     0
SMALL
GAST_HUCK


@<TRIPOS>ATOM
      1 N3        -17.4120  -33.3110  -28.4420 N.pl3     1 36N        -0.2557
      2 C5        -17.4250  -34.6790  -28.3190 C.ar      1 36N         0.1648
      3 C6        -16.8210  -34.9930  -27.0810 C.ar      1 36N         0.0684
      4 C8        -17.1490  -37.2220  -27.4880 C.ar      1 36N         0.0210
      5 C1        -16.4470  -33.7110  -26.4790 C.2       1 36N        -0.0377
      6 C2        -16.8280  -32.7510  -27.3380 C.2       1 36N         0.0351
      7 N7        -16.7000  -36.2620  -26.7020 N.ar      1 36N        -0.2951
      8 C9        -17.7440  -36.9140  -28.7050 C.ar      1 36N         0.0248
      9 N10       -17.8690  -35.6580  -29.0960 N.ar      1 36N        -0.2609
     10 H1        -17.7858  -32.7852  -29.2449 H         1 36N         0.2341
     11 H2        -17.0530  -38.2575  -27.1822 H         1 36N         0.0828
     12 H3        -15.9544  -33.5643  -25.5189 H         1 36N         0.0330
     13 H4        -16.6920  -31.6823  -27.1790 H         1 36N         0.1022
     14 H5        -18.1096  -37.7124  -29.3405 H         1 36N         0.0831
@<TRIPOS>BOND
     1    1    2 1  
     2    1    6 1  
     3    2    3 ar 
     4    2    9 ar 
     5    3    5 1  
     6    3    7 ar 
     7    7    4 ar 
     8    4    8 ar 
     9    5    6 2  
    10    8    9 ar 
    11    1   10 1  
    12    4   11 1  
    13    5   12 1  
    14    6   13 1  
    15    8   14 1  
@<TRIPOS>SUBSTRUCTURE
     1 36N         1

