### 
### Created by X-TOOL on Mon Sep 10 21:13:24 2018
### 

@<TRIPOS>MOLECULE
4qp7_ligand
   21    23     1     0     0
SMALL
GAST_HUCK


@<TRIPOS>ATOM
      1 N3         12.4860   -8.7890    0.9000 N.pl3     1 363        -0.2583
      2 C5         13.7010   -9.2550    0.4550 C.ar      1 363         0.1593
      3 C6         14.2880   -9.9820    1.5130 C.ar      1 363         0.0580
      4 C8         16.1170  -10.4340    0.1910 C.ar      1 363         0.0431
      5 C1         13.3310   -9.9140    2.6190 C.2       1 363        -0.0406
      6 C2         12.2800   -9.1910    2.1900 C.2       1 363         0.0337
      7 N7         15.4830  -10.5480    1.3550 N.ar      1 363        -0.3044
      8 C9         15.5310   -9.7060   -0.8480 C.ar      1 363         0.0245
      9 N10        14.3490   -9.1420   -0.6970 N.ar      1 363        -0.2653
     10 C11        17.4580  -11.0410   -0.0120 C.2       1 363         0.0192
     11 C12        18.4080  -11.2180    0.9500 C.2       1 363         0.0090
     12 N13        19.4830  -11.7790    0.3650 N.2       1 363        -0.2141
     13 N15        19.2050  -11.9520   -0.9980 N.pl3     1 363        -0.2140
     14 C16        17.9980  -11.5040   -1.2300 C.2       1 363         0.0661
     15 H1         11.8297   -8.2220    0.3444 H         1 363         0.2332
     16 H2         13.4477  -10.3639    3.6038 H         1 363         0.0323
     17 H3         11.3962   -8.9604    2.7830 H         1 363         0.1017
     18 H4         16.0556   -9.6036   -1.7911 H         1 363         0.0802
     19 H5         18.3141  -10.9532    2.0021 H         1 363         0.0684
     20 H6         19.8415  -12.3614   -1.6966 H         1 363         0.2611
     21 H7         17.4967  -11.4908   -2.1967 H         1 363         0.1070
@<TRIPOS>BOND
     1    1    2 1  
     2    1    6 1  
     3    2    3 ar 
     4    2    9 ar 
     5    3    5 1  
     6    3    7 ar 
     7    7    4 ar 
     8    4    8 ar 
     9    4   10 1  
    10    5    6 2  
    11    8    9 ar 
    12   10   11 1  
    13   10   14 2  
    14   11   12 2  
    15   12   13 1  
    16   13   14 1  
    17    1   15 1  
    18    5   16 1  
    19    6   17 1  
    20    8   18 1  
    21   11   19 1  
    22   13   20 1  
    23   14   21 1  
@<TRIPOS>SUBSTRUCTURE
     1 363         1

