### 
### Created by X-TOOL on Mon Sep 10 21:13:24 2018
### 

@<TRIPOS>MOLECULE
4qp8_ligand
   30    33     1     0     0
SMALL
GAST_HUCK


@<TRIPOS>ATOM
      1 C4         35.4140  -45.5110   37.6180 C.ar      1 362         0.0088
      2 C6         36.0880  -45.3780   35.4180 C.ar      1 362         0.0043
      3 C7         36.5340  -44.2220   39.4350 C.2       1 362         0.0186
      4 C8         37.5860  -43.5970   40.0180 C.2       1 362         0.0529
      5 C15        34.1710  -44.4580   42.7960 C.ar      1 362         0.0254
      6 C17        32.2650  -45.6060   41.6440 C.2       1 362         0.0196
      7 C22        31.6030  -46.1900   40.5450 C.2       1 362         0.0090
      8 C1         37.0940  -44.4830   35.7280 C.ar      1 362        -0.0410
      9 C2         37.2630  -44.0860   37.0430 C.ar      1 362        -0.0448
     10 C3         36.4080  -44.6180   38.0130 C.ar      1 362        -0.0092
     11 N5         35.2910  -45.8580   36.3540 N.ar      1 362        -0.3043
     12 N9         37.3190  -43.3910   41.3390 N.pl3     1 362        -0.2511
     13 C11        36.0730  -43.8770   41.6600 C.ar      1 362         0.1646
     14 C12        35.5220  -44.4170   40.4830 C.ar      1 362         0.0732
     15 N13        34.3100  -44.9620   40.4980 N.ar      1 362        -0.3007
     16 C14        33.6200  -44.9960   41.6290 C.ar      1 362         0.0446
     17 N16        35.3720  -43.9160   42.7870 N.ar      1 362        -0.2636
     18 C18        31.4320  -45.7060   42.7220 C.2       1 362         0.0662
     19 N19        30.3060  -46.3230   42.3120 N.pl3     1 362        -0.2139
     20 N21        30.4350  -46.6150   40.9490 N.2       1 362        -0.2140
     21 H1         34.7367  -45.9232   38.3572 H         1 362         0.0772
     22 H2         35.9512  -45.6910   34.3892 H         1 362         0.0766
     23 H3         38.5034  -43.3044   39.5094 H         1 362         0.1103
     24 H4         33.6034  -44.4871   43.7191 H         1 362         0.0808
     25 H5         31.9971  -46.2728   39.5332 H         1 362         0.0684
     26 H6         37.7431  -44.0964   34.9506 H         1 362         0.0690
     27 H7         38.0393  -43.3798   37.3143 H         1 362         0.0681
     28 H8         37.9605  -42.9352   42.0035 H         1 362         0.2371
     29 H9         31.6401  -45.3513   43.7304 H         1 362         0.1070
     30 H10        29.4899  -46.5422   42.9010 H         1 362         0.2611
@<TRIPOS>BOND
     1   10    1 ar 
     2    1   11 ar 
     3    8    2 ar 
     4   11    2 ar 
     5    3    4 2  
     6    3   10 1  
     7   14    3 1  
     8   12    4 1  
     9    5   16 ar 
    10   17    5 ar 
    11    6    7 1  
    12   16    6 1  
    13    6   18 2  
    14    7   20 2  
    15    9    8 ar 
    16   10    9 ar 
    17   13   12 1  
    18   13   14 ar 
    19   13   17 ar 
    20   14   15 ar 
    21   15   16 ar 
    22   18   19 1  
    23   19   20 1  
    24    1   21 1  
    25    2   22 1  
    26    4   23 1  
    27    5   24 1  
    28    7   25 1  
    29    8   26 1  
    30    9   27 1  
    31   12   28 1  
    32   18   29 1  
    33   19   30 1  
@<TRIPOS>SUBSTRUCTURE
     1 362         1

