### 
### Created by X-TOOL on Mon Sep 10 21:13:23 2018
### 

@<TRIPOS>MOLECULE
4qp9_ligand
   39    42     1     0     0
SMALL
GAST_HUCK


@<TRIPOS>ATOM
      1 C5          1.4890   10.7310   15.7910 C.2       1 35X         0.0510
      2 C6          1.2730   10.1530   14.5690 C.2       1 35X        -0.0187
      3 C7          2.4930   10.1630   13.8670 C.2       1 35X        -0.0013
      4 C10        -0.2000    8.8190   12.9730 C.2       1 35X         0.0378
      5 C13        -2.2170    8.9840   13.9300 C.ar      1 35X         0.1661
      6 C17        -3.9070    9.5380   15.3780 C.ar      1 35X         0.0350
      7 C20        -2.7290   11.1320   18.5050 C.ar      1 35X        -0.0243
      8 C21        -3.2850   11.7390   19.6180 C.ar      1 35X         0.0119
      9 C24        -4.8720   11.3080   17.4480 C.ar      1 35X        -0.0243
     10 C1          4.8560   11.2550   19.0140 C.3       1 35X        -0.0626
     11 C2          4.0200   10.6400   17.8740 C.3       1 35X        -0.0261
     12 C3          3.4680   11.7460   16.9640 C.3       1 35X         0.0698
     13 N4          2.7930   11.0900   15.8400 N.pl3     1 35X        -0.2101
     14 N8          3.3930   10.7290   14.6260 N.2       1 35X        -0.2181
     15 C9         -0.0080    9.5820   14.0840 C.2       1 35X        -0.0060
     16 N11        -1.5180    8.4620   12.8670 N.pl3     1 35X        -0.2577
     17 C14        -1.3100    9.7020   14.7450 C.ar      1 35X         0.0761
     18 N15        -1.7290   10.3170   15.8440 N.ar      1 35X        -0.2852
     19 C16        -3.0140   10.2600   16.1700 C.ar      1 35X         0.0719
     20 N18        -3.4890    8.9240   14.2850 N.ar      1 35X        -0.2584
     21 C19        -3.5340   10.9150   17.3890 C.ar      1 35X         0.0184
     22 N22        -4.5560   12.1090   19.6270 N.ar      1 35X        -0.2970
     23 C23        -5.3440   11.9110   18.5940 C.ar      1 35X         0.0119
     24 H1          0.7494   10.8751   16.5772 H         1 35X         0.0937
     25 H2          2.6578    9.7678   12.8657 H         1 35X         0.0647
     26 H3          0.5814    8.5338   12.2702 H         1 35X         0.0974
     27 H4         -4.9517    9.4802   15.6613 H         1 35X         0.0855
     28 H5         -1.6875   10.8314   18.5019 H         1 35X         0.0725
     29 H6         -2.6712   11.9137   20.4942 H         1 35X         0.0824
     30 H7         -5.5311   11.1412   16.6037 H         1 35X         0.0725
     31 H8          5.2450   10.4522   19.6576 H         1 35X         0.0231
     32 H9          4.2233   11.9289   19.6103 H         1 35X         0.0231
     33 H10         5.6962   11.8226   18.5875 H         1 35X         0.0231
     34 H11         3.1821   10.0716   18.3039 H         1 35X         0.0291
     35 H12         4.6550    9.9652   17.2812 H         1 35X         0.0291
     36 H13         4.2913   12.3745   16.5936 H         1 35X         0.0639
     37 H14         2.7527   12.3693   17.5206 H         1 35X         0.0639
     38 H15        -1.9221    7.8921   12.1101 H         1 35X         0.2336
     39 H16        -6.3799   12.2264   18.6440 H         1 35X         0.0824
@<TRIPOS>BOND
     1    2    1 2  
     2    1   13 1  
     3    2    3 1  
     4   15    2 1  
     5    3   14 2  
     6   15    4 2  
     7    4   16 1  
     8    5   16 1  
     9   17    5 ar 
    10   20    5 ar 
    11   19    6 ar 
    12    6   20 ar 
    13    7    8 ar 
    14   21    7 ar 
    15    8   22 ar 
    16   21    9 ar 
    17    9   23 ar 
    18   11   10 1  
    19   12   11 1  
    20   13   12 1  
    21   14   13 1  
    22   17   15 1  
    23   18   17 ar 
    24   19   18 ar 
    25   19   21 1  
    26   22   23 ar 
    27    1   24 1  
    28    3   25 1  
    29    4   26 1  
    30    6   27 1  
    31    7   28 1  
    32    8   29 1  
    33    9   30 1  
    34   10   31 1  
    35   10   32 1  
    36   10   33 1  
    37   11   34 1  
    38   11   35 1  
    39   12   36 1  
    40   12   37 1  
    41   16   38 1  
    42   23   39 1  
@<TRIPOS>SUBSTRUCTURE
     1 35X         1

