### 
### Created by X-TOOL on Mon Sep 10 21:13:25 2018
### 

@<TRIPOS>MOLECULE
4qpa_ligand
   43    47     1     0     0
SMALL
GAST_HUCK


@<TRIPOS>ATOM
      1 C4          2.8380  -50.9470  -56.2270 C.ar      1 35W        -0.0109
      2 C5          4.1790  -50.6160  -56.2850 C.ar      1 35W        -0.0575
      3 C6          5.0020  -50.8930  -55.2100 C.ar      1 35W        -0.0685
      4 C7          1.9420  -50.6540  -57.4000 C.3       1 35W         0.1035
      5 C10         2.5460  -53.3720  -59.7000 C.2       1 35W        -0.0185
      6 N12         0.9240  -52.7960  -58.3310 N.2       1 35W        -0.2161
      7 C13         3.3150  -54.1450  -60.7100 C.2       1 35W        -0.0060
      8 C17         4.7970  -54.7330  -62.3740 C.ar      1 35W         0.1661
      9 C20         5.9270  -52.3060  -62.6320 C.ar      1 35W         0.0719
     10 C21         6.3360  -53.3900  -63.4130 C.ar      1 35W         0.0350
     11 C24         6.1910  -49.8900  -62.0190 C.ar      1 35W        -0.0243
     12 C28         7.5850  -50.7990  -63.7530 C.ar      1 35W        -0.0243
     13 C1          4.4840  -51.5040  -54.0830 C.ar      1 35W        -0.0687
     14 C2          3.1440  -51.8360  -54.0270 C.ar      1 35W        -0.0685
     15 C3          2.3210  -51.5600  -55.1020 C.ar      1 35W        -0.0575
     16 N8          1.9440  -51.8420  -58.2560 N.pl3     1 35W        -0.1988
     17 C9          2.9340  -52.2120  -59.0980 C.2       1 35W         0.0534
     18 C11         1.2770  -53.7120  -59.1920 C.2       1 35W        -0.0011
     19 C14         3.1560  -55.4540  -61.0190 C.2       1 35W         0.0378
     20 N15         4.0340  -55.8140  -62.0040 N.pl3     1 35W        -0.2577
     21 C18         4.3820  -53.6370  -61.5840 C.ar      1 35W         0.0761
     22 N19         4.9600  -52.4530  -61.7350 N.ar      1 35W        -0.2852
     23 N22         5.7660  -54.5690  -63.2670 N.ar      1 35W        -0.2584
     24 C23         6.5750  -50.9830  -62.8040 C.ar      1 35W         0.0184
     25 C25         6.8190  -48.6770  -62.2100 C.ar      1 35W         0.0119
     26 N26         7.7680  -48.5460  -63.1170 N.ar      1 35W        -0.2970
     27 C27         8.1600  -49.5520  -63.8760 C.ar      1 35W         0.0119
     28 H1          4.5837  -50.1406  -57.1711 H         1 35W         0.0558
     29 H2          6.0532  -50.6314  -55.2503 H         1 35W         0.0599
     30 H3          2.3243  -49.7869  -57.9585 H         1 35W         0.0804
     31 H4          0.9205  -50.4436  -57.0503 H         1 35W         0.0804
     32 H5          7.1267  -53.2603  -64.1431 H         1 35W         0.0855
     33 H6          5.4121  -49.9951  -61.2724 H         1 35W         0.0725
     34 H7          7.9099  -51.6212  -64.3802 H         1 35W         0.0725
     35 H8          5.1309  -51.7231  -53.2412 H         1 35W         0.0559
     36 H9          2.7391  -52.3121  -53.1413 H         1 35W         0.0599
     37 H10         1.2704  -51.8243  -55.0627 H         1 35W         0.0558
     38 H11         3.8700  -51.6810  -59.2650 H         1 35W         0.0939
     39 H12         0.6916  -54.5874  -59.4693 H         1 35W         0.0647
     40 H13         2.4344  -56.1223  -60.5515 H         1 35W         0.0974
     41 H14         4.1118  -56.7577  -62.4092 H         1 35W         0.2336
     42 H15         6.5299  -47.8226  -61.6088 H         1 35W         0.0824
     43 H16         8.9454  -49.3956  -64.6066 H         1 35W         0.0824
@<TRIPOS>BOND
     1    1    2 ar 
     2    4    1 1  
     3    1   15 ar 
     4    2    3 ar 
     5    3   13 ar 
     6   16    4 1  
     7    7    5 1  
     8    5   17 2  
     9    5   18 1  
    10    6   16 1  
    11   18    6 2  
    12    7   19 2  
    13   21    7 1  
    14    8   20 1  
    15    8   21 ar 
    16   23    8 ar 
    17   10    9 ar 
    18    9   22 ar 
    19    9   24 1  
    20   10   23 ar 
    21   24   11 ar 
    22   11   25 ar 
    23   24   12 ar 
    24   12   27 ar 
    25   13   14 ar 
    26   14   15 ar 
    27   16   17 1  
    28   19   20 1  
    29   21   22 ar 
    30   25   26 ar 
    31   26   27 ar 
    32    2   28 1  
    33    3   29 1  
    34    4   30 1  
    35    4   31 1  
    36   10   32 1  
    37   11   33 1  
    38   12   34 1  
    39   13   35 1  
    40   14   36 1  
    41   15   37 1  
    42   17   38 1  
    43   18   39 1  
    44   19   40 1  
    45   20   41 1  
    46   25   42 1  
    47   27   43 1  
@<TRIPOS>SUBSTRUCTURE
     1 35W         1

