### 
### Created by X-TOOL on Mon Sep 10 21:13:23 2018
### 

@<TRIPOS>MOLECULE
4qpd_ligand
   55    57     1     0     0
SMALL
GAST_HUCK


@<TRIPOS>ATOM
      1 N3         26.8190    9.3920   39.6470 N.am      1 THG        -0.2047
      2 C2         28.0230    9.8210   40.0860 C.cat     1 THG         0.3037
      3 N1         28.1670   10.9210   40.8770 N.2       1 THG        -0.2695
      4 C8A        27.1010   11.6100   41.2440 C.2       1 THG         0.1689
      5 C4A        25.8400   11.2130   40.8080 C.3       1 THG         0.1482
      6 C4         25.7650   10.1010   40.0230 C.2       1 THG         0.2543
      7 N8         27.2390   12.7640   42.0520 N.pl3     1 THG        -0.2771
      8 C7         26.0750   13.1280   42.7360 C.3       1 THG         0.0799
      9 C6         25.0230   13.3090   41.6960 C.3       1 THG         0.0234
     10 N5         24.6950   11.9840   41.2060 N.4       1 THG         0.2716
     11 C9         23.8170   13.9850   42.3150 C.3       1 THG         0.0697
     12 N10        22.8200   14.3460   41.2940 N.pl3     1 THG        -0.3144
     13 C4'        23.0400   15.4830   40.3860 C.ar      1 THG         0.0434
     14 C3'        24.0860   16.4140   40.6340 C.ar      1 THG        -0.0382
     15 C2'        24.2790   17.4900   39.7670 C.ar      1 THG        -0.0535
     16 C1'        23.4270   17.6400   38.6430 C.ar      1 THG         0.0362
     17 C6'        22.4000   16.7300   38.4070 C.ar      1 THG        -0.0535
     18 C5'        22.2030   15.6440   39.2850 C.ar      1 THG        -0.0382
     19 C11        23.6430   18.8450   37.6810 C.2       1 THG         0.1968
     20 N          24.4560   19.8970   38.0960 N.am      1 THG        -0.2725
     21 CA         24.6650   21.0090   37.2390 C.3       1 THG         0.0951
     22 C          25.9110   20.7610   36.4110 C.2       1 THG         0.0601
     23 OX2        26.9220   20.1880   36.9210 O.co2     1 THG        -0.5666
     24 OX1        25.9260   21.1270   35.1970 O.co2     1 THG        -0.5666
     25 CB         24.8420   22.2400   38.0930 C.3       1 THG        -0.0064
     26 CG         24.5900   23.4980   37.2560 C.3       1 THG         0.0038
     27 CD         25.0030   24.7010   38.0900 C.2       1 THG         0.0350
     28 OE1        25.0340   24.6080   39.3450 O.co2     1 THG        -0.5690
     29 OE2        25.3180   25.7820   37.5160 O.co2     1 THG        -0.5690
     30 O11        23.1080   18.8810   36.5920 O.2       1 THG        -0.3908
     31 O4         24.6640    9.7310   39.6330 O.2       1 THG        -0.3855
     32 N2         29.1710    9.0990   39.7140 N.pl3     1 THG        -0.2178
     33 H1         26.7284    8.5814   39.0684 H         1 THG         0.1935
     34 H2         25.9374   11.8377   39.9079 H         1 THG         0.1403
     35 H3         28.1210   13.2903   42.1294 H         1 THG         0.1937
     36 H4         26.2335   14.0674   43.2860 H         1 THG         0.0590
     37 H5         25.7827   12.3354   43.4405 H         1 THG         0.0590
     38 H6         25.4042   13.9290   40.8712 H         1 THG         0.0892
     39 H7         24.2143   11.4846   41.9378 H         1 THG         0.2065
     40 H8         24.0852   12.0818   40.4094 H         1 THG         0.2065
     41 H9         24.1453   14.8981   42.8330 H         1 THG         0.0571
     42 H10        23.3546   13.2985   43.0395 H         1 THG         0.0571
     43 H11        21.9542   13.7938   41.2138 H         1 THG         0.1777
     44 H12        24.7322   16.2879   41.4951 H         1 THG         0.0530
     45 H13        25.0729   18.2049   39.9508 H         1 THG         0.0636
     46 H14        21.7513   16.8563   37.5477 H         1 THG         0.0636
     47 H15        21.4021   14.9365   39.1032 H         1 THG         0.0530
     48 H16        24.8915   19.8689   38.9958 H         1 THG         0.1864
     49 H17        23.7989   21.1399   36.5737 H         1 THG         0.0726
     50 H18        25.8682   22.2649   38.4883 H         1 THG         0.0323
     51 H19        24.1277   22.2094   38.9289 H         1 THG         0.0323
     52 H20        23.5228   23.5692   36.9993 H         1 THG         0.0432
     53 H21        25.1874   23.4595   36.3332 H         1 THG         0.0432
     54 H22        30.0997    9.4065   40.0363 H         1 THG         0.4602
     55 H23        29.0831    8.2627   39.1193 H         1 THG         0.4602
@<TRIPOS>BOND
     1    1    2 ar 
     2    1    6 am 
     3    2    3 ar 
     4    2   32 ar 
     5    3    4 2  
     6    4    5 1  
     7    4    7 1  
     8    5    6 1  
     9    5   10 1  
    10    6   31 2  
    11    7    8 1  
    12    8    9 1  
    13    9   10 1  
    14    9   11 1  
    15   11   12 1  
    16   12   13 1  
    17   13   14 ar 
    18   13   18 ar 
    19   14   15 ar 
    20   15   16 ar 
    21   16   17 ar 
    22   16   19 1  
    23   17   18 ar 
    24   19   20 am 
    25   19   30 2  
    26   20   21 1  
    27   21   22 1  
    28   21   25 1  
    29   22   23 ar 
    30   22   24 ar 
    31   25   26 1  
    32   26   27 1  
    33   27   28 ar 
    34   27   29 ar 
    35    1   33 1  
    36    5   34 1  
    37    7   35 1  
    38    8   36 1  
    39    8   37 1  
    40    9   38 1  
    41   10   39 1  
    42   10   40 1  
    43   11   41 1  
    44   11   42 1  
    45   12   43 1  
    46   14   44 1  
    47   15   45 1  
    48   17   46 1  
    49   18   47 1  
    50   20   48 1  
    51   21   49 1  
    52   25   50 1  
    53   25   51 1  
    54   26   52 1  
    55   26   53 1  
    56   32   54 1  
    57   32   55 1  
@<TRIPOS>SUBSTRUCTURE
     1 THG         1

