### 
### Created by X-TOOL on Mon Sep 10 21:13:24 2018
### 

@<TRIPOS>MOLECULE
4qps_ligand
   45    48     1     0     0
SMALL
GAST_HUCK


@<TRIPOS>ATOM
      1 C4        -20.1430   -7.5940   13.2670 C.ar      1 37Q        -0.0716
      2 C5        -19.1820   -8.4440   10.8020 C.ar      1 37Q        -0.0386
      3 C6        -19.8340   -6.6870   12.2770 C.ar      1 37Q        -0.0386
      4 C7        -17.1300   -3.0650   16.2790 C.ar      1 37Q        -0.0506
      5 C8        -17.4810   -1.7900   15.8930 C.ar      1 37Q        -0.0684
      6 C10       -18.8920   -4.0690    8.9830 C.ar      1 37Q         0.0533
      7 C13       -16.5120   -7.3770   16.9770 C.3       1 37Q         0.0402
      8 C15       -17.1450   -4.1250   15.3970 C.ar      1 37Q         0.0561
      9 C17       -17.8280   -2.7060   13.6960 C.ar      1 37Q         0.0927
     10 C20       -16.4880   -5.8810   16.9740 C.2       1 37Q         0.2022
     11 C1        -17.4440   -7.7790   18.0830 C.3       1 37Q        -0.0477
     12 C2        -19.9650   -8.9360   13.0050 C.ar      1 37Q        -0.0735
     13 C3        -19.4970   -9.3690   11.7800 C.ar      1 37Q        -0.0716
     14 C9        -17.4990   -3.9840   14.0790 C.ar      1 37Q        -0.0161
     15 C11       -18.5190   -2.1670   10.1240 C.ar      1 37Q         0.0594
     16 C12       -18.4630   -0.8720   12.6780 C.2       1 37Q         0.1206
     17 C14       -19.3390   -7.0940   11.0470 C.ar      1 37Q         0.0628
     18 C16       -17.8330   -1.6350   14.5620 C.ar      1 37Q         0.0269
     19 C18       -18.8420   -4.8110   10.1460 C.ar      1 37Q         0.1518
     20 C19       -18.4750   -2.8950   11.3000 C.ar      1 37Q         0.1829
     21 N21       -18.7380   -2.7400    8.9380 N.ar      1 37Q        -0.2921
     22 N22       -18.2220   -0.4990   13.9120 N.2       1 37Q        -0.3094
     23 N23       -18.6190   -4.2230   11.3280 N.ar      1 37Q        -0.2304
     24 N24       -19.0140   -6.1950   10.0120 N.pl3     1 37Q        -0.2560
     25 N25       -16.8250   -5.4400   15.7390 N.am      1 37Q        -0.2382
     26 N26       -18.2360   -2.2020   12.4930 N.pl3     1 37Q        -0.1799
     27 O27       -16.1980   -5.2020   17.9490 O.2       1 37Q        -0.3854
     28 H1        -20.5169   -7.2608   14.2284 H         1 37Q         0.0587
     29 H2        -18.8108   -8.7793    9.8403 H         1 37Q         0.0535
     30 H3        -19.9814   -5.6295   12.4640 H         1 37Q         0.0535
     31 H4        -16.8332   -3.2403   17.3067 H         1 37Q         0.0449
     32 H5        -17.4817   -0.9585   16.5885 H         1 37Q         0.0539
     33 H6        -19.0664   -4.5938    8.0507 H         1 37Q         0.0760
     34 H7        -15.5036   -7.7741   17.1650 H         1 37Q         0.0505
     35 H8        -16.8807   -7.7544   16.0118 H         1 37Q         0.0505
     36 H9        -17.5017   -8.8763   18.1331 H         1 37Q         0.0254
     37 H10       -18.4451   -7.3678   17.8865 H         1 37Q         0.0254
     38 H11       -17.0681   -7.3876   19.0398 H         1 37Q         0.0254
     39 H12       -20.1965   -9.6640   13.7741 H         1 37Q         0.0518
     40 H13       -19.3772  -10.4288   11.5863 H         1 37Q         0.0587
     41 H14       -17.5178   -4.8203   13.3896 H         1 37Q         0.0422
     42 H15       -18.3705   -1.0941   10.1671 H         1 37Q         0.0765
     43 H16       -18.8043   -0.1978   11.8939 H         1 37Q         0.1339
     44 H17       -18.8915   -6.5920    9.0695 H         1 37Q         0.2145
     45 H18       -16.8466   -6.1184   15.0047 H         1 37Q         0.2243
@<TRIPOS>BOND
     1    3    1 ar 
     2    1   12 ar 
     3    2   13 ar 
     4   17    2 ar 
     5   17    3 ar 
     6    5    4 ar 
     7    8    4 ar 
     8   18    5 ar 
     9   19    6 ar 
    10   21    6 ar 
    11   10    7 1  
    12    7   11 1  
    13   14    8 ar 
    14    8   25 1  
    15    9   14 ar 
    16    9   18 ar 
    17   26    9 1  
    18   25   10 am 
    19   10   27 2  
    20   13   12 ar 
    21   20   15 ar 
    22   15   21 ar 
    23   16   22 2  
    24   26   16 1  
    25   24   17 1  
    26   22   18 1  
    27   23   19 ar 
    28   19   24 1  
    29   20   23 ar 
    30   20   26 1  
    31    1   28 1  
    32    2   29 1  
    33    3   30 1  
    34    4   31 1  
    35    5   32 1  
    36    6   33 1  
    37    7   34 1  
    38    7   35 1  
    39   11   36 1  
    40   11   37 1  
    41   11   38 1  
    42   12   39 1  
    43   13   40 1  
    44   14   41 1  
    45   15   42 1  
    46   16   43 1  
    47   24   44 1  
    48   25   45 1  
@<TRIPOS>SUBSTRUCTURE
     1 37Q         1

