### 
### Created by X-TOOL on Mon Sep 10 21:13:18 2018
### 

@<TRIPOS>MOLECULE
4qq5_ligand
   85    90     1     0     0
SMALL
GAST_HUCK


@<TRIPOS>ATOM
      1 C01       -64.5250  146.1090    2.6180 C.ar      1 37O         0.0025
      2 N02       -64.3210  147.4300    2.6760 N.ar      1 37O        -0.2794
      3 C03       -63.1610  147.9970    2.3730 C.ar      1 37O         0.1839
      4 N04       -62.1140  147.2520    1.9490 N.ar      1 37O        -0.2454
      5 C05       -62.2290  145.9010    1.8460 C.ar      1 37O         0.1269
      6 C06       -63.4610  145.2870    2.1880 C.ar      1 37O         0.0353
      7 N07       -61.1420  145.0790    1.3850 N.pl3     1 37O        -0.2372
      8 C08       -61.1190  143.7220    1.7680 C.3       1 37O         0.2330
      9 N09       -62.2980  143.1980    2.3560 N.pl3     1 37O        -0.2587
     10 C10       -63.5270  143.8650    2.0490 C.3       1 37O         0.0659
     11 N11       -63.0850  149.4280    2.5000 N.pl3     1 37O        -0.2564
     12 C12       -61.9140  150.2460    2.3940 C.ar      1 37O         0.0496
     13 C13       -62.1540  151.7100    2.0990 C.ar      1 37O        -0.0509
     14 C14       -61.1110  152.5570    1.9920 C.ar      1 37O        -0.0505
     15 C15       -59.6770  152.0460    2.1750 C.ar      1 37O         0.0501
     16 C16       -59.4460  150.7370    2.4480 C.ar      1 37O        -0.0505
     17 C17       -60.6300  149.7780    2.5760 C.ar      1 37O        -0.0509
     18 N18       -58.6350  153.0150    2.0440 N.pl3     1 37O        -0.2719
     19 C19       -57.4480  152.9570    2.8210 C.2       1 37O         0.0298
     20 C20       -56.4920  153.9270    2.6530 C.2       1 37O         0.0187
     21 N21       -56.6890  154.9820    1.7220 N.pl3     1 37O        -0.3066
     22 C22       -57.8870  155.0380    0.9450 C.2       1 37O         0.0187
     23 C23       -58.8330  154.0730    1.1120 C.2       1 37O         0.0298
     24 C24       -55.6710  156.0140    1.5470 C.3       1 37O         0.0210
     25 C25       -62.4010  141.7980    2.7270 C.ar      1 37O         0.0279
     26 C26       -62.1080  140.7970    1.7970 C.ar      1 37O        -0.0277
     27 C27       -62.2250  139.4580    2.1780 C.ar      1 37O         0.0708
     28 C28       -62.6380  139.1330    3.5010 C.ar      1 37O        -0.0187
     29 C29       -62.9320  140.1600    4.4190 C.ar      1 37O         0.0708
     30 C30       -62.8180  141.4960    4.0220 C.ar      1 37O        -0.0277
     31 O31       -63.3700  139.9030    5.7640 O.3       1 37O        -0.3272
     32 O32       -61.9130  138.4590    1.2160 O.3       1 37O        -0.3272
     33 C33       -63.7330  138.5350    6.0730 C.3       1 37O         0.0588
     34 C34       -62.2750  137.1460    1.5740 C.3       1 37O         0.0588
     35 O35       -59.9670  142.9510    1.5790 O.3       1 37O        -0.3510
     36 C36       -60.0050  145.7210    0.7090 C.3       1 37O         0.0622
     37 C37       -58.6940  145.8350    1.4740 C.ar      1 37O        -0.0352
     38 C38       -57.5930  145.1800    1.0030 C.ar      1 37O        -0.0713
     39 C39       -56.3830  145.2960    1.6780 C.ar      1 37O        -0.0473
     40 C40       -56.3080  146.0820    2.8230 C.ar      1 37O         0.0596
     41 C41       -57.4180  146.7470    3.2690 C.ar      1 37O        -0.0473
     42 C42       -58.6220  146.6330    2.6030 C.ar      1 37O        -0.0713
     43 N43       -55.0960  146.2770    3.5640 N.am      1 37O        -0.2378
     44 C44       -53.8060  146.4410    2.9420 C.2       1 37O         0.2015
     45 C45       -52.5870  146.6990    3.8370 C.3       1 37O         0.0400
     46 C46       -51.4290  145.7240    3.5870 C.3       1 37O        -0.0477
     47 O47       -53.6630  146.3660    1.7380 O.2       1 37O        -0.3858
     48 H1        -65.4821  145.6812    2.8939 H         1 37O         0.0774
     49 H2        -61.4750  143.4205    0.7718 H         1 37O         0.1162
     50 H3        -63.7990  143.6301    1.0094 H         1 37O         0.0652
     51 H4        -64.3062  143.4858    2.7265 H         1 37O         0.0652
     52 H5        -63.9709  149.9187    2.6880 H         1 37O         0.2121
     53 H6        -63.1658  152.0783    1.9735 H         1 37O         0.0500
     54 H7        -61.2868  153.6045    1.7755 H         1 37O         0.0482
     55 H8        -58.4321  150.3748    2.5741 H         1 37O         0.0482
     56 H9        -60.4603  148.7331    2.8092 H         1 37O         0.0500
     57 H10       -57.2983  152.1535    3.5406 H         1 37O         0.0695
     58 H11       -55.5745  153.8878    3.2383 H         1 37O         0.0714
     59 H12       -58.0415  155.8429    0.2279 H         1 37O         0.0714
     60 H13       -59.7505  154.1108    0.5267 H         1 37O         0.0695
     61 H14       -54.8252  155.8126    2.2208 H         1 37O         0.0505
     62 H15       -56.1019  156.9980    1.7835 H         1 37O         0.0505
     63 H16       -55.3189  156.0088    0.5049 H         1 37O         0.0505
     64 H17       -61.7938  141.0562    0.7924 H         1 37O         0.0347
     65 H18       -62.7262  138.0953    3.8019 H         1 37O         0.0358
     66 H19       -63.0529  142.2929    4.7183 H         1 37O         0.0347
     67 H20       -64.0486  138.4680    7.1246 H         1 37O         0.0577
     68 H21       -62.8654  137.8792    5.9081 H         1 37O         0.0577
     69 H22       -64.5607  138.2190    5.4210 H         1 37O         0.0577
     70 H23       -61.9917  136.4546    0.7667 H         1 37O         0.0577
     71 H24       -63.3620  137.0962    1.7348 H         1 37O         0.0577
     72 H25       -61.7539  136.8615    2.5000 H         1 37O         0.0577
     73 H26       -59.2936  143.4841    1.1729 H         1 37O         0.2143
     74 H27       -60.3171  146.7409    0.4400 H         1 37O         0.0659
     75 H28       -59.8011  145.1464   -0.2066 H         1 37O         0.0659
     76 H29       -57.6616  144.5728    0.1077 H         1 37O         0.0521
     77 H30       -55.5036  144.7771    1.3141 H         1 37O         0.0487
     78 H31       -57.3512  147.3694    4.1540 H         1 37O         0.0487
     79 H32       -59.4990  147.1612    2.9593 H         1 37O         0.0521
     80 H33       -55.1483  146.3004    4.5624 H         1 37O         0.2234
     81 H34       -52.9000  146.6062    4.8874 H         1 37O         0.0504
     82 H35       -52.2278  147.7218    3.6503 H         1 37O         0.0504
     83 H36       -50.5935  145.9668    4.2600 H         1 37O         0.0254
     84 H37       -51.0955  145.8109    2.5424 H         1 37O         0.0254
     85 H38       -51.7677  144.6953    3.7795 H         1 37O         0.0254
@<TRIPOS>BOND
     1    1    2 ar 
     2    1    6 ar 
     3    2    3 ar 
     4    3    4 ar 
     5    3   11 1  
     6    4    5 ar 
     7    5    6 ar 
     8    5    7 1  
     9    6   10 1  
    10    7    8 1  
    11    7   36 1  
    12    8    9 1  
    13    8   35 1  
    14    9   10 1  
    15    9   25 1  
    16   11   12 1  
    17   12   13 ar 
    18   12   17 ar 
    19   13   14 ar 
    20   14   15 ar 
    21   15   16 ar 
    22   15   18 1  
    23   16   17 ar 
    24   18   19 1  
    25   18   23 1  
    26   19   20 2  
    27   20   21 1  
    28   21   22 1  
    29   21   24 1  
    30   22   23 2  
    31   25   26 ar 
    32   25   30 ar 
    33   26   27 ar 
    34   27   28 ar 
    35   27   32 1  
    36   28   29 ar 
    37   29   30 ar 
    38   29   31 1  
    39   31   33 1  
    40   32   34 1  
    41   36   37 1  
    42   37   38 ar 
    43   37   42 ar 
    44   38   39 ar 
    45   39   40 ar 
    46   40   41 ar 
    47   40   43 1  
    48   41   42 ar 
    49   43   44 am 
    50   44   45 1  
    51   44   47 2  
    52   45   46 1  
    53    1   48 1  
    54    8   49 1  
    55   10   50 1  
    56   10   51 1  
    57   11   52 1  
    58   13   53 1  
    59   14   54 1  
    60   16   55 1  
    61   17   56 1  
    62   19   57 1  
    63   20   58 1  
    64   22   59 1  
    65   23   60 1  
    66   24   61 1  
    67   24   62 1  
    68   24   63 1  
    69   26   64 1  
    70   28   65 1  
    71   30   66 1  
    72   33   67 1  
    73   33   68 1  
    74   33   69 1  
    75   34   70 1  
    76   34   71 1  
    77   34   72 1  
    78   35   73 1  
    79   36   74 1  
    80   36   75 1  
    81   38   76 1  
    82   39   77 1  
    83   41   78 1  
    84   42   79 1  
    85   43   80 1  
    86   45   81 1  
    87   45   82 1  
    88   46   83 1  
    89   46   84 1  
    90   46   85 1  
@<TRIPOS>SUBSTRUCTURE
     1 37O         1

