### 
### Created by X-TOOL on Mon Sep 10 21:13:17 2018
### 

@<TRIPOS>MOLECULE
4qqc_ligand
   88    93     1     0     0
SMALL
GAST_HUCK


@<TRIPOS>ATOM
      1 C01       -24.5850    8.5230   -1.4840 C.ar      1 37O        -0.0001
      2 N02       -25.8450    9.0240   -1.3820 N.ar      1 37O        -0.2835
      3 C03       -26.8370    8.2440   -1.0200 C.ar      1 37O         0.1802
      4 N04       -26.7420    7.0350   -0.7260 N.ar      1 37O        -0.2457
      5 C05       -25.6280    6.3950   -0.7610 C.ar      1 37O         0.1529
      6 C06       -24.5380    7.1020   -1.1360 C.ar      1 37O         0.0438
      7 N07       -25.5240    5.0860   -0.4910 N.am      1 37O        -0.1717
      8 C08       -24.3130    4.5040   -0.5470 C.2       1 37O         0.3319
      9 N09       -23.2270    5.2370   -0.8980 N.am      1 37O        -0.1948
     10 C10       -23.3340    6.4980   -1.2110 C.3       1 37O         0.0910
     11 N11       -28.0740    8.8960   -0.9290 N.pl3     1 37O        -0.2560
     12 C12       -29.3380    8.2990   -0.9070 C.ar      1 37O         0.0513
     13 C13       -30.4210    9.0950   -0.6870 C.ar      1 37O        -0.0493
     14 C14       -31.7020    8.6030   -0.6520 C.ar      1 37O        -0.0530
     15 C15       -31.8740    7.2550   -0.8210 C.ar      1 37O         0.0295
     16 C16       -30.7940    6.4480   -1.0600 C.ar      1 37O        -0.0530
     17 C17       -29.5130    6.9640   -1.1060 C.ar      1 37O        -0.0493
     18 N18       -33.2010    6.6740   -0.8370 N.pl3     1 37O        -0.3046
     19 C19       -33.3380    5.3750   -1.1540 C.3       1 37O         0.0649
     20 C20       -34.5910    4.7930   -1.2230 C.3       1 37O        -0.0123
     21 N21       -35.6750    5.5430   -0.9850 N.4       1 37O         0.2358
     22 C22       -35.5430    6.8520   -0.6920 C.3       1 37O        -0.0123
     23 C23       -34.2820    7.4290   -0.6300 C.3       1 37O         0.0649
     24 C24       -36.9680    4.9400   -1.0580 C.3       1 37O        -0.0430
     25 C25       -21.9050    4.6790   -1.0640 C.ar      1 37O         0.0546
     26 C26       -21.1270    4.2110   -0.0370 C.ar      1 37O        -0.0248
     27 C27       -19.8540    3.7120   -0.3280 C.ar      1 37O         0.0690
     28 C28       -19.3940    3.6820   -1.6320 C.ar      1 37O        -0.0208
     29 C29       -20.1900    4.1440   -2.6920 C.ar      1 37O         0.0690
     30 C30       -21.4440    4.6540   -2.3770 C.ar      1 37O        -0.0248
     31 O31       -19.8050    4.1390   -4.0250 O.3       1 37O        -0.3277
     32 O32       -19.0830    3.2360    0.7370 O.3       1 37O        -0.3277
     33 C33       -18.4850    3.8840   -4.3270 C.3       1 37O         0.0588
     34 C34       -17.6960    3.3110    0.6500 C.3       1 37O         0.0588
     35 O35       -24.1740    3.1720   -0.2270 O.2       1 37O        -0.3769
     36 C36       -26.7180    4.4080   -0.0020 C.3       1 37O         0.0885
     37 C37       -27.3210    3.1470   -0.5470 C.ar      1 37O        -0.0290
     38 C38       -27.3640    2.0200    0.2470 C.ar      1 37O        -0.0708
     39 C39       -27.9480    0.8250   -0.2320 C.ar      1 37O        -0.0473
     40 C40       -28.5300    0.7740   -1.4920 C.ar      1 37O         0.0596
     41 C41       -28.4880    1.9270   -2.2770 C.ar      1 37O        -0.0473
     42 C42       -27.8870    3.1300   -1.8080 C.ar      1 37O        -0.0708
     43 N43       -29.1660   -0.4270   -2.0270 N.am      1 37O        -0.2378
     44 C44       -29.9530   -1.3770   -1.3130 C.2       1 37O         0.2015
     45 C45       -30.5380   -2.5410   -2.0470 C.3       1 37O         0.0400
     46 C46       -30.2320   -3.8570   -1.3770 C.3       1 37O        -0.0477
     47 O47       -30.1620   -1.2710   -0.1290 O.2       1 37O        -0.3858
     48 H1        -23.7214    9.1045   -1.7859 H         1 37O         0.0759
     49 H2        -22.6565    7.0515   -0.5443 H         1 37O         0.0720
     50 H3        -22.9894    6.5997   -2.2507 H         1 37O         0.0720
     51 H4        -28.0494    9.9241   -0.8723 H         1 37O         0.2124
     52 H5        -30.2656   10.1568   -0.5338 H         1 37O         0.0505
     53 H6        -32.5498    9.2601   -0.4957 H         1 37O         0.0489
     54 H7        -30.9465    5.3861   -1.2158 H         1 37O         0.0489
     55 H8        -28.6637    6.3179   -1.2969 H         1 37O         0.0505
     56 H9        -32.7687    4.8068   -0.4037 H         1 37O         0.0562
     57 H10       -32.8753    5.2425   -2.1431 H         1 37O         0.0562
     58 H11       -34.6035    3.9700   -0.4933 H         1 37O         0.0834
     59 H12       -34.6999    4.3844   -2.2385 H         1 37O         0.0834
     60 H13       -35.6216    5.3182   -0.0039 H         1 37O         0.2032
     61 H14       -36.0101    7.0051    0.2921 H         1 37O         0.0834
     62 H15       -36.1077    7.4062   -1.4562 H         1 37O         0.0834
     63 H16       -34.2604    8.2312   -1.3823 H         1 37O         0.0562
     64 H17       -34.1794    7.8654    0.3745 H         1 37O         0.0562
     65 H18       -36.8618    3.8739   -1.3074 H         1 37O         0.0778
     66 H19       -37.5629    5.4410   -1.8359 H         1 37O         0.0778
     67 H20       -37.4749    5.0407   -0.0870 H         1 37O         0.0778
     68 H21       -21.4926    4.2276    0.9833 H         1 37O         0.0333
     69 H22       -18.4026    3.2954   -1.8389 H         1 37O         0.0343
     70 H23       -22.0752    5.0398   -3.1693 H         1 37O         0.0333
     71 H24       -18.3456    3.9161   -5.4177 H         1 37O         0.0577
     72 H25       -18.2087    2.8878   -3.9512 H         1 37O         0.0577
     73 H26       -17.8469    4.6446   -3.8533 H         1 37O         0.0577
     74 H27       -17.2483    2.8966    1.5653 H         1 37O         0.0577
     75 H28       -17.3920    4.3620    0.5366 H         1 37O         0.0577
     76 H29       -17.3514    2.7336   -0.2206 H         1 37O         0.0577
     77 H30       -27.5192    5.1587   -0.0691 H         1 37O         0.0732
     78 H31       -26.5082    4.1892    1.0554 H         1 37O         0.0732
     79 H32       -26.9464    2.0508    1.2469 H         1 37O         0.0521
     80 H33       -27.9415   -0.0618    0.3914 H         1 37O         0.0487
     81 H34       -28.9240    1.9065   -3.2692 H         1 37O         0.0487
     82 H35       -27.8736    4.0178   -2.4298 H         1 37O         0.0521
     83 H36       -29.0347   -0.6023   -3.0027 H         1 37O         0.2234
     84 H37       -30.1250   -2.5594   -3.0663 H         1 37O         0.0504
     85 H38       -31.6297   -2.4151   -2.0958 H         1 37O         0.0504
     86 H39       -30.6835   -4.6766   -1.9553 H         1 37O         0.0254
     87 H40       -30.6470   -3.8551   -0.3583 H         1 37O         0.0254
     88 H41       -29.1423   -3.9993   -1.3288 H         1 37O         0.0254
@<TRIPOS>BOND
     1    1    2 ar 
     2    1    6 ar 
     3    2    3 ar 
     4    3    4 ar 
     5    3   11 1  
     6    4    5 ar 
     7    5    6 ar 
     8    5    7 1  
     9    6   10 1  
    10    7    8 am 
    11    7   36 1  
    12    8    9 am 
    13    8   35 2  
    14    9   10 1  
    15    9   25 1  
    16   11   12 1  
    17   12   13 ar 
    18   12   17 ar 
    19   13   14 ar 
    20   14   15 ar 
    21   15   16 ar 
    22   15   18 1  
    23   16   17 ar 
    24   18   19 1  
    25   18   23 1  
    26   19   20 1  
    27   20   21 1  
    28   21   22 1  
    29   21   24 1  
    30   22   23 1  
    31   25   26 ar 
    32   25   30 ar 
    33   26   27 ar 
    34   27   28 ar 
    35   27   32 1  
    36   28   29 ar 
    37   29   30 ar 
    38   29   31 1  
    39   31   33 1  
    40   32   34 1  
    41   36   37 1  
    42   37   38 ar 
    43   37   42 ar 
    44   38   39 ar 
    45   39   40 ar 
    46   40   41 ar 
    47   40   43 1  
    48   41   42 ar 
    49   43   44 am 
    50   44   45 1  
    51   44   47 2  
    52   45   46 1  
    53    1   48 1  
    54   10   49 1  
    55   10   50 1  
    56   11   51 1  
    57   13   52 1  
    58   14   53 1  
    59   16   54 1  
    60   17   55 1  
    61   19   56 1  
    62   19   57 1  
    63   20   58 1  
    64   20   59 1  
    65   21   60 1  
    66   22   61 1  
    67   22   62 1  
    68   23   63 1  
    69   23   64 1  
    70   24   65 1  
    71   24   66 1  
    72   24   67 1  
    73   26   68 1  
    74   28   69 1  
    75   30   70 1  
    76   33   71 1  
    77   33   72 1  
    78   33   73 1  
    79   34   74 1  
    80   34   75 1  
    81   34   76 1  
    82   36   77 1  
    83   36   78 1  
    84   38   79 1  
    85   39   80 1  
    86   41   81 1  
    87   42   82 1  
    88   43   83 1  
    89   45   84 1  
    90   45   85 1  
    91   46   86 1  
    92   46   87 1  
    93   46   88 1  
@<TRIPOS>SUBSTRUCTURE
     1 37O         1

