### 
### Created by X-TOOL on Mon Sep 10 21:13:23 2018
### 

@<TRIPOS>MOLECULE
4qr3_ligand
   37    39     1     0     0
SMALL
GAST_HUCK


@<TRIPOS>ATOM
      1 CAK         8.6220  -10.6910   -1.9040 C.3       1 BNJ        -0.0333
      2 CAI         9.0610  -12.1180   -2.0190 C.3       1 BNJ        -0.0513
      3 CAJ         9.1700  -12.3960   -3.5010 C.3       1 BNJ        -0.0513
      4 CAL         8.4600  -11.2710   -4.1950 C.3       1 BNJ        -0.0333
      5 CAT         7.9710  -10.3310   -3.1700 C.3       1 BNJ         0.0378
      6 NAM         8.3240   -8.9690   -3.5120 N.am      1 BNJ        -0.2444
      7 SAU         7.1830   -7.8420   -3.0830 S.o2      1 BNJ         0.0678
      8 OAB         5.8180   -8.3490   -3.3000 O.2       1 BNJ        -0.1503
      9 OAC         7.4010   -6.5850   -3.8150 O.2       1 BNJ        -0.1503
     10 CAQ         7.2620   -7.4770   -1.3280 C.ar      1 BNJ         0.1056
     11 CAH         8.3470   -6.7610   -0.8210 C.ar      1 BNJ        -0.0295
     12 CAF         6.2320   -7.9060   -0.5000 C.ar      1 BNJ        -0.0380
     13 CAD         6.2720   -7.6230    0.8700 C.ar      1 BNJ        -0.0625
     14 CAE         7.3500   -6.9070    1.3840 C.ar      1 BNJ        -0.0561
     15 CAP         8.3790   -6.4890    0.5480 C.ar      1 BNJ        -0.0013
     16 CAR         9.5280   -5.7070    1.1010 C.2       1 BNJ         0.0717
     17 CAG         9.3830   -4.8320    2.1970 C.2       1 BNJ         0.0077
     18 SAO        10.9080   -4.1500    2.4610 S.3       1 BNJ         0.0027
     19 CAS        11.6740   -4.9520    1.1860 C.2       1 BNJ         0.2684
     20 OAA        12.9960   -4.8390    0.8470 O.2       1 BNJ        -0.3825
     21 NAN        10.7900   -5.7600    0.5510 N.am      1 BNJ        -0.2326
     22 H1          9.4931  -10.0420   -1.7308 H         1 BNJ         0.0283
     23 H2          7.9118  -10.5816   -1.0712 H         1 BNJ         0.0283
     24 H3          8.3187  -12.7857   -1.5574 H         1 BNJ         0.0266
     25 H4         10.0360  -12.2597   -1.5298 H         1 BNJ         0.0266
     26 H5          8.6913  -13.3560   -3.7445 H         1 BNJ         0.0266
     27 H6         10.2264  -12.4252   -3.8062 H         1 BNJ         0.0266
     28 H7          7.6113  -11.6665   -4.7723 H         1 BNJ         0.0283
     29 H8          9.1553  -10.7539   -4.8726 H         1 BNJ         0.0283
     30 H9          6.8784  -10.4155   -3.0745 H         1 BNJ         0.0511
     31 H10         9.1811   -8.7280   -3.9673 H         1 BNJ         0.1675
     32 H11         9.1447   -6.4245   -1.4734 H         1 BNJ         0.0618
     33 H12         5.3976   -8.4598   -0.9151 H         1 BNJ         0.0612
     34 H13         5.4737   -7.9570    1.5229 H         1 BNJ         0.0610
     35 H14         7.3870   -6.6742    2.4421 H         1 BNJ         0.0599
     36 H15         8.4721   -4.6349    2.7603 H         1 BNJ         0.0485
     37 H16        11.0284   -6.3333   -0.2329 H         1 BNJ         0.2244
@<TRIPOS>BOND
     1    1    2 1  
     2    1    5 1  
     3    2    3 1  
     4    3    4 1  
     5    4    5 1  
     6    5    6 1  
     7    6    7 am 
     8    7    8 2  
     9    7    9 2  
    10    7   10 1  
    11   10   11 ar 
    12   10   12 ar 
    13   11   15 ar 
    14   12   13 ar 
    15   13   14 ar 
    16   14   15 ar 
    17   15   16 1  
    18   16   17 2  
    19   16   21 1  
    20   17   18 1  
    21   18   19 1  
    22   19   20 2  
    23   19   21 am 
    24    1   22 1  
    25    1   23 1  
    26    2   24 1  
    27    2   25 1  
    28    3   26 1  
    29    3   27 1  
    30    4   28 1  
    31    4   29 1  
    32    5   30 1  
    33    6   31 1  
    34   11   32 1  
    35   12   33 1  
    36   13   34 1  
    37   14   35 1  
    38   17   36 1  
    39   21   37 1  
@<TRIPOS>SUBSTRUCTURE
     1 BNJ         1

