### 
### Created by X-TOOL on Mon Sep 10 21:13:21 2018
### 

@<TRIPOS>MOLECULE
4qr4_ligand
   37    39     1     0     0
SMALL
GAST_HUCK


@<TRIPOS>ATOM
      1 CAK         8.9430  -11.7940   -4.4530 C.3       1 BNK        -0.0333
      2 CAI         9.4190  -12.8910   -3.5290 C.3       1 BNK        -0.0513
      3 CAJ         9.4430  -12.2970   -2.1800 C.3       1 BNK        -0.0513
      4 CAL         8.4850  -11.1930   -2.1970 C.3       1 BNK        -0.0333
      5 CAU         8.4710  -10.6640   -3.5730 C.3       1 BNK         0.0378
      6 NAM         9.3600   -9.5740   -3.6440 N.am      1 BNK        -0.2444
      7 SAV         8.6860   -8.0840   -3.5910 S.o2      1 BNK         0.0683
      8 OAB         7.5210   -7.9990   -4.4780 O.2       1 BNK        -0.1503
      9 OAC         9.7410   -7.1320   -3.9560 O.2       1 BNK        -0.1503
     10 CAS         8.2100   -7.7030   -1.9230 C.ar      1 BNK         0.1195
     11 CAH         9.0950   -6.9490   -1.1590 C.ar      1 BNK        -0.0291
     12 CAP         7.0070   -8.1120   -1.3310 C.ar      1 BNK         0.0638
     13 CL          5.8180   -9.0510   -2.1760 Cl        1 BNK        -0.0710
     14 CAE         6.7270   -7.7590   -0.0130 C.ar      1 BNK        -0.0486
     15 CAF         7.6160   -7.0060    0.7380 C.ar      1 BNK        -0.0556
     16 CAQ         8.8130   -6.6130    0.1610 C.ar      1 BNK        -0.0012
     17 CAR         9.8050   -5.7760    0.8960 C.2       1 BNK         0.0718
     18 CAG         9.5160   -4.9330    1.9910 C.2       1 BNK         0.0079
     19 SAO        10.9710   -4.1730    2.4090 S.3       1 BNK         0.0028
     20 CAT        11.9030   -4.8830    1.1920 C.2       1 BNK         0.2684
     21 OAA        13.2300   -4.6990    0.9600 O.2       1 BNK        -0.3825
     22 NAN        11.1170   -5.7150    0.4900 N.am      1 BNK        -0.2326
     23 H1          8.1155  -12.1580   -5.0797 H         1 BNK         0.0283
     24 H2          9.7683  -11.4548   -5.0962 H         1 BNK         0.0283
     25 H3         10.4262  -13.2254   -3.8183 H         1 BNK         0.0266
     26 H4          8.7263  -13.7449   -3.5593 H         1 BNK         0.0266
     27 H5         10.4507  -11.9224   -1.9473 H         1 BNK         0.0266
     28 H6          9.1476  -13.0452   -1.4297 H         1 BNK         0.0266
     29 H7          8.7985  -10.4084   -1.4926 H         1 BNK         0.0283
     30 H8          7.4840  -11.5556   -1.9203 H         1 BNK         0.0283
     31 H9          7.4590  -10.3447   -3.8627 H         1 BNK         0.0511
     32 H10        10.3485   -9.7035   -3.7225 H         1 BNK         0.1676
     33 H11        10.0261   -6.6156   -1.6028 H         1 BNK         0.0618
     34 H12         5.7936   -8.0801    0.4351 H         1 BNK         0.0615
     35 H13         7.3790   -6.7294    1.7590 H         1 BNK         0.0598
     36 H14         8.5484   -4.7980    2.4721 H         1 BNK         0.0486
     37 H15        11.4631   -6.2546   -0.2775 H         1 BNK         0.2243
@<TRIPOS>BOND
     1    1    2 1  
     2    1    5 1  
     3    2    3 1  
     4    3    4 1  
     5    4    5 1  
     6    5    6 1  
     7    6    7 am 
     8    7    8 2  
     9    7    9 2  
    10    7   10 1  
    11   10   11 ar 
    12   10   12 ar 
    13   11   16 ar 
    14   12   13 1  
    15   12   14 ar 
    16   14   15 ar 
    17   15   16 ar 
    18   16   17 1  
    19   17   18 2  
    20   17   22 1  
    21   18   19 1  
    22   19   20 1  
    23   20   21 2  
    24   20   22 am 
    25    1   23 1  
    26    1   24 1  
    27    2   25 1  
    28    2   26 1  
    29    3   27 1  
    30    3   28 1  
    31    4   29 1  
    32    4   30 1  
    33    5   31 1  
    34    6   32 1  
    35   11   33 1  
    36   14   34 1  
    37   15   35 1  
    38   18   36 1  
    39   22   37 1  
@<TRIPOS>SUBSTRUCTURE
     1 BNK         1

