### 
### Created by X-TOOL on Mon Sep 10 21:13:22 2018
### 

@<TRIPOS>MOLECULE
4qr5_ligand
   48    51     1     0     0
SMALL
GAST_HUCK


@<TRIPOS>ATOM
      1 O01        -4.7190   -6.8130   -2.5670 O.2       1 BNM        -0.3847
      2 C02        -4.1020   -7.5580   -1.8030 C.2       1 BNM         0.2065
      3 N03        -4.7010   -8.1300   -0.7110 N.am      1 BNM        -0.2345
      4 C04        -6.1330   -7.9710   -0.2350 C.ar      1 BNM         0.0651
      5 C05        -7.0330   -7.1620   -0.8100 C.ar      1 BNM        -0.0365
      6 C06        -8.3440   -7.0870   -0.2970 C.ar      1 BNM        -0.0152
      7 C07        -9.3280   -6.1750   -0.9230 C.2       1 BNM         0.0680
      8 C08        -8.9450   -5.2770   -1.9740 C.2       1 BNM         0.0074
      9 S09       -10.3520   -4.4000   -2.3680 S.3       1 BNM         0.0027
     10 C10       -11.3700   -5.2010   -1.1530 C.2       1 BNM         0.2684
     11 O11       -12.5110   -4.9800   -0.9610 O.2       1 BNM        -0.3825
     12 N12       -10.6320   -6.0890   -0.5200 N.am      1 BNM        -0.2329
     13 C13        -8.6660   -7.7700    0.7570 C.ar      1 BNM        -0.0447
     14 C14        -7.7260   -8.6180    1.3550 C.ar      1 BNM         0.0929
     15 S15        -8.1310   -9.5980    2.8610 S.o2      1 BNM         0.0646
     16 O16        -9.1380  -10.5040    2.6150 O.2       1 BNM        -0.1506
     17 O17        -6.9750  -10.4590    3.2390 O.2       1 BNM        -0.1506
     18 N18        -8.5860   -8.5450    4.0110 N.am      1 BNM        -0.2447
     19 C19        -7.5210   -7.7120    4.5200 C.3       1 BNM         0.0378
     20 C20        -7.1940   -6.5420    3.6480 C.3       1 BNM        -0.0333
     21 C21        -6.8720   -5.3130    4.5450 C.3       1 BNM        -0.0513
     22 C22        -7.4700   -5.5920    5.8770 C.3       1 BNM        -0.0513
     23 C23        -7.9530   -7.1220    5.8590 C.3       1 BNM        -0.0333
     24 C24        -6.4740   -8.6960    0.8650 C.ar      1 BNM        -0.0173
     25 C25        -2.6460   -7.9060   -2.0030 C.3       1 BNM         0.0548
     26 C26        -2.1100   -6.7150   -2.8620 C.3       1 BNM        -0.0304
     27 C27        -2.5430   -8.0370   -3.5560 C.3       1 BNM        -0.0304
     28 H1         -4.1208   -8.7279   -0.1579 H         1 BNM         0.2254
     29 H2         -6.7529   -6.5648   -1.6702 H         1 BNM         0.0476
     30 H3         -7.9595   -5.1765   -2.4263 H         1 BNM         0.0486
     31 H4        -11.0018   -6.6643    0.2095 H         1 BNM         0.2244
     32 H5         -9.6625   -7.6845    1.1750 H         1 BNM         0.0493
     33 H6         -9.5279   -8.4786    4.3403 H         1 BNM         0.1675
     34 H7         -6.6210   -8.3313    4.6484 H         1 BNM         0.0511
     35 H8         -8.0545   -6.3116    3.0027 H         1 BNM         0.0283
     36 H9         -6.3207   -6.7809    3.0233 H         1 BNM         0.0283
     37 H10        -7.3134   -4.4023    4.1140 H         1 BNM         0.0266
     38 H11        -5.7834   -5.1848    4.6369 H         1 BNM         0.0266
     39 H12        -8.3278   -4.9265    6.0536 H         1 BNM         0.0266
     40 H13        -6.7201   -5.4413    6.6675 H         1 BNM         0.0266
     41 H14        -7.4829   -7.6760    6.6849 H         1 BNM         0.0283
     42 H15        -9.0472   -7.1736    5.9588 H         1 BNM         0.0283
     43 H16        -5.7407   -9.3339    1.3450 H         1 BNM         0.0502
     44 H17        -2.1119   -8.4814   -1.2325 H         1 BNM         0.0543
     45 H18        -1.0457   -6.4406   -2.8177 H         1 BNM         0.0294
     46 H19        -2.7183   -5.8064   -2.9821 H         1 BNM         0.0294
     47 H20        -3.4573   -8.0628   -4.1670 H         1 BNM         0.0294
     48 H21        -1.7847   -8.6969   -4.0026 H         1 BNM         0.0294
@<TRIPOS>BOND
     1    1    2 2  
     2    2    3 am 
     3    2   25 1  
     4    3    4 1  
     5    4    5 ar 
     6    4   24 ar 
     7    5    6 ar 
     8    6    7 1  
     9    6   13 ar 
    10    7    8 2  
    11    7   12 1  
    12    8    9 1  
    13    9   10 1  
    14   10   11 2  
    15   10   12 am 
    16   13   14 ar 
    17   14   15 1  
    18   14   24 ar 
    19   15   16 2  
    20   15   17 2  
    21   15   18 am 
    22   18   19 1  
    23   19   20 1  
    24   19   23 1  
    25   20   21 1  
    26   21   22 1  
    27   22   23 1  
    28   25   26 1  
    29   25   27 1  
    30   26   27 1  
    31    3   28 1  
    32    5   29 1  
    33    8   30 1  
    34   12   31 1  
    35   13   32 1  
    36   18   33 1  
    37   19   34 1  
    38   20   35 1  
    39   20   36 1  
    40   21   37 1  
    41   21   38 1  
    42   22   39 1  
    43   22   40 1  
    44   23   41 1  
    45   23   42 1  
    46   24   43 1  
    47   25   44 1  
    48   26   45 1  
    49   26   46 1  
    50   27   47 1  
    51   27   48 1  
@<TRIPOS>SUBSTRUCTURE
     1 BNM         1

