### 
### Created by X-TOOL on Mon Sep 10 21:13:17 2018
### 

@<TRIPOS>MOLECULE
4qrc_ligand
   68    72     1     0     0
SMALL
GAST_HUCK


@<TRIPOS>ATOM
      1 N1         48.4550    2.7390   83.3570 N.2       1 0LI        -0.3247
      2 N3         52.0120    0.6670   67.7030 N.4       1 0LI         0.2588
      3 C4         49.9250   -0.1510   79.8030 C.1       1 0LI        -0.0766
      4 C5         50.6770   -0.8530   78.7160 C.ar      1 0LI         0.0257
      5 C6         51.3080   -2.0950   78.8750 C.ar      1 0LI        -0.0273
      6 C7         51.9840   -2.6960   77.8180 C.ar      1 0LI        -0.0547
      7 C8         52.0390   -2.0720   76.5930 C.ar      1 0LI        -0.0494
      8 C10        50.7320   -0.2110   77.4950 C.ar      1 0LI        -0.0347
      9 C13        52.2830    0.0230   72.6870 C.ar      1 0LI         0.0879
     10 C15        52.2980   -0.2180   70.2630 C.ar      1 0LI        -0.0316
     11 C17        52.4260    1.9780   71.2320 C.ar      1 0LI         0.0386
     12 C20        52.4490    1.6360   68.6660 C.3       1 0LI         0.0130
     13 C21        50.5770    0.7500   67.4830 C.3       1 0LI         0.0114
     14 C22        50.0940   -0.3010   66.5570 C.3       1 0LI         0.0092
     15 C24        52.8820    0.5840   66.5270 C.3       1 0LI         0.0114
     16 C81        45.9940    2.5720   83.6190 C.2       1 0LI         0.0052
     17 C82        44.8910    1.9260   83.0960 C.2       1 0LI        -0.0245
     18 C83        45.0280    1.0340   82.0710 C.2       1 0LI         0.0552
     19 N81        46.2310    0.7630   81.5450 N.2       1 0LI        -0.1413
     20 N82        47.3560    1.3830   82.0340 N.pl3     1 0LI        -0.1187
     21 C84        47.2490    2.2870   83.0730 C.2       1 0LI         0.1691
     22 C1         49.3510    2.1840   82.5590 C.2       1 0LI        -0.0017
     23 C2         48.6820    1.3180   81.7040 C.2       1 0LI         0.1589
     24 C3         49.3380    0.4810   80.6560 C.1       1 0LI        -0.0467
     25 C9         51.4190   -0.8480   76.4610 C.ar      1 0LI         0.0483
     26 C11        51.2680   -2.8040   80.1940 C.3       1 0LI        -0.0278
     27 C12        51.4320   -0.0870   75.1730 C.2       1 0LI         0.2262
     28 O1         50.7690    0.9430   75.2710 O.2       1 0LI        -0.3767
     29 N2         52.2010   -0.6070   74.0160 N.am      1 0LI        -0.2315
     30 C14        52.2440   -0.7680   71.5430 C.ar      1 0LI        -0.0148
     31 C16        52.3840    1.1350   70.0990 C.ar      1 0LI         0.0246
     32 C18        52.3690    1.4290   72.5340 C.ar      1 0LI        -0.0202
     33 C19        52.5130    3.4640   71.0430 C.3       1 0LI         0.3645
     34 F1         53.7000    3.7550   70.5200 F         1 0LI        -0.2292
     35 F2         52.3240    4.0730   72.2210 F         1 0LI        -0.2292
     36 F3         51.5790    3.8680   70.2070 F         1 0LI        -0.2292
     37 C23        52.2390   -0.1640   65.3700 C.3       1 0LI         0.0092
     38 C25        50.1580   -0.5850   64.1430 C.3       1 0LI        -0.0427
     39 N4         50.7780   -0.0840   65.3240 N.4       1 0LI         0.2405
     40 H          52.1386   -0.2246   68.1559 H         1 0LI         0.2058
     41 H          52.4674   -3.6559   77.9595 H         1 0LI         0.0565
     42 H          52.5547   -2.5294   75.7564 H         1 0LI         0.0639
     43 H          50.2588    0.7527   77.3451 H         1 0LI         0.0649
     44 H          52.2716   -0.8667   69.3949 H         1 0LI         0.0616
     45 H          51.8097    2.5269   68.5789 H         1 0LI         0.1043
     46 H          53.4903    1.9082   68.4388 H         1 0LI         0.1043
     47 H          50.3399    1.7355   67.0557 H         1 0LI         0.0868
     48 H          50.0628    0.6356   68.4486 H         1 0LI         0.0868
     49 H          49.0072   -0.2124   66.4118 H         1 0LI         0.0868
     50 H          50.3306   -1.2989   66.9547 H         1 0LI         0.0868
     51 H          53.8081    0.0628   66.8110 H         1 0LI         0.0868
     52 H          53.1227    1.6047   66.1951 H         1 0LI         0.0868
     53 H          45.8888    3.2849   84.4355 H         1 0LI         0.0752
     54 H          43.9025    2.1299   83.5049 H         1 0LI         0.0701
     55 H          44.1453    0.5345   81.6743 H         1 0LI         0.0937
     56 H          50.4235    2.3725   82.5701 H         1 0LI         0.0575
     57 H          50.6997   -2.2009   80.9174 H         1 0LI         0.0404
     58 H          52.2938   -2.9492   80.5635 H         1 0LI         0.0404
     59 H          50.7810   -3.7825   80.0697 H         1 0LI         0.0404
     60 H          52.7075   -1.4588   74.1498 H         1 0LI         0.2238
     61 H          52.1694   -1.8441   71.6501 H         1 0LI         0.0763
     62 H          52.3908    2.0755   73.4038 H         1 0LI         0.0655
     63 H          52.5214   -1.2242   65.4487 H         1 0LI         0.0868
     64 H          52.6342    0.2521   64.4316 H         1 0LI         0.0868
     65 H          49.0670   -0.4715   64.2253 H         1 0LI         0.0778
     66 H          50.4077   -1.6493   64.0210 H         1 0LI         0.0778
     67 H          50.5205   -0.0209   63.2710 H         1 0LI         0.0778
     68 H          50.6429    0.9076   65.2038 H         1 0LI         0.2035
@<TRIPOS>BOND
     1    1   21 2  
     2   22    1 1  
     3   12    2 1  
     4    2   13 1  
     5    2   15 1  
     6    4    3 1  
     7    3   24 3  
     8    4    5 ar 
     9    8    4 ar 
    10    6    5 ar 
    11    5   26 1  
    12    7    6 ar 
    13   25    7 ar 
    14   25    8 ar 
    15   29    9 1  
    16    9   30 ar 
    17    9   32 ar 
    18   30   10 ar 
    19   10   31 ar 
    20   11   31 ar 
    21   32   11 ar 
    22   11   33 1  
    23   31   12 1  
    24   13   14 1  
    25   14   39 1  
    26   15   37 1  
    27   16   17 2  
    28   21   16 1  
    29   18   17 1  
    30   19   18 2  
    31   20   19 1  
    32   20   21 1  
    33   23   20 1  
    34   23   22 2  
    35   24   23 1  
    36   27   25 1  
    37   27   28 2  
    38   27   29 am 
    39   33   34 1  
    40   33   35 1  
    41   33   36 1  
    42   37   39 1  
    43   39   38 1  
    44    2   40 1  
    45    6   41 1  
    46    7   42 1  
    47    8   43 1  
    48   10   44 1  
    49   12   45 1  
    50   12   46 1  
    51   13   47 1  
    52   13   48 1  
    53   14   49 1  
    54   14   50 1  
    55   15   51 1  
    56   15   52 1  
    57   16   53 1  
    58   17   54 1  
    59   18   55 1  
    60   22   56 1  
    61   26   57 1  
    62   26   58 1  
    63   26   59 1  
    64   29   60 1  
    65   30   61 1  
    66   32   62 1  
    67   37   63 1  
    68   37   64 1  
    69   38   65 1  
    70   38   66 1  
    71   38   67 1  
    72   39   68 1  
@<TRIPOS>SUBSTRUCTURE
     1 0LI         1

