### 
### Created by X-TOOL on Mon Sep 10 21:13:17 2018
### 

@<TRIPOS>MOLECULE
4qsu_ligand
   15    15     1     0     0
SMALL
GAST_HUCK


@<TRIPOS>ATOM
      1 N1         26.9440   45.8230  -10.8790 N.2       1 TDR        -0.2294
      2 C2         27.1450   44.8740  -11.8150 C.2       1 TDR         0.2738
      3 O2         28.2230   44.7540  -12.4420 O.2       1 TDR        -0.3742
      4 N3         26.2140   43.9550  -12.1000 N.am      1 TDR        -0.1893
      5 C4         25.0170   43.9480  -11.4890 C.2       1 TDR         0.2298
      6 O4         24.2220   43.0670  -11.8770 O.2       1 TDR        -0.3821
      7 C5         24.7380   44.9880  -10.4570 C.3       1 TDR         0.1156
      8 CM5        23.4320   45.0580   -9.6950 C.3       1 TDR        -0.0252
      9 C6         25.7650   45.9180  -10.2040 C.2       1 TDR         0.0479
     10 H          26.4146   43.2553  -12.7857 H         1 TDR         0.2267
     11 H          24.3120   45.6466  -11.2282 H         1 TDR         0.0844
     12 H          23.4619   45.9045   -8.9932 H         1 TDR         0.0295
     13 H          23.2835   44.1228   -9.1352 H         1 TDR         0.0295
     14 H          22.6016   45.1976  -10.4027 H         1 TDR         0.0295
     15 H          25.6169   46.7100   -9.4714 H         1 TDR         0.1336
@<TRIPOS>BOND
     1    1    2 1  
     2    1    9 2  
     3    2    3 2  
     4    2    4 am 
     5    4    5 am 
     6    5    6 2  
     7    5    7 1  
     8    7    8 1  
     9    7    9 1  
    10    4   10 1  
    11    7   11 1  
    12    8   12 1  
    13    8   13 1  
    14    8   14 1  
    15    9   15 1  
@<TRIPOS>SUBSTRUCTURE
     1 TDR         1

