### 
### Created by X-TOOL on Mon Sep 10 21:13:17 2018
### 

@<TRIPOS>MOLECULE
4qsv_ligand
   31    32     1     0     0
SMALL
GAST_HUCK


@<TRIPOS>ATOM
      1 O5'        25.7640   48.8600   -9.1310 O.3       1 THM        -0.3924
      2 C5'        27.0050   49.2140   -8.5070 C.3       1 THM         0.0729
      3 C4'        28.1450   48.6300   -9.3280 C.3       1 THM         0.1109
      4 O4'        28.0660   47.2030   -9.2470 O.3       1 THM        -0.3399
      5 C3'        28.0740   49.0220  -10.8100 C.3       1 THM         0.0885
      6 O3'        29.1850   49.8360  -11.2330 O.3       1 THM        -0.3890
      7 C2'        28.0600   47.7220  -11.5820 C.3       1 THM         0.0308
      8 C1'        28.1230   46.6090  -10.5500 C.3       1 THM         0.1756
      9 N1         27.0140   45.6890  -10.8580 N.am      1 THM        -0.1736
     10 C2         27.2130   44.7310  -11.8990 C.2       1 THM         0.3265
     11 O2         28.2890   44.6090  -12.5360 O.2       1 THM        -0.3843
     12 N3         26.2440   43.8870  -12.2400 N.am      1 THM        -0.1859
     13 C4         25.0590   43.9000  -11.6290 C.2       1 THM         0.1930
     14 O4         24.2670   43.0530  -12.0160 O.2       1 THM        -0.4079
     15 C5         24.7840   44.8690  -10.5390 C.2       1 THM         0.0225
     16 C5M        23.4590   44.9280   -9.8100 C.3       1 THM        -0.0437
     17 C6         25.8220   45.7590  -10.2090 C.2       1 THM         0.0524
     18 H          25.0435   49.2195   -8.6269 H         1 THM         0.2095
     19 H          27.0363   48.8054   -7.4862 H         1 THM         0.0584
     20 H          27.1005   50.3091   -8.4668 H         1 THM         0.0584
     21 H          29.1014   48.9779   -8.9105 H         1 THM         0.0646
     22 H          27.1432   49.5782  -10.9951 H         1 THM         0.0622
     23 H          29.2012   50.6375  -10.7231 H         1 THM         0.2099
     24 H          28.9303   47.6685  -12.2526 H         1 THM         0.0344
     25 H          27.1359   47.6406  -12.1732 H         1 THM         0.0344
     26 H          29.0727   46.0616  -10.6417 H         1 THM         0.0959
     27 H          26.4079   43.2263  -12.9726 H         1 THM         0.2259
     28 H          23.4942   45.7216   -9.0491 H         1 THM         0.0296
     29 H          23.2653   43.9611   -9.3225 H         1 THM         0.0296
     30 H          22.6545   45.1442  -10.5284 H         1 THM         0.0296
     31 H          25.6701   46.5061   -9.4314 H         1 THM         0.1011
@<TRIPOS>BOND
     1    1    2 1  
     2    2    3 1  
     3    3    4 1  
     4    3    5 1  
     5    4    8 1  
     6    5    6 1  
     7    5    7 1  
     8    7    8 1  
     9    8    9 1  
    10    9   10 am 
    11    9   17 1  
    12   10   11 2  
    13   10   12 am 
    14   12   13 am 
    15   13   14 2  
    16   13   15 1  
    17   15   16 1  
    18   15   17 2  
    19    1   18 1  
    20    2   19 1  
    21    2   20 1  
    22    3   21 1  
    23    5   22 1  
    24    6   23 1  
    25    7   24 1  
    26    7   25 1  
    27    8   26 1  
    28   12   27 1  
    29   16   28 1  
    30   16   29 1  
    31   16   30 1  
    32   17   31 1  
@<TRIPOS>SUBSTRUCTURE
     1 THM         1

