### 
### Created by X-TOOL on Mon Sep 10 21:13:17 2018
### 

@<TRIPOS>MOLECULE
4qsw_ligand
   32    33     1     0     0
SMALL
GAST_HUCK


@<TRIPOS>ATOM
      1 OAC        28.3340   44.4720  -12.7040 O.2       1 38T        -0.3912
      2 CAM        27.3170   44.5790  -12.0070 C.2       1 38T         0.2938
      3 NAI        26.2940   43.7250  -12.3280 N.am      1 38T        -0.1838
      4 CAL        25.0670   43.7310  -11.6440 C.2       1 38T         0.2357
      5 OAB        24.2750   42.8900  -12.0400 O.2       1 38T        -0.3727
      6 CAK        24.8570   44.6220  -10.6040 C.2       1 38T         0.0510
      7 CAA        23.6520   44.6620   -9.8460 C.2       1 38T        -0.0870
      8 CAG        25.9160   45.5060  -10.2860 C.3       1 38T         0.0798
      9 NAR        27.1460   45.4730  -10.9970 N.am      1 38T        -0.2134
     10 C1'        28.2490   46.4180  -10.6730 C.3       1 38T         0.1769
     11 O4'        28.1620   46.9920   -9.3010 O.3       1 38T        -0.3434
     12 C4'        27.8870   48.4340   -9.4480 C.3       1 38T         0.1128
     13 C5'        26.9430   48.9610   -8.3790 C.3       1 38T         0.0730
     14 O5'        25.6950   48.3380   -8.6880 O.3       1 38T        -0.3924
     15 C3'        27.2890   48.5760  -10.8810 C.3       1 38T         0.1138
     16 O3'        27.3890   49.9560  -11.3950 O.3       1 38T        -0.3864
     17 C2'        28.1850   47.6210  -11.6540 C.3       1 38T         0.1309
     18 O2'        29.5090   48.2230  -11.8960 O.3       1 38T        -0.3844
     19 H          26.4258   43.0744  -13.0759 H         1 38T         0.2247
     20 H          23.5405   45.3839   -9.0383 H         1 38T         0.0457
     21 H          22.8421   43.9707  -10.0741 H         1 38T         0.0457
     22 H          26.1630   45.3278   -9.2290 H         1 38T         0.0694
     23 H          25.5167   46.5243  -10.4027 H         1 38T         0.0694
     24 H          29.2079   45.8904  -10.7832 H         1 38T         0.0897
     25 H          28.8289   48.9982   -9.3815 H         1 38T         0.0647
     26 H          26.8588   50.0563   -8.4362 H         1 38T         0.0584
     27 H          27.2873   48.6716   -7.3752 H         1 38T         0.0584
     28 H          25.0392   48.6165   -8.0597 H         1 38T         0.2095
     29 H          26.2374   48.2545  -10.9102 H         1 38T         0.0647
     30 H          28.3025   50.2144  -11.4297 H         1 38T         0.2100
     31 H          27.7353   47.3301  -12.6148 H         1 38T         0.0668
     32 H          29.4052   49.0215  -12.4002 H         1 38T         0.2101
@<TRIPOS>BOND
     1    1    2 2  
     2    2    3 am 
     3    2    9 am 
     4    3    4 am 
     5    4    5 2  
     6    4    6 1  
     7    6    7 2  
     8    6    8 1  
     9    8    9 1  
    10    9   10 1  
    11   10   11 1  
    12   10   17 1  
    13   11   12 1  
    14   12   13 1  
    15   12   15 1  
    16   13   14 1  
    17   15   16 1  
    18   15   17 1  
    19   17   18 1  
    20    3   19 1  
    21    7   20 1  
    22    7   21 1  
    23    8   22 1  
    24    8   23 1  
    25   10   24 1  
    26   12   25 1  
    27   13   26 1  
    28   13   27 1  
    29   14   28 1  
    30   15   29 1  
    31   16   30 1  
    32   17   31 1  
    33   18   32 1  
@<TRIPOS>SUBSTRUCTURE
     1 38T         1

