### 
### Created by X-TOOL on Mon Sep 10 21:13:18 2018
### 

@<TRIPOS>MOLECULE
4qsx_ligand
   30    31     1     0     0
SMALL
GAST_HUCK


@<TRIPOS>ATOM
      1 OAC        28.4180   44.2780  -12.3590 O.2       1 38S        -0.3912
      2 CAM        27.3170   44.4440  -11.8390 C.2       1 38S         0.2937
      3 NAI        26.3260   43.5470  -12.1690 N.am      1 38S        -0.1838
      4 CAL        25.0400   43.6540  -11.6270 C.2       1 38S         0.2357
      5 OAB        24.2580   42.7900  -11.9840 O.2       1 38S        -0.3727
      6 CAK        24.7450   44.6540  -10.7100 C.2       1 38S         0.0510
      7 CAA        23.4740   44.8010  -10.1190 C.2       1 38S        -0.0870
      8 CAE        25.7660   45.5510  -10.3800 C.3       1 38S         0.0797
      9 NAP        27.0560   45.4280  -10.9610 N.am      1 38S        -0.2160
     10 CAO        28.1120   46.3960  -10.5950 C.3       1 38S         0.1488
     11 OAJ        28.1000   46.5760   -9.1750 O.3       1 38S        -0.3488
     12 CAH        27.7500   47.7000  -11.1860 C.3       1 38S        -0.0024
     13 CAG        28.5760   48.5900  -10.3480 C.3       1 38S        -0.0201
     14 CAN        28.4650   47.9440   -8.9450 C.3       1 38S         0.0845
     15 CAF        27.4490   48.6460   -8.0340 C.3       1 38S         0.0705
     16 OAD        26.2350   48.7740   -8.8130 O.3       1 38S        -0.3925
     17 H          26.5289   42.8050  -12.8080 H         1 38S         0.2247
     18 H          23.2951   45.6033   -9.4047 H         1 38S         0.0457
     19 H          22.6708   44.1122  -10.3766 H         1 38S         0.0457
     20 H          25.9044   45.4825   -9.2909 H         1 38S         0.0694
     21 H          25.3987   46.5546  -10.6406 H         1 38S         0.0694
     22 H          29.0975   46.0553  -10.9451 H         1 38S         0.0869
     23 H          26.6767   47.9151  -11.0775 H         1 38S         0.0312
     24 H          28.0306   47.7605  -12.2479 H         1 38S         0.0312
     25 H          28.1759   49.6146  -10.3448 H         1 38S         0.0292
     26 H          29.6196   48.6049  -10.6955 H         1 38S         0.0292
     27 H          29.4476   47.9836   -8.4521 H         1 38S         0.0620
     28 H          27.8210   49.6387   -7.7404 H         1 38S         0.0583
     29 H          27.2630   48.0429   -7.1331 H         1 38S         0.0583
     30 H          26.4122   49.2894   -9.5911 H         1 38S         0.2095
@<TRIPOS>BOND
     1    1    2 2  
     2    2    3 am 
     3    2    9 am 
     4    3    4 am 
     5    4    5 2  
     6    4    6 1  
     7    6    7 2  
     8    6    8 1  
     9    8    9 1  
    10    9   10 1  
    11   10   11 1  
    12   10   12 1  
    13   11   14 1  
    14   12   13 1  
    15   13   14 1  
    16   14   15 1  
    17   15   16 1  
    18    3   17 1  
    19    7   18 1  
    20    7   19 1  
    21    8   20 1  
    22    8   21 1  
    23   10   22 1  
    24   12   23 1  
    25   12   24 1  
    26   13   25 1  
    27   13   26 1  
    28   14   27 1  
    29   15   28 1  
    30   15   29 1  
    31   16   30 1  
@<TRIPOS>SUBSTRUCTURE
     1 38S         1

