### 
### Created by X-TOOL on Mon Sep 10 21:13:24 2018
### 

@<TRIPOS>MOLECULE
4qt1_ligand
   50    52     1     0     0
SMALL
GAST_HUCK


@<TRIPOS>ATOM
      1 S1          4.6240  -15.7030   -5.5220 S.o2      1 3C9         0.0417
      2 N2          3.4380  -16.6520   -6.2020 N.am      1 3C9        -0.2363
      3 C3         -0.4080  -18.0550   -4.3940 C.2       1 3C9         0.2915
      4 N4         -1.3470  -17.3490   -3.7080 N.am      1 3C9        -0.2034
      5 N5         -0.1790  -15.2870   -3.9880 N.ar      1 3C9        -0.2906
      6 C6         -1.3100  -13.2330   -3.4000 C.ar      1 3C9         0.1497
      7 C7         -1.2610  -15.9620   -3.5850 C.ar      1 3C9         0.1479
      8 C8         -0.1690  -13.9360   -3.9100 C.ar      1 3C9         0.0461
      9 N9         -2.3910  -13.9250   -3.0020 N.ar      1 3C9        -0.2718
     10 C10         3.0850  -17.9250   -5.5140 C.3       1 3C9         0.0520
     11 N11        -1.0260  -11.8900   -3.4250 N.pl3     1 3C9        -0.2631
     12 C12         0.8260  -12.9110   -4.2410 C.2       1 3C9        -0.0452
     13 N13         0.6870  -17.4740   -4.9290 N.am      1 3C9        -0.2626
     14 O14         4.3270  -14.3800   -5.9930 O.2       1 3C9        -0.1553
     15 O15         4.5620  -15.9840   -4.1390 O.2       1 3C9        -0.1553
     16 C16         0.2480  -11.7280   -3.9410 C.2       1 3C9         0.0310
     17 O17        -0.5330  -19.2570   -4.5350 O.2       1 3C9        -0.3888
     18 C18         1.6140  -18.3040   -5.7100 C.3       1 3C9         0.0600
     19 C19        -2.3800  -15.2610   -3.0910 C.ar      1 3C9         0.0486
     20 C20         6.0840  -16.4680   -6.2820 C.3       1 3C9         0.0869
     21 C21         2.8400  -16.2100   -7.4860 C.3       1 3C9         0.0294
     22 C22         1.3500  -16.5690   -7.5620 C.3       1 3C9        -0.0338
     23 C23         1.1880  -18.0540   -7.1750 C.3       1 3C9        -0.0271
     24 C24         7.3430  -15.6820   -5.9300 C.3       1 3C9        -0.0256
     25 C25         7.6190  -15.8890   -4.4480 C.3       1 3C9        -0.0611
     26 C26         8.5240  -16.2820   -6.7170 C.3       1 3C9        -0.0611
     27 H1         -2.1127  -17.8330   -3.2843 H         1 3C9         0.2305
     28 H2          3.2803  -17.8111   -4.4375 H         1 3C9         0.0500
     29 H3          3.7147  -18.7315   -5.9177 H         1 3C9         0.0500
     30 H4         -1.6525  -11.1340   -3.1137 H         1 3C9         0.2309
     31 H5          1.8245  -13.0707   -4.6452 H         1 3C9         0.0311
     32 H6          0.8634  -16.4987   -4.7964 H         1 3C9         0.1857
     33 H7          0.7274  -10.7613   -4.0877 H         1 3C9         0.1008
     34 H8          1.4842  -19.3635   -5.4442 H         1 3C9         0.0570
     35 H9         -3.2545  -15.8182   -2.7749 H         1 3C9         0.0757
     36 H10         5.9587  -16.4804   -7.3748 H         1 3C9         0.0521
     37 H11         6.1860  -17.4992   -5.9128 H         1 3C9         0.0521
     38 H12         3.3694  -16.7016   -8.3155 H         1 3C9         0.0478
     39 H13         2.9504  -15.1192   -7.5757 H         1 3C9         0.0478
     40 H14         0.9808  -16.4093   -8.5858 H         1 3C9         0.0281
     41 H15         0.7796  -15.9386   -6.8640 H         1 3C9         0.0281
     42 H16         0.1333  -18.3423   -7.2954 H         1 3C9         0.0288
     43 H17         1.8140  -18.6675   -7.8396 H         1 3C9         0.0288
     44 H18         7.2178  -14.6143   -6.1630 H         1 3C9         0.0312
     45 H19         8.5240  -15.3328   -4.1624 H         1 3C9         0.0233
     46 H20         7.7691  -16.9604   -4.2491 H         1 3C9         0.0233
     47 H21         6.7635  -15.5234   -3.8611 H         1 3C9         0.0233
     48 H22         8.3525  -16.1470   -7.7951 H         1 3C9         0.0233
     49 H23         8.6080  -17.3552   -6.4906 H         1 3C9         0.0233
     50 H24         9.4546  -15.7721   -6.4272 H         1 3C9         0.0233
@<TRIPOS>BOND
     1    2    1 am 
     2    1   14 2  
     3    1   15 2  
     4    1   20 1  
     5   10    2 1  
     6    2   21 1  
     7    3    4 am 
     8   13    3 am 
     9    3   17 2  
    10    4    7 1  
    11    7    5 ar 
    12    5    8 ar 
    13    8    6 ar 
    14    9    6 ar 
    15    6   11 1  
    16    7   19 ar 
    17    8   12 1  
    18   19    9 ar 
    19   18   10 1  
    20   11   16 1  
    21   12   16 2  
    22   13   18 1  
    23   18   23 1  
    24   20   24 1  
    25   21   22 1  
    26   22   23 1  
    27   24   25 1  
    28   24   26 1  
    29    4   27 1  
    30   10   28 1  
    31   10   29 1  
    32   11   30 1  
    33   12   31 1  
    34   13   32 1  
    35   16   33 1  
    36   18   34 1  
    37   19   35 1  
    38   20   36 1  
    39   20   37 1  
    40   21   38 1  
    41   21   39 1  
    42   22   40 1  
    43   22   41 1  
    44   23   42 1  
    45   23   43 1  
    46   24   44 1  
    47   25   45 1  
    48   25   46 1  
    49   25   47 1  
    50   26   48 1  
    51   26   49 1  
    52   26   50 1  
@<TRIPOS>SUBSTRUCTURE
     1 3C9         1

