### 
### Created by X-TOOL on Mon Sep 10 21:13:20 2018
### 

@<TRIPOS>MOLECULE
4qt2_ligand
  148   151     1     0     0
SMALL
GAST_HUCK


@<TRIPOS>ATOM
      1 C1          4.6070   16.7480   15.9780 C.2       1 RAP         0.2604
      2 O1          3.7830   17.6570   16.6100 O.3       1 RAP        -0.2690
      3 O2          5.6190   17.1370   15.4470 O.2       1 RAP        -0.3678
      4 C2          4.2150   15.3130   16.0030 C.3       1 RAP         0.1457
      5 C3          4.2150   14.7740   14.5940 C.3       1 RAP        -0.0106
      6 C4          3.0480   15.2820   13.7810 C.3       1 RAP        -0.0469
      7 C5          1.7730   14.9440   14.4230 C.3       1 RAP        -0.0320
      8 C6          1.7070   15.5300   15.8120 C.3       1 RAP         0.0376
      9 N7          2.8930   15.1180   16.5910 N.am      1 RAP        -0.2402
     10 C8          2.8580   14.5600   17.8850 C.2       1 RAP         0.2778
     11 O3          3.8650   14.2670   18.4470 O.2       1 RAP        -0.3605
     12 C9          1.5800   14.3500   18.5790 C.2       1 RAP         0.2928
     13 O4          1.0420   13.3820   18.3730 O.2       1 RAP        -0.2853
     14 C10         0.8560   15.3290   19.2770 C.3       1 RAP         0.2514
     15 O5          0.1470   16.1380   18.3700 O.3       1 RAP        -0.3445
     16 O6         -0.1610   14.6520   20.0640 O.3       1 RAP        -0.3640
     17 C11         1.5460   16.0130   20.3710 C.3       1 RAP         0.0171
     18 C12         1.0870   17.3360   20.7970 C.3       1 RAP        -0.0442
     19 C13         0.4230   18.1320   19.7310 C.3       1 RAP        -0.0264
     20 C14        -0.5080   17.3260   18.8760 C.3       1 RAP         0.0623
     21 C15        -0.9690   18.0640   17.6300 C.3       1 RAP         0.0001
     22 C16        -2.0590   19.0920   17.9440 C.3       1 RAP         0.0653
     23 O7         -3.2000   18.4550   18.4510 O.3       1 RAP        -0.3792
     24 C17        -2.4990   19.9150   16.7690 C.3       1 RAP        -0.0078
     25 C18        -1.6320   21.0850   16.5080 C.3       1 RAP        -0.0227
     26 C19        -1.9180   21.8710   15.2800 C.2       1 RAP        -0.0869
     27 C20        -1.3870   23.1180   15.2930 C.2       1 RAP        -0.0905
     28 C21        -1.2940   23.9640   14.0660 C.2       1 RAP        -0.0903
     29 C22        -0.6500   25.1660   14.1560 C.2       1 RAP        -0.0843
     30 C23        -0.4650   25.9820   12.9300 C.3       1 RAP        -0.0163
     31 C24         0.9850   26.4760   12.8890 C.3       1 RAP        -0.0222
     32 C25         2.0740   25.4420   12.6700 C.3       1 RAP         0.0347
     33 C26         3.4010   25.8470   13.1520 C.2       1 RAP         0.1392
     34 O8          4.0720   26.4340   12.3370 O.2       1 RAP        -0.3885
     35 C27         4.0340   25.6440   14.4640 C.3       1 RAP         0.1568
     36 O9          5.0080   26.5540   14.7330 O.3       1 RAP        -0.3579
     37 C28         4.3190   24.2770   14.9200 C.3       1 RAP         0.1000
     38 O10         5.0960   23.8140   13.8410 O.3       1 RAP        -0.3865
     39 C29         3.0370   23.5350   15.1760 C.3       1 RAP        -0.0108
     40 C30         2.9220   22.3510   14.3170 C.3       1 RAP        -0.0294
     41 C31         1.9870   21.1840   14.4260 C.3       1 RAP         0.0301
     42 C32         2.5150   19.9750   14.9960 C.2       1 RAP         0.1106
     43 O11         2.6420   19.0380   14.2690 O.2       1 RAP        -0.3912
     44 C33         2.9480   19.9020   16.4300 C.3       1 RAP         0.0523
     45 C34         4.1950   19.0240   16.6270 C.3       1 RAP         0.1057
     46 C35         4.9440   19.3500   17.9430 C.3       1 RAP        -0.0106
     47 C36         5.5970   20.7530   17.9910 C.3       1 RAP        -0.0447
     48 C37         6.6400   21.0770   16.8900 C.3       1 RAP        -0.0382
     49 C38         7.2460   22.4290   17.2000 C.3       1 RAP        -0.0213
     50 C39         8.2870   22.7960   16.1520 C.3       1 RAP         0.0844
     51 O12         8.9180   24.0040   16.5350 O.3       1 RAP        -0.3772
     52 C40         9.3880   21.8010   16.0660 C.3       1 RAP         0.0813
     53 O13        10.2740   22.2210   15.0320 O.3       1 RAP        -0.3892
     54 C41         8.7680   20.4600   15.7300 C.3       1 RAP        -0.0242
     55 C42         7.7320   20.0410   16.7860 C.3       1 RAP        -0.0477
     56 C43         2.3450   15.0830   21.3180 C.3       1 RAP        -0.0585
     57 C44        -3.0170   19.1880   15.5890 C.3       1 RAP        -0.0580
     58 C45        -1.3820   27.2000   12.8910 C.3       1 RAP        -0.0524
     59 C46         1.9820   24.5830   11.4730 C.3       1 RAP        -0.0461
     60 C47         2.5140   23.5350   16.5700 C.3       1 RAP        -0.0597
     61 C48         0.9880   21.1250   13.3440 C.3       1 RAP        -0.0464
     62 C49         4.0220   19.1990   19.1480 C.3       1 RAP        -0.0596
     63 C50        -4.1130   19.3510   19.0840 C.3       1 RAP         0.0368
     64 C51         5.2080   27.0550   16.0530 C.3       1 RAP         0.0400
     65 C52         8.4820   25.0890   15.7710 C.3       1 RAP         0.0369
     66 H1          4.9516   14.7579   16.6024 H         1 RAP         0.0820
     67 H2          4.1642   13.6760   14.6362 H         1 RAP         0.0314
     68 H3          5.1490   15.0792   14.0994 H         1 RAP         0.0314
     69 H4          3.0797   14.8243   12.7813 H         1 RAP         0.0268
     70 H5          3.1243   16.3753   13.6864 H         1 RAP         0.0268
     71 H6          1.6792   13.8499   14.4873 H         1 RAP         0.0285
     72 H7          0.9463   15.3481   13.8204 H         1 RAP         0.0285
     73 H8          0.7975   15.1711   16.3160 H         1 RAP         0.0526
     74 H9          1.6795   16.6275   15.7435 H         1 RAP         0.0526
     75 H10        -0.7107   14.1324   19.4893 H         1 RAP         0.2100
     76 H11         2.4059   16.3743   19.7879 H         1 RAP         0.0335
     77 H12         1.9587   17.9027   21.1561 H         1 RAP         0.0269
     78 H13         0.3715   17.2022   21.6217 H         1 RAP         0.0269
     79 H14         1.2004   18.5666   19.0854 H         1 RAP         0.0290
     80 H15        -0.1524   18.9398   20.2067 H         1 RAP         0.0290
     81 H16        -1.3810   17.0461   19.4838 H         1 RAP         0.0595
     82 H17        -1.3667   17.3329   16.9107 H         1 RAP         0.0315
     83 H18        -0.1075   18.5841   17.1859 H         1 RAP         0.0315
     84 H19        -1.6599   19.7739   18.7093 H         1 RAP         0.0601
     85 H20        -3.4153   20.3885   17.1514 H         1 RAP         0.0349
     86 H21        -0.5960   20.7221   16.4368 H         1 RAP         0.0440
     87 H22        -1.7240   21.7655   17.3674 H         1 RAP         0.0440
     88 H23        -2.5005   21.4812   14.4465 H         1 RAP         0.0604
     89 H24        -1.0138   23.5183   16.2345 H         1 RAP         0.0402
     90 H25        -1.7280   23.6318   13.1241 H         1 RAP         0.0402
     91 H26        -0.2770   25.5209   15.1156 H         1 RAP         0.0607
     92 H27        -0.6690   25.3535   12.0506 H         1 RAP         0.0471
     93 H28         1.1908   26.9723   13.8489 H         1 RAP         0.0321
     94 H29         1.0596   27.2101   12.0732 H         1 RAP         0.0321
     95 H30         1.8044   24.7058   13.4416 H         1 RAP         0.0530
     96 H31         3.2288   25.9412   15.1519 H         1 RAP         0.0858
     97 H32         4.9119   24.2752   15.8465 H         1 RAP         0.0648
     98 H33         5.3587   22.9157   14.0039 H         1 RAP         0.2101
     99 H34         2.3001   24.2016   14.7041 H         1 RAP         0.0327
    100 H35         3.9245   21.8989   14.3420 H         1 RAP         0.0296
    101 H36         2.7293   22.7605   13.3144 H         1 RAP         0.0296
    102 H37         1.3479   21.5112   15.2594 H         1 RAP         0.0527
    103 H38         2.1241   19.4825   17.0259 H         1 RAP         0.0523
    104 H39         3.1742   20.9193   16.7820 H         1 RAP         0.0523
    105 H40         4.8844   19.2002   15.7882 H         1 RAP         0.0678
    106 H41         5.7530   18.6109   18.0393 H         1 RAP         0.0328
    107 H42         6.0989   20.8533   18.9646 H         1 RAP         0.0271
    108 H43         4.7911   21.4979   17.9154 H         1 RAP         0.0271
    109 H44         6.1211   21.1270   15.9214 H         1 RAP         0.0302
    110 H45         7.7248   22.3934   18.1897 H         1 RAP         0.0294
    111 H46         6.4518   23.1900   17.2041 H         1 RAP         0.0294
    112 H47         7.7964   22.9029   15.1733 H         1 RAP         0.0622
    113 H48         9.9286   21.7373   17.0218 H         1 RAP         0.0619
    114 H49         9.8013   22.2626   14.2090 H         1 RAP         0.2099
    115 H50         9.5617   19.6997   15.6858 H         1 RAP         0.0291
    116 H51         8.2724   20.5301   14.7505 H         1 RAP         0.0291
    117 H52         7.2900   19.0759   16.4974 H         1 RAP         0.0269
    118 H53         8.2296   19.9393   17.7617 H         1 RAP         0.0269
    119 H54         2.5854   14.1459   20.7946 H         1 RAP         0.0232
    120 H55         1.7403   14.8603   22.2094 H         1 RAP         0.0232
    121 H56         3.2767   15.5824   21.6223 H         1 RAP         0.0232
    122 H57        -3.6426   18.3468   15.9222 H         1 RAP         0.0235
    123 H58        -2.1740   18.8052   14.9950 H         1 RAP         0.0235
    124 H59        -3.6195   19.8714   14.9727 H         1 RAP         0.0235
    125 H60        -2.4310   26.8702   12.9195 H         1 RAP         0.0258
    126 H61        -1.2006   27.7661   11.9654 H         1 RAP         0.0258
    127 H62        -1.1758   27.8422   13.7599 H         1 RAP         0.0258
    128 H63         2.8360   23.8900   11.4526 H         1 RAP         0.0257
    129 H64         1.9972   25.2102   10.5695 H         1 RAP         0.0257
    130 H65         1.0444   24.0087   11.5050 H         1 RAP         0.0257
    131 H66         2.7025   24.5152   17.0323 H         1 RAP         0.0233
    132 H67         3.0213   22.7515   17.1520 H         1 RAP         0.0233
    133 H68         1.4318   23.3385   16.5556 H         1 RAP         0.0233
    134 H69         0.3409   20.2475   13.4899 H         1 RAP         0.0257
    135 H70         1.5017   21.0446   12.3746 H         1 RAP         0.0257
    136 H71         0.3758   22.0387   13.3599 H         1 RAP         0.0257
    137 H72         3.5506   18.2054   19.1267 H         1 RAP         0.0233
    138 H73         3.2432   19.9751   19.1134 H         1 RAP         0.0233
    139 H74         4.6070   19.3075   20.0732 H         1 RAP         0.0233
    140 H75        -4.9809   18.7873   19.4568 H         1 RAP         0.0524
    141 H76        -4.4501   20.1049   18.3574 H         1 RAP         0.0524
    142 H77        -3.6117   19.8513   19.9257 H         1 RAP         0.0524
    143 H78         6.0400   27.7745   16.0499 H         1 RAP         0.0526
    144 H79         5.4469   26.2211   16.7294 H         1 RAP         0.0526
    145 H80         4.2914   27.5559   16.3979 H         1 RAP         0.0526
    146 H81         8.9976   26.0021   16.1032 H         1 RAP         0.0524
    147 H82         7.3965   25.2142   15.8978 H         1 RAP         0.0524
    148 H83         8.7086   24.9053   14.7104 H         1 RAP         0.0524
@<TRIPOS>BOND
     1    1    2 1  
     2    1    3 2  
     3    1    4 1  
     4    2   45 1  
     5    4    5 1  
     6    4    9 1  
     7    5    6 1  
     8    6    7 1  
     9    7    8 1  
    10    8    9 1  
    11    9   10 am 
    12   10   11 2  
    13   10   12 1  
    14   12   13 2  
    15   12   14 1  
    16   14   15 1  
    17   14   16 1  
    18   14   17 1  
    19   15   20 1  
    20   17   18 1  
    21   17   56 1  
    22   18   19 1  
    23   19   20 1  
    24   20   21 1  
    25   21   22 1  
    26   22   23 1  
    27   22   24 1  
    28   23   63 1  
    29   24   25 1  
    30   24   57 1  
    31   25   26 1  
    32   26   27 2  
    33   27   28 1  
    34   28   29 2  
    35   29   30 1  
    36   30   31 1  
    37   30   58 1  
    38   31   32 1  
    39   32   33 1  
    40   32   59 1  
    41   33   34 2  
    42   33   35 1  
    43   35   36 1  
    44   35   37 1  
    45   36   64 1  
    46   37   38 1  
    47   37   39 1  
    48   39   40 1  
    49   39   60 1  
    50   40   41 1  
    51   41   42 1  
    52   41   61 1  
    53   42   43 2  
    54   42   44 1  
    55   44   45 1  
    56   45   46 1  
    57   46   47 1  
    58   46   62 1  
    59   47   48 1  
    60   48   49 1  
    61   48   55 1  
    62   49   50 1  
    63   50   51 1  
    64   50   52 1  
    65   51   65 1  
    66   52   53 1  
    67   52   54 1  
    68   54   55 1  
    69    4   66 1  
    70    5   67 1  
    71    5   68 1  
    72    6   69 1  
    73    6   70 1  
    74    7   71 1  
    75    7   72 1  
    76    8   73 1  
    77    8   74 1  
    78   16   75 1  
    79   17   76 1  
    80   18   77 1  
    81   18   78 1  
    82   19   79 1  
    83   19   80 1  
    84   20   81 1  
    85   21   82 1  
    86   21   83 1  
    87   22   84 1  
    88   24   85 1  
    89   25   86 1  
    90   25   87 1  
    91   26   88 1  
    92   27   89 1  
    93   28   90 1  
    94   29   91 1  
    95   30   92 1  
    96   31   93 1  
    97   31   94 1  
    98   32   95 1  
    99   35   96 1  
   100   37   97 1  
   101   38   98 1  
   102   39   99 1  
   103   40  100 1  
   104   40  101 1  
   105   41  102 1  
   106   44  103 1  
   107   44  104 1  
   108   45  105 1  
   109   46  106 1  
   110   47  107 1  
   111   47  108 1  
   112   48  109 1  
   113   49  110 1  
   114   49  111 1  
   115   50  112 1  
   116   52  113 1  
   117   53  114 1  
   118   54  115 1  
   119   54  116 1  
   120   55  117 1  
   121   55  118 1  
   122   56  119 1  
   123   56  120 1  
   124   56  121 1  
   125   57  122 1  
   126   57  123 1  
   127   57  124 1  
   128   58  125 1  
   129   58  126 1  
   130   58  127 1  
   131   59  128 1  
   132   59  129 1  
   133   59  130 1  
   134   60  131 1  
   135   60  132 1  
   136   60  133 1  
   137   61  134 1  
   138   61  135 1  
   139   61  136 1  
   140   62  137 1  
   141   62  138 1  
   142   62  139 1  
   143   63  140 1  
   144   63  141 1  
   145   63  142 1  
   146   64  143 1  
   147   64  144 1  
   148   64  145 1  
   149   65  146 1  
   150   65  147 1  
   151   65  148 1  
@<TRIPOS>SUBSTRUCTURE
     1 RAP         1

