### 
### Created by X-TOOL on Mon Sep 10 21:13:16 2018
### 

@<TRIPOS>MOLECULE
4qta_ligand
   78    84     1     0     0
SMALL
GAST_HUCK


@<TRIPOS>ATOM
      1 O1         29.9660   59.0040   33.5270 O.2       1 38Z        -0.3844
      2 C20        28.8490   58.6180   33.9270 C.2       1 38Z         0.2120
      3 N5         28.0070   59.3950   34.6460 N.am      1 38Z        -0.2335
      4 C21        28.2020   60.6990   35.1240 C.ar      1 38Z         0.0671
      5 C26        27.0750   61.3950   35.5600 C.ar      1 38Z        -0.0282
      6 C25        27.2130   62.7230   35.9780 C.ar      1 38Z         0.0211
      7 C27        26.3240   63.7790   36.4840 C.2       1 38Z         0.1407
      8 C28        24.8320   63.8030   36.6120 C.ar      1 38Z         0.0381
      9 C32        24.0350   62.8440   35.9920 C.ar      1 38Z        -0.0283
     10 C31        22.6790   62.8370   36.2460 C.ar      1 38Z         0.0041
     11 N6         22.0880   63.7130   37.0710 N.ar      1 38Z        -0.3066
     12 C30        22.8600   64.6160   37.6670 C.ar      1 38Z         0.0041
     13 C29        24.2300   64.7010   37.4870 C.ar      1 38Z        -0.0283
     14 N7         27.0550   64.8430   36.7420 N.pl3     1 38Z        -0.2240
     15 N8         28.3550   64.5600   36.4520 N.2       1 38Z        -0.2819
     16 C24        28.4920   63.3080   35.9750 C.ar      1 38Z        -0.0017
     17 C23        29.6320   62.6000   35.5840 C.ar      1 38Z        -0.0673
     18 C22        29.4680   61.3040   35.1570 C.ar      1 38Z        -0.0408
     19 C19        28.3460   57.2670   33.6470 C.3       1 38Z         0.0991
     20 C          28.4020   56.4240   34.9720 C.3       1 38Z         0.0127
     21 C18        29.1990   56.5180   32.6500 C.3       1 38Z        -0.0095
     22 N          30.0730   55.6550   33.4590 N.4       1 38Z         0.2540
     23 C1         29.2660   55.2260   34.6130 C.3       1 38Z        -0.0273
     24 C2         30.8670   54.7190   32.7370 C.3       1 38Z         0.0582
     25 C3         32.0150   54.1480   33.5120 C.2       1 38Z         0.2241
     26 O          32.2970   54.5710   34.6090 O.2       1 38Z        -0.3910
     27 N1         32.6150   53.0850   32.9750 N.am      1 38Z        -0.2650
     28 C7         32.1140   52.2550   31.8900 C.3       1 38Z         0.0540
     29 C6         31.4160   51.0390   32.4670 C.3       1 38Z         0.0485
     30 N2         32.2870   50.3060   33.4000 N.pl3     1 38Z        -0.3018
     31 C5         33.0230   51.1680   34.3300 C.3       1 38Z         0.0485
     32 C4         33.6580   52.3450   33.6810 C.3       1 38Z         0.0540
     33 C8         31.8070   49.1110   34.0330 C.ar      1 38Z         0.0463
     34 C13        30.6470   48.4860   33.6210 C.ar      1 38Z        -0.0380
     35 C12        30.1390   47.4030   34.3460 C.ar      1 38Z        -0.0567
     36 C11        30.7550   46.9570   35.5200 C.ar      1 38Z         0.0095
     37 C10        31.9140   47.6000   35.9290 C.ar      1 38Z        -0.0567
     38 C9         32.4540   48.6370   35.1930 C.ar      1 38Z        -0.0380
     39 C14        30.1010   45.9400   36.3770 C.ar      1 38Z         0.1191
     40 N4         30.5220   45.8470   37.6570 N.ar      1 38Z        -0.2633
     41 C17        29.8260   45.0040   38.4350 C.ar      1 38Z         0.0252
     42 C16        28.8020   44.2150   37.9620 C.ar      1 38Z        -0.0118
     43 C15        28.4860   44.3660   36.6370 C.ar      1 38Z         0.0252
     44 N3         29.0960   45.2410   35.8260 N.ar      1 38Z        -0.2633
     45 H          27.1233   58.9826   34.8673 H         1 38Z         0.2257
     46 H          26.1041   60.9131   35.5749 H         1 38Z         0.0511
     47 H          24.4731   62.1145   35.3204 H         1 38Z         0.0691
     48 H          22.0642   62.0901   35.7568 H         1 38Z         0.0797
     49 H          22.3886   65.3287   38.3340 H         1 38Z         0.0797
     50 H          24.8165   65.4458   38.0127 H         1 38Z         0.0691
     51 H          26.7021   65.7407   37.1033 H         1 38Z         0.2949
     52 H          30.6138   63.0584   35.6165 H         1 38Z         0.0582
     53 H          30.3352   60.7368   34.8388 H         1 38Z         0.0502
     54 H          27.3131   57.3359   33.2751 H         1 38Z         0.0599
     55 H          27.3941   56.1023   35.2730 H         1 38Z         0.0346
     56 H          28.8597   57.0056   35.7858 H         1 38Z         0.0346
     57 H          29.7979   57.2198   32.0511 H         1 38Z         0.0844
     58 H          28.5691   55.9114   31.9828 H         1 38Z         0.0844
     59 H          30.7661   56.2715   33.8534 H         1 38Z         0.2054
     60 H          28.6367   54.3651   34.3432 H         1 38Z         0.0816
     61 H          29.9166   54.9543   35.4573 H         1 38Z         0.0816
     62 H          31.2710   55.2252   31.8479 H         1 38Z         0.1063
     63 H          30.2179   53.8883   32.4229 H         1 38Z         0.1063
     64 H          32.9540   51.9306   31.2582 H         1 38Z         0.0542
     65 H          31.4015   52.8339   31.2840 H         1 38Z         0.0542
     66 H          31.1296   50.3678   31.6440 H         1 38Z         0.0537
     67 H          30.5136   51.3667   33.0039 H         1 38Z         0.0537
     68 H          33.8113   50.5686   34.8088 H         1 38Z         0.0537
     69 H          32.3217   51.5306   35.0960 H         1 38Z         0.0537
     70 H          34.1212   52.9879   34.4440 H         1 38Z         0.0542
     71 H          34.4261   52.0098   32.9685 H         1 38Z         0.0542
     72 H          30.1294   48.8349   32.7348 H         1 38Z         0.0532
     73 H          29.2482   46.8981   33.9902 H         1 38Z         0.0629
     74 H          32.4047   47.2833   36.8422 H         1 38Z         0.0629
     75 H          33.3855   49.0914   35.5107 H         1 38Z         0.0532
     76 H          30.0824   44.9413   39.4864 H         1 38Z         0.0932
     77 H          28.2759   43.5147   38.6006 H         1 38Z         0.0752
     78 H          27.7005   43.7443   36.2229 H         1 38Z         0.0932
@<TRIPOS>BOND
     1    1    2 2  
     2    2    3 am 
     3    2   19 1  
     4    3    4 1  
     5    4    5 ar 
     6    4   18 ar 
     7    5    6 ar 
     8    6    7 2  
     9    6   16 ar 
    10    7    8 1  
    11    7   14 1  
    12    8    9 ar 
    13    8   13 ar 
    14    9   10 ar 
    15   10   11 ar 
    16   11   12 ar 
    17   12   13 ar 
    18   14   15 1  
    19   15   16 2  
    20   16   17 ar 
    21   17   18 ar 
    22   19   20 1  
    23   19   21 1  
    24   20   23 1  
    25   21   22 1  
    26   22   23 1  
    27   22   24 1  
    28   24   25 1  
    29   25   26 2  
    30   25   27 am 
    31   27   28 1  
    32   27   32 1  
    33   28   29 1  
    34   29   30 1  
    35   30   31 1  
    36   30   33 1  
    37   31   32 1  
    38   33   34 ar 
    39   33   38 ar 
    40   34   35 ar 
    41   35   36 ar 
    42   36   37 ar 
    43   36   39 1  
    44   37   38 ar 
    45   39   40 ar 
    46   39   44 ar 
    47   40   41 ar 
    48   41   42 ar 
    49   42   43 ar 
    50   43   44 ar 
    51    3   45 1  
    52    5   46 1  
    53    9   47 1  
    54   10   48 1  
    55   12   49 1  
    56   13   50 1  
    57   14   51 1  
    58   17   52 1  
    59   18   53 1  
    60   19   54 1  
    61   20   55 1  
    62   20   56 1  
    63   21   57 1  
    64   21   58 1  
    65   22   59 1  
    66   23   60 1  
    67   23   61 1  
    68   24   62 1  
    69   24   63 1  
    70   28   64 1  
    71   28   65 1  
    72   29   66 1  
    73   29   67 1  
    74   31   68 1  
    75   31   69 1  
    76   32   70 1  
    77   32   71 1  
    78   34   72 1  
    79   35   73 1  
    80   37   74 1  
    81   38   75 1  
    82   41   76 1  
    83   42   77 1  
    84   43   78 1  
@<TRIPOS>SUBSTRUCTURE
     1 38Z         1

