### 
### Created by X-TOOL on Mon Sep 10 21:13:16 2018
### 

@<TRIPOS>MOLECULE
4qtb_ligand
   78    84     1     0     0
SMALL
GAST_HUCK


@<TRIPOS>ATOM
      1 O1         35.2680   51.5770   47.9270 O.2       1 38Z        -0.3844
      2 C20        34.6580   52.5780   48.3380 C.2       1 38Z         0.2120
      3 N5         33.6510   53.1640   47.6820 N.am      1 38Z        -0.2335
      4 C21        33.1100   52.7810   46.4380 C.ar      1 38Z         0.0671
      5 C26        31.8740   53.3310   46.0780 C.ar      1 38Z        -0.0282
      6 C25        31.2880   52.9510   44.8730 C.ar      1 38Z         0.0211
      7 C27        30.0380   53.2460   44.1570 C.2       1 38Z         0.1407
      8 C28        28.8580   54.0510   44.5820 C.ar      1 38Z         0.0381
      9 C32        28.6500   54.3560   45.9210 C.ar      1 38Z        -0.0283
     10 C31        27.5310   55.0790   46.2730 C.ar      1 38Z         0.0041
     11 N6         26.6180   55.4880   45.3990 N.ar      1 38Z        -0.3066
     12 C30        26.8140   55.1750   44.1110 C.ar      1 38Z         0.0041
     13 C29        27.9230   54.4870   43.6510 C.ar      1 38Z        -0.0283
     14 N7         30.0450   52.5800   43.0150 N.pl3     1 38Z        -0.2240
     15 N8         31.2140   51.8780   42.9370 N.2       1 38Z        -0.2819
     16 C24        32.0060   52.0970   44.0120 C.ar      1 38Z        -0.0017
     17 C23        33.2360   51.5320   44.3730 C.ar      1 38Z        -0.0673
     18 C22        33.7750   51.8820   45.5920 C.ar      1 38Z        -0.0408
     19 C19        35.0550   53.2950   49.5790 C.3       1 38Z         0.0991
     20 C          35.7860   54.6280   49.3210 C.3       1 38Z         0.0127
     21 C18        35.9630   52.4490   50.4210 C.3       1 38Z        -0.0095
     22 N          37.2770   53.0450   50.2080 N.4       1 38Z         0.2540
     23 C1         37.0950   54.4810   50.0580 C.3       1 38Z        -0.0273
     24 C2         38.3420   52.5550   50.9840 C.3       1 38Z         0.0582
     25 C3         39.7330   52.9500   50.5340 C.2       1 38Z         0.2241
     26 O          39.9010   53.3850   49.4050 O.2       1 38Z        -0.3910
     27 N1         40.7330   52.7780   51.4170 N.am      1 38Z        -0.2650
     28 C7         40.5940   52.5570   52.8610 C.3       1 38Z         0.0540
     29 C6         40.7980   53.8650   53.5950 C.3       1 38Z         0.0485
     30 N2         42.0490   54.5260   53.1970 N.pl3     1 38Z        -0.3018
     31 C5         42.3030   54.5390   51.7490 C.3       1 38Z         0.0485
     32 C4         42.0940   53.1940   51.1340 C.3       1 38Z         0.0540
     33 C8         42.2540   55.7530   53.8880 C.ar      1 38Z         0.0463
     34 C13        41.4690   56.0470   54.9930 C.ar      1 38Z        -0.0380
     35 C12        41.6050   57.2430   55.6740 C.ar      1 38Z        -0.0567
     36 C11        42.5280   58.1850   55.2830 C.ar      1 38Z         0.0095
     37 C10        43.3360   57.9060   54.1580 C.ar      1 38Z        -0.0567
     38 C9         43.2160   56.6900   53.4600 C.ar      1 38Z        -0.0380
     39 C14        42.5640   59.5150   55.9840 C.ar      1 38Z         0.1191
     40 N4         42.0100   59.5790   57.2130 N.ar      1 38Z        -0.2633
     41 C17        42.0010   60.7950   57.7870 C.ar      1 38Z         0.0252
     42 C16        42.5230   61.9120   57.1900 C.ar      1 38Z        -0.0118
     43 C15        43.1010   61.7150   55.9660 C.ar      1 38Z         0.0252
     44 N3         43.1490   60.5160   55.3470 N.ar      1 38Z        -0.2633
     45 H          33.2365   53.9607   48.1218 H         1 38Z         0.2257
     46 H          31.3795   54.0433   46.7285 H         1 38Z         0.0511
     47 H          29.3561   54.0307   46.6764 H         1 38Z         0.0691
     48 H          27.3882   55.3272   47.3185 H         1 38Z         0.0797
     49 H          26.0629   55.4772   43.3901 H         1 38Z         0.0797
     50 H          28.0587   54.2934   42.5931 H         1 38Z         0.0691
     51 H          29.2977   52.5890   42.3062 H         1 38Z         0.2949
     52 H          33.7481   50.8406   43.7136 H         1 38Z         0.0582
     53 H          34.7236   51.4576   45.9003 H         1 38Z         0.0502
     54 H          34.1377   53.5079   50.1476 H         1 38Z         0.0599
     55 H          35.2069   55.4741   49.7195 H         1 38Z         0.0346
     56 H          35.9588   54.7763   48.2448 H         1 38Z         0.0346
     57 H          35.9473   51.4014   50.0859 H         1 38Z         0.0844
     58 H          35.6757   52.4991   51.4816 H         1 38Z         0.0844
     59 H          37.5379   52.7406   49.2832 H         1 38Z         0.2054
     60 H          37.0429   54.9700   51.0420 H         1 38Z         0.0816
     61 H          37.9193   54.9173   49.4749 H         1 38Z         0.0816
     62 H          38.2858   51.4565   50.9759 H         1 38Z         0.1063
     63 H          38.2049   52.9216   52.0120 H         1 38Z         0.1063
     64 H          41.3476   51.8284   53.1944 H         1 38Z         0.0542
     65 H          39.5878   52.1687   53.0771 H         1 38Z         0.0542
     66 H          40.8295   53.6652   54.6762 H         1 38Z         0.0537
     67 H          39.9547   54.5345   53.3702 H         1 38Z         0.0537
     68 H          43.3426   54.8525   51.5732 H         1 38Z         0.0537
     69 H          41.6182   55.2571   51.2744 H         1 38Z         0.0537
     70 H          42.2478   53.2529   50.0464 H         1 38Z         0.0542
     71 H          42.8025   52.4719   51.5660 H         1 38Z         0.0542
     72 H          40.7341   55.3248   55.3296 H         1 38Z         0.0532
     73 H          40.9726   57.4418   56.5317 H         1 38Z         0.0629
     74 H          44.0606   58.6411   53.8270 H         1 38Z         0.0629
     75 H          43.8521   56.4777   52.6083 H         1 38Z         0.0532
     76 H          41.5585   60.8964   58.7714 H         1 38Z         0.0932
     77 H          42.4807   62.8891   57.6575 H         1 38Z         0.0752
     78 H          43.5448   62.5681   55.4656 H         1 38Z         0.0932
@<TRIPOS>BOND
     1    1    2 2  
     2    2    3 am 
     3    2   19 1  
     4    3    4 1  
     5    4    5 ar 
     6    4   18 ar 
     7    5    6 ar 
     8    6    7 2  
     9    6   16 ar 
    10    7    8 1  
    11    7   14 1  
    12    8    9 ar 
    13    8   13 ar 
    14    9   10 ar 
    15   10   11 ar 
    16   11   12 ar 
    17   12   13 ar 
    18   14   15 1  
    19   15   16 2  
    20   16   17 ar 
    21   17   18 ar 
    22   19   20 1  
    23   19   21 1  
    24   20   23 1  
    25   21   22 1  
    26   22   23 1  
    27   22   24 1  
    28   24   25 1  
    29   25   26 2  
    30   25   27 am 
    31   27   28 1  
    32   27   32 1  
    33   28   29 1  
    34   29   30 1  
    35   30   31 1  
    36   30   33 1  
    37   31   32 1  
    38   33   34 ar 
    39   33   38 ar 
    40   34   35 ar 
    41   35   36 ar 
    42   36   37 ar 
    43   36   39 1  
    44   37   38 ar 
    45   39   40 ar 
    46   39   44 ar 
    47   40   41 ar 
    48   41   42 ar 
    49   42   43 ar 
    50   43   44 ar 
    51    3   45 1  
    52    5   46 1  
    53    9   47 1  
    54   10   48 1  
    55   12   49 1  
    56   13   50 1  
    57   14   51 1  
    58   17   52 1  
    59   18   53 1  
    60   19   54 1  
    61   20   55 1  
    62   20   56 1  
    63   21   57 1  
    64   21   58 1  
    65   22   59 1  
    66   23   60 1  
    67   23   61 1  
    68   24   62 1  
    69   24   63 1  
    70   28   64 1  
    71   28   65 1  
    72   29   66 1  
    73   29   67 1  
    74   31   68 1  
    75   31   69 1  
    76   32   70 1  
    77   32   71 1  
    78   34   72 1  
    79   35   73 1  
    80   37   74 1  
    81   38   75 1  
    82   41   76 1  
    83   42   77 1  
    84   43   78 1  
@<TRIPOS>SUBSTRUCTURE
     1 38Z         1

