### 
### Created by X-TOOL on Mon Sep 10 21:13:16 2018
### 

@<TRIPOS>MOLECULE
4qtc_ligand
   78    84     1     0     0
SMALL
GAST_HUCK


@<TRIPOS>ATOM
      1 O1         60.6110   33.0280   11.2180 O.2       1 38Z        -0.3844
      2 C20        61.1170   32.8720   12.3240 C.2       1 38Z         0.2120
      3 N5         62.1000   31.9700   12.6080 N.am      1 38Z        -0.2335
      4 C21        62.9610   31.3500   11.6710 C.ar      1 38Z         0.0671
      5 C26        63.6260   30.2200   12.1310 C.ar      1 38Z        -0.0282
      6 C25        64.6090   29.6290   11.3220 C.ar      1 38Z         0.0211
      7 C27        65.5780   28.5170   11.4290 C.2       1 38Z         0.1407
      8 C28        65.8090   27.5570   12.5340 C.ar      1 38Z         0.0381
      9 C32        65.0900   27.5910   13.7080 C.ar      1 38Z        -0.0283
     10 C31        65.4270   26.7170   14.7300 C.ar      1 38Z         0.0041
     11 N6         66.4320   25.8130   14.6440 N.ar      1 38Z        -0.3066
     12 C30        67.0970   25.7930   13.4920 C.ar      1 38Z         0.0041
     13 C29        66.8350   26.6230   12.4200 C.ar      1 38Z        -0.0283
     14 N7         66.3010   28.4810   10.3460 N.pl3     1 38Z        -0.2240
     15 N8         65.8890   29.4640    9.5140 N.2       1 38Z        -0.2819
     16 C24        64.8720   30.1850   10.0660 C.ar      1 38Z        -0.0017
     17 C23        64.1790   31.2920    9.5980 C.ar      1 38Z        -0.0673
     18 C22        63.2120   31.8530   10.4100 C.ar      1 38Z        -0.0408
     19 C19        60.8440   33.7990   13.4880 C.3       1 38Z         0.0991
     20 C          59.6390   33.1870   14.1280 C.3       1 38Z         0.0127
     21 C18        60.5500   35.2880   13.1530 C.3       1 38Z        -0.0095
     22 N          59.0800   35.2410   13.0810 N.4       1 38Z         0.2540
     23 C1         58.5480   33.9180   13.4220 C.3       1 38Z        -0.0273
     24 C2         58.1810   36.3170   12.6590 C.3       1 38Z         0.0582
     25 C3         56.8510   35.7950   12.1140 C.2       1 38Z         0.2241
     26 O          56.7860   34.6770   11.6140 O.2       1 38Z        -0.3910
     27 N1         55.7580   36.5710   12.2420 N.am      1 38Z        -0.2650
     28 C7         55.7130   37.9640   12.7270 C.3       1 38Z         0.0540
     29 C6         55.0060   38.8550   11.7120 C.3       1 38Z         0.0485
     30 N2         53.6920   38.3070   11.3620 N.pl3     1 38Z        -0.3018
     31 C5         53.3690   37.0610   12.0630 C.3       1 38Z         0.0485
     32 C4         54.4530   36.0280   11.8430 C.3       1 38Z         0.0540
     33 C8         52.8120   38.8370   10.3960 C.ar      1 38Z         0.0463
     34 C13        53.2920   39.4530    9.2360 C.ar      1 38Z        -0.0380
     35 C12        52.4250   39.7900    8.2080 C.ar      1 38Z        -0.0567
     36 C11        51.0600   39.5150    8.2920 C.ar      1 38Z         0.0095
     37 C10        50.5820   38.9750    9.4840 C.ar      1 38Z        -0.0567
     38 C9         51.4360   38.6460   10.5190 C.ar      1 38Z        -0.0380
     39 C14        50.1730   39.6190    7.0920 C.ar      1 38Z         0.1191
     40 N4         50.7190   40.1000    5.9650 N.ar      1 38Z        -0.2633
     41 C17        49.9370   40.0650    4.8740 C.ar      1 38Z         0.0252
     42 C16        48.6520   39.5830    4.8780 C.ar      1 38Z        -0.0118
     43 C15        48.1880   39.1370    6.0910 C.ar      1 38Z         0.0252
     44 N3         48.9210   39.1500    7.2150 N.ar      1 38Z        -0.2633
     45 H          62.2242   31.7234   13.5691 H         1 38Z         0.2257
     46 H          63.3887   29.8004   13.1019 H         1 38Z         0.0511
     47 H          64.2719   28.2914   13.8313 H         1 38Z         0.0691
     48 H          64.8542   26.7595   15.6493 H         1 38Z         0.0797
     49 H          67.9016   25.0742   13.3874 H         1 38Z         0.0797
     50 H          67.4165   26.5488   11.5081 H         1 38Z         0.0691
     51 H          67.0616   27.8133   10.1548 H         1 38Z         0.2949
     52 H          64.3910   31.7067    8.6192 H         1 38Z         0.0582
     53 H          62.6412   32.7018   10.0511 H         1 38Z         0.0502
     54 H          61.7025   33.7729   14.1752 H         1 38Z         0.0599
     55 H          59.6167   33.3743   15.2117 H         1 38Z         0.0346
     56 H          59.5874   32.1041   13.9419 H         1 38Z         0.0346
     57 H          60.9975   35.5880   12.1939 H         1 38Z         0.0844
     58 H          60.8995   35.9632   13.9479 H         1 38Z         0.0844
     59 H          59.0045   35.5642   14.0328 H         1 38Z         0.2054
     60 H          57.6722   34.0195   14.0797 H         1 38Z         0.0816
     61 H          58.2596   33.3782   12.5080 H         1 38Z         0.0816
     62 H          58.6783   36.9027   11.8718 H         1 38Z         0.1063
     63 H          57.9768   36.9647   13.5243 H         1 38Z         0.1063
     64 H          56.7396   38.3292   12.8775 H         1 38Z         0.0542
     65 H          55.1679   37.9984   13.6818 H         1 38Z         0.0542
     66 H          55.6213   38.9241   10.8028 H         1 38Z         0.0537
     67 H          54.8747   39.8584   12.1431 H         1 38Z         0.0537
     68 H          52.4142   36.6693   11.6823 H         1 38Z         0.0537
     69 H          53.2781   37.2655   13.1400 H         1 38Z         0.0537
     70 H          54.2314   35.1346   12.4453 H         1 38Z         0.0542
     71 H          54.4834   35.7541   10.7781 H         1 38Z         0.0542
     72 H          54.3500   39.6686    9.1398 H         1 38Z         0.0532
     73 H          52.8155   40.2767    7.3216 H         1 38Z         0.0629
     74 H          49.5172   38.8094    9.6019 H         1 38Z         0.0629
     75 H          51.0320   38.2348   11.4370 H         1 38Z         0.0532
     76 H          50.3423   40.4374    3.9401 H         1 38Z         0.0932
     77 H          48.0429   39.5561    3.9817 H         1 38Z         0.0752
     78 H          47.1753   38.7539    6.1434 H         1 38Z         0.0932
@<TRIPOS>BOND
     1    1    2 2  
     2    2    3 am 
     3    2   19 1  
     4    3    4 1  
     5    4    5 ar 
     6    4   18 ar 
     7    5    6 ar 
     8    6    7 2  
     9    6   16 ar 
    10    7    8 1  
    11    7   14 1  
    12    8    9 ar 
    13    8   13 ar 
    14    9   10 ar 
    15   10   11 ar 
    16   11   12 ar 
    17   12   13 ar 
    18   14   15 1  
    19   15   16 2  
    20   16   17 ar 
    21   17   18 ar 
    22   19   20 1  
    23   19   21 1  
    24   20   23 1  
    25   21   22 1  
    26   22   23 1  
    27   22   24 1  
    28   24   25 1  
    29   25   26 2  
    30   25   27 am 
    31   27   28 1  
    32   27   32 1  
    33   28   29 1  
    34   29   30 1  
    35   30   31 1  
    36   30   33 1  
    37   31   32 1  
    38   33   34 ar 
    39   33   38 ar 
    40   34   35 ar 
    41   35   36 ar 
    42   36   37 ar 
    43   36   39 1  
    44   37   38 ar 
    45   39   40 ar 
    46   39   44 ar 
    47   40   41 ar 
    48   41   42 ar 
    49   42   43 ar 
    50   43   44 ar 
    51    3   45 1  
    52    5   46 1  
    53    9   47 1  
    54   10   48 1  
    55   12   49 1  
    56   13   50 1  
    57   14   51 1  
    58   17   52 1  
    59   18   53 1  
    60   19   54 1  
    61   20   55 1  
    62   20   56 1  
    63   21   57 1  
    64   21   58 1  
    65   22   59 1  
    66   23   60 1  
    67   23   61 1  
    68   24   62 1  
    69   24   63 1  
    70   28   64 1  
    71   28   65 1  
    72   29   66 1  
    73   29   67 1  
    74   31   68 1  
    75   31   69 1  
    76   32   70 1  
    77   32   71 1  
    78   34   72 1  
    79   35   73 1  
    80   37   74 1  
    81   38   75 1  
    82   41   76 1  
    83   42   77 1  
    84   43   78 1  
@<TRIPOS>SUBSTRUCTURE
     1 38Z         1

