### 
### Created by X-TOOL on Mon Sep 10 21:13:17 2018
### 

@<TRIPOS>MOLECULE
4qtd_ligand
   78    84     1     0     0
SMALL
GAST_HUCK


@<TRIPOS>ATOM
      1 O1         23.4260   11.1210   31.5850 O.2       1 38Z        -0.3844
      2 C20        22.6130   12.0430   31.8140 C.2       1 38Z         0.2120
      3 N5         21.3980   11.8900   32.3640 N.am      1 38Z        -0.2335
      4 C21        20.7420   10.6900   32.7010 C.ar      1 38Z         0.0671
      5 C26        21.2340    9.4360   32.3640 C.ar      1 38Z        -0.0282
      6 C25        20.4870    8.3190   32.6590 C.ar      1 38Z         0.0211
      7 C27        20.6450    6.8610   32.4830 C.2       1 38Z         0.1407
      8 C28        21.7570    6.1170   31.8430 C.ar      1 38Z         0.0381
      9 C32        22.6560    6.7600   31.0010 C.ar      1 38Z        -0.0283
     10 C31        23.7160    6.0390   30.4850 C.ar      1 38Z         0.0041
     11 N6         23.9330    4.7470   30.7510 N.ar      1 38Z        -0.3066
     12 C30        23.0560    4.1360   31.5470 C.ar      1 38Z         0.0041
     13 C29        21.9770    4.7770   32.1340 C.ar      1 38Z        -0.0283
     14 N7         19.5740    6.3060   32.9980 N.pl3     1 38Z        -0.2240
     15 N8         18.7490    7.2430   33.4910 N.2       1 38Z        -0.2819
     16 C24        19.2480    8.4770   33.3170 C.ar      1 38Z        -0.0017
     17 C23        18.7620    9.7180   33.6780 C.ar      1 38Z        -0.0673
     18 C22        19.5260   10.8230   33.3620 C.ar      1 38Z        -0.0408
     19 C19        22.9490   13.4910   31.6190 C.3       1 38Z         0.0991
     20 C          22.1070   14.1410   30.4870 C.3       1 38Z         0.0127
     21 C18        24.4120   13.6690   31.2570 C.3       1 38Z        -0.0095
     22 N          24.1360   13.7990   29.8120 N.4       1 38Z         0.2540
     23 C1         23.1470   14.8430   29.6730 C.3       1 38Z        -0.0273
     24 C2         24.4390   12.9340   28.7070 C.3       1 38Z         0.0582
     25 C3         25.4870   13.5120   27.7720 C.2       1 38Z         0.2241
     26 O          25.3170   14.6310   27.2780 O.2       1 38Z        -0.3910
     27 N1         26.5160   12.7170   27.4280 N.am      1 38Z        -0.2650
     28 C7         26.8380   11.4500   28.0900 C.3       1 38Z         0.0540
     29 C6         26.8480   10.3410   27.0870 C.3       1 38Z         0.0485
     30 N2         27.8630   10.6100   26.0730 N.pl3     1 38Z        -0.3018
     31 C5         27.6100   11.8820   25.3890 C.3       1 38Z         0.0485
     32 C4         27.4890   13.0410   26.3780 C.3       1 38Z         0.0540
     33 C8         28.4010    9.5410   25.3720 C.ar      1 38Z         0.0463
     34 C13        28.2620    8.2320   25.8340 C.ar      1 38Z        -0.0380
     35 C12        28.7950    7.1740   25.1220 C.ar      1 38Z        -0.0567
     36 C11        29.4770    7.3800   23.9270 C.ar      1 38Z         0.0095
     37 C10        29.6260    8.6860   23.4810 C.ar      1 38Z        -0.0567
     38 C9         29.1010    9.7510   24.1850 C.ar      1 38Z        -0.0380
     39 C14        30.0290    6.2400   23.1480 C.ar      1 38Z         0.1191
     40 N4         29.8200    5.0080   23.6330 N.ar      1 38Z        -0.2633
     41 C17        30.2820    3.9960   22.8810 C.ar      1 38Z         0.0252
     42 C16        30.9430    4.1760   21.6900 C.ar      1 38Z        -0.0118
     43 C15        31.1200    5.4800   21.3020 C.ar      1 38Z         0.0252
     44 N3         30.6700    6.5310   22.0070 N.ar      1 38Z        -0.2633
     45 H          20.8963   12.7328   32.5587 H         1 38Z         0.2257
     46 H          22.1960    9.3383   31.8739 H         1 38Z         0.0511
     47 H          22.5283    7.8076   30.7535 H         1 38Z         0.0691
     48 H          24.4104    6.5497   29.8277 H         1 38Z         0.0797
     49 H          23.1944    3.0795   31.7461 H         1 38Z         0.0797
     50 H          21.3170    4.2426   32.8077 H         1 38Z         0.0691
     51 H          19.3915    5.2926   33.0209 H         1 38Z         0.2949
     52 H          17.8131    9.8208   34.1919 H         1 38Z         0.0582
     53 H          19.1722   11.8110   33.6336 H         1 38Z         0.0502
     54 H          22.7453   14.0197   32.5619 H         1 38Z         0.0599
     55 H          21.3743   14.8527   30.8951 H         1 38Z         0.0346
     56 H          21.5846   13.3777   29.8917 H         1 38Z         0.0346
     57 H          25.0305   12.7936   31.5042 H         1 38Z         0.0844
     58 H          24.8617   14.5716   31.6964 H         1 38Z         0.0844
     59 H          24.9432   14.3741   29.6284 H         1 38Z         0.2054
     60 H          23.4659   15.7985   30.1149 H         1 38Z         0.0816
     61 H          22.8383   15.0063   28.6299 H         1 38Z         0.0816
     62 H          23.5160   12.7600   28.1345 H         1 38Z         0.1063
     63 H          24.8112   11.9773   29.1023 H         1 38Z         0.1063
     64 H          26.0820   11.2383   28.8604 H         1 38Z         0.0542
     65 H          27.8295   11.5256   28.5602 H         1 38Z         0.0542
     66 H          25.8604   10.2715   26.6076 H         1 38Z         0.0537
     67 H          27.0778    9.3915   27.5927 H         1 38Z         0.0537
     68 H          26.6726   11.8002   24.8193 H         1 38Z         0.0537
     69 H          28.4417   12.0874   24.6991 H         1 38Z         0.0537
     70 H          28.4702   13.2288   26.8383 H         1 38Z         0.0542
     71 H          27.1571   13.9422   25.8416 H         1 38Z         0.0542
     72 H          27.7311    8.0429   26.7600 H         1 38Z         0.0532
     73 H          28.6795    6.1652   25.5016 H         1 38Z         0.0629
     74 H          30.1662    8.8736   22.5601 H         1 38Z         0.0629
     75 H          29.2343   10.7598   23.8114 H         1 38Z         0.0532
     76 H          30.1250    2.9826   23.2324 H         1 38Z         0.0932
     77 H          31.3010    3.3428   21.0962 H         1 38Z         0.0752
     78 H          31.6514    5.6724   20.3770 H         1 38Z         0.0932
@<TRIPOS>BOND
     1    1    2 2  
     2    2    3 am 
     3    2   19 1  
     4    3    4 1  
     5    4    5 ar 
     6    4   18 ar 
     7    5    6 ar 
     8    6    7 2  
     9    6   16 ar 
    10    7    8 1  
    11    7   14 1  
    12    8    9 ar 
    13    8   13 ar 
    14    9   10 ar 
    15   10   11 ar 
    16   11   12 ar 
    17   12   13 ar 
    18   14   15 1  
    19   15   16 2  
    20   16   17 ar 
    21   17   18 ar 
    22   19   20 1  
    23   19   21 1  
    24   20   23 1  
    25   21   22 1  
    26   22   23 1  
    27   22   24 1  
    28   24   25 1  
    29   25   26 2  
    30   25   27 am 
    31   27   28 1  
    32   27   32 1  
    33   28   29 1  
    34   29   30 1  
    35   30   31 1  
    36   30   33 1  
    37   31   32 1  
    38   33   34 ar 
    39   33   38 ar 
    40   34   35 ar 
    41   35   36 ar 
    42   36   37 ar 
    43   36   39 1  
    44   37   38 ar 
    45   39   40 ar 
    46   39   44 ar 
    47   40   41 ar 
    48   41   42 ar 
    49   42   43 ar 
    50   43   44 ar 
    51    3   45 1  
    52    5   46 1  
    53    9   47 1  
    54   10   48 1  
    55   12   49 1  
    56   13   50 1  
    57   14   51 1  
    58   17   52 1  
    59   18   53 1  
    60   19   54 1  
    61   20   55 1  
    62   20   56 1  
    63   21   57 1  
    64   21   58 1  
    65   22   59 1  
    66   23   60 1  
    67   23   61 1  
    68   24   62 1  
    69   24   63 1  
    70   28   64 1  
    71   28   65 1  
    72   29   66 1  
    73   29   67 1  
    74   31   68 1  
    75   31   69 1  
    76   32   70 1  
    77   32   71 1  
    78   34   72 1  
    79   35   73 1  
    80   37   74 1  
    81   38   75 1  
    82   41   76 1  
    83   42   77 1  
    84   43   78 1  
@<TRIPOS>SUBSTRUCTURE
     1 38Z         1

