### 
### Created by X-TOOL on Mon Sep 10 21:13:21 2018
### 

@<TRIPOS>MOLECULE
4qtl_ligand
   42    43     1     0     0
SMALL
GAST_HUCK


@<TRIPOS>ATOM
      1 F27        -4.2250    0.6300   13.9780 F         1 WWO        -0.1949
      2 C5         -4.7560    1.8490   14.2760 C.ar      1 WWO         0.1708
      3 C4         -5.4190    2.0520   15.5250 C.ar      1 WWO         0.1616
      4 S7         -5.7490    0.7710   16.7650 S.o2      1 WWO         0.0636
      5 O9         -7.3140    0.6990   16.8120 O.2       1 WWO        -0.1519
      6 N10        -5.1140   -0.7160   16.1130 N.am      1 WWO        -0.2621
      7 O8         -5.2450    0.9740   18.1690 O.2       1 WWO        -0.1519
      8 C3         -5.9400    3.2990   15.8130 C.ar      1 WWO         0.1773
      9 F12        -6.5760    3.5150   16.9880 F         1 WWO        -0.1943
     10 C2         -5.7760    4.3460   14.9300 C.ar      1 WWO         0.1761
     11 F13        -6.3070    5.5340   15.3300 F         1 WWO        -0.1890
     12 C6         -4.6300    2.9010   13.3230 C.ar      1 WWO         0.0951
     13 C1         -5.1530    4.1820   13.7010 C.ar      1 WWO         0.1356
     14 S11        -5.0750    5.7280   12.7280 S.o2      1 WWO        -0.0053
     15 O22        -3.8270    5.6920   11.7760 O.2       1 WWO        -0.1719
     16 O23        -4.4040    6.7580   13.6820 O.2       1 WWO        -0.1719
     17 C21        -6.4220    6.5830   11.7780 C.3       1 WWO         0.0913
     18 C24        -5.8750    7.6990   10.8600 C.3       1 WWO         0.0637
     19 O25        -6.7200    8.0040    9.7750 O.3       1 WWO        -0.3934
     20 N26        -3.9160    2.7460   12.0760 N.pl3     1 WWO        -0.3130
     21 C14        -4.0970    3.4670   10.8160 C.3       1 WWO         0.0562
     22 C15        -2.8100    3.6000   10.0780 C.ar      1 WWO        -0.0220
     23 C20        -1.6270    3.1380   10.6660 C.ar      1 WWO        -0.0585
     24 C19        -0.4120    3.2570    9.9850 C.ar      1 WWO        -0.0685
     25 C18        -0.3760    3.8380    8.7140 C.ar      1 WWO        -0.0687
     26 C17        -1.5580    4.3010    8.1240 C.ar      1 WWO        -0.0685
     27 C16        -2.7740    4.1820    8.8060 C.ar      1 WWO        -0.0585
     28 H1         -5.1883   -1.5640   16.6377 H         1 WWO         0.1633
     29 H2         -4.6755   -0.7209   15.2143 H         1 WWO         0.1633
     30 H3         -7.1306    7.0280   12.4920 H         1 WWO         0.0524
     31 H4         -6.9443    5.8395   11.1581 H         1 WWO         0.0524
     32 H5         -4.9018    7.3757   10.4621 H         1 WWO         0.0573
     33 H6         -5.7407    8.6096   11.4623 H         1 WWO         0.0573
     34 H7         -6.3272    8.6939    9.2533 H         1 WWO         0.2095
     35 H8         -3.1772    2.0283   12.0742 H         1 WWO         0.1759
     36 H9         -4.4918    4.4709   11.0313 H         1 WWO         0.0672
     37 H10        -4.8144    2.9176   10.1888 H         1 WWO         0.0672
     38 H11        -1.6529    2.6870   11.6514 H         1 WWO         0.0557
     39 H12         0.5029    2.8985   10.4428 H         1 WWO         0.0599
     40 H13         0.5662    3.9299    8.1859 H         1 WWO         0.0559
     41 H14        -1.5313    4.7518    7.1386 H         1 WWO         0.0599
     42 H15        -3.6889    4.5410    8.3486 H         1 WWO         0.0557
@<TRIPOS>BOND
     1    1    2 1  
     2    2    3 ar 
     3    2   12 ar 
     4    3    4 1  
     5    3    8 ar 
     6    4    5 2  
     7    4    6 am 
     8    4    7 2  
     9    8    9 1  
    10    8   10 ar 
    11   10   11 1  
    12   10   13 ar 
    13   12   13 ar 
    14   12   20 1  
    15   13   14 1  
    16   14   15 2  
    17   14   16 2  
    18   14   17 1  
    19   17   18 1  
    20   18   19 1  
    21   20   21 1  
    22   21   22 1  
    23   22   23 ar 
    24   22   27 ar 
    25   23   24 ar 
    26   24   25 ar 
    27   25   26 ar 
    28   26   27 ar 
    29    6   28 1  
    30    6   29 1  
    31   17   30 1  
    32   17   31 1  
    33   18   32 1  
    34   18   33 1  
    35   19   34 1  
    36   20   35 1  
    37   21   36 1  
    38   21   37 1  
    39   23   38 1  
    40   24   39 1  
    41   25   40 1  
    42   26   41 1  
    43   27   42 1  
@<TRIPOS>SUBSTRUCTURE
     1 WWO         1

