### 
### Created by X-TOOL on Mon Sep 10 21:13:20 2018
### 

@<TRIPOS>MOLECULE
4qtn_ligand
   34    35     1     0     0
SMALL
GAST_HUCK


@<TRIPOS>ATOM
      1 O2R        46.4540   68.7170   42.6490 O.3       1 NNR        -0.3840
      2 C2R        47.6940   68.0370   42.0390 C.3       1 NNR         0.1346
      3 C3R        47.4980   67.9060   40.5320 C.3       1 NNR         0.1142
      4 O3R        46.2340   67.4960   40.2650 O.3       1 NNR        -0.3864
      5 C4R        48.4580   66.8060   40.1570 C.3       1 NNR         0.1132
      6 C5R        49.9040   67.4250   39.9330 C.3       1 NNR         0.0730
      7 O5R        50.5750   66.7230   38.8340 O.3       1 NNR        -0.3924
      8 O4R        48.4150   65.9630   41.1650 O.3       1 NNR        -0.3401
      9 C1R        47.9230   66.8010   42.4590 C.3       1 NNR         0.1845
     10 N1         48.9700   66.7610   43.5020 N.pl3     1 NNR        -0.2499
     11 C2         50.2030   66.1950   43.2530 C.2       1 NNR         0.0396
     12 C6         48.7420   67.3190   44.7360 C.2       1 NNR         0.0125
     13 C5         49.7370   67.3210   45.7330 C.2       1 NNR        -0.0795
     14 C4         50.9440   66.7610   45.4710 C.3       1 NNR        -0.0184
     15 C3         51.1940   66.2060   44.2500 C.2       1 NNR         0.0299
     16 C7         52.5600   65.5840   43.9860 C.2       1 NNR         0.1716
     17 O7         52.6350   64.5460   43.4140 O.2       1 NNR        -0.4080
     18 N7         53.7540   66.2480   44.4330 N.am      1 NNR        -0.3073
     19 H          45.6847   68.1891   42.4703 H         1 NNR         0.2101
     20 H          48.5731   68.6607   42.2584 H         1 NNR         0.0672
     21 H          47.7211   68.8463   40.0065 H         1 NNR         0.0648
     22 H          46.0824   66.6529   40.6757 H         1 NNR         0.2100
     23 H          48.1336   66.3045   39.2333 H         1 NNR         0.0647
     24 H          50.4961   67.3146   40.8534 H         1 NNR         0.0584
     25 H          49.8107   68.4921   39.6828 H         1 NNR         0.0584
     26 H          51.4390   67.0953   38.7026 H         1 NNR         0.2095
     27 H          46.9959   66.3677   42.8623 H         1 NNR         0.0946
     28 H          50.4085   65.7401   42.2851 H         1 NNR         0.1020
     29 H          47.7731   67.7687   44.9478 H         1 NNR         0.0814
     30 H          49.5387   67.7684   46.7059 H         1 NNR         0.0345
     31 H          51.0921   65.9656   46.2162 H         1 NNR         0.0398
     32 H          51.6972   67.5485   45.6206 H         1 NNR         0.0398
     33 H          54.6493   65.8380   44.2586 H         1 NNR         0.1788
     34 H          53.6894   67.1199   44.9183 H         1 NNR         0.1788
@<TRIPOS>BOND
     1    1    2 1  
     2    2    3 1  
     3    2    9 1  
     4    3    4 1  
     5    3    5 1  
     6    5    6 1  
     7    5    8 1  
     8    6    7 1  
     9    8    9 1  
    10    9   10 1  
    11   10   11 1  
    12   10   12 1  
    13   11   15 2  
    14   12   13 2  
    15   13   14 1  
    16   14   15 1  
    17   15   16 1  
    18   16   17 2  
    19   16   18 am 
    20    1   19 1  
    21    2   20 1  
    22    3   21 1  
    23    4   22 1  
    24    5   23 1  
    25    6   24 1  
    26    6   25 1  
    27    7   26 1  
    28    9   27 1  
    29   11   28 1  
    30   12   29 1  
    31   13   30 1  
    32   14   31 1  
    33   14   32 1  
    34   18   33 1  
    35   18   34 1  
@<TRIPOS>SUBSTRUCTURE
     1 NNR         1

