### 
### Created by X-TOOL on Mon Sep 10 21:13:24 2018
### 

@<TRIPOS>MOLECULE
4qvx_ligand
   79    84     1     0     0
SMALL
GAST_HUCK


@<TRIPOS>ATOM
      1 N42       -16.7080    1.1290    2.6790 N.2       1 3CQ        -0.3239
      2 C43       -16.3220    2.4380    2.8090 C.2       1 3CQ         0.0254
      3 C44       -15.1380    3.0030    2.0230 C.2       1 3CQ         0.0436
      4 O45       -14.3370    2.1400    1.5760 O.co2     1 3CQ        -0.5707
      5 O46       -15.0650    4.2580    1.9570 O.co2     1 3CQ        -0.5707
      6 C1        -16.7980   12.3970    6.5520 C.1       1 3CQ        -0.0714
      7 C2        -16.6370   13.4770    7.0500 C.1       1 3CQ        -0.0537
      8 C3        -25.9670    1.1170   11.2760 C.ar      1 3CQ        -0.0765
      9 C4        -24.9450    2.0060   11.5120 C.ar      1 3CQ        -0.0753
     10 C5        -21.2140   -4.3080    4.7210 C.ar      1 3CQ        -0.0698
     11 C6        -17.5900   10.1670    6.8700 C.ar      1 3CQ        -0.0206
     12 C7        -21.5930   -3.3290    5.6110 C.ar      1 3CQ        -0.0546
     13 C8        -20.2130   -4.0440    3.8130 C.ar      1 3CQ        -0.0623
     14 C9        -25.8590    0.1200   10.3340 C.ar      1 3CQ        -0.0646
     15 C10       -17.8090    8.8940    6.4040 C.ar      1 3CQ         0.1616
     16 C11       -23.7590    1.9530   10.8190 C.ar      1 3CQ        -0.0540
     17 C12       -16.8690    9.4600    4.2780 C.ar      1 3CQ        -0.0323
     18 C13       -17.0080   11.0870    6.0310 C.ar      1 3CQ         0.0127
     19 C14       -20.9630   -2.1060    5.5830 C.ar      1 3CQ         0.0559
     20 C15       -19.5900   -2.8160    3.7800 C.ar      1 3CQ        -0.0311
     21 C16       -19.9610   -1.8250    4.6670 C.ar      1 3CQ         0.0031
     22 C17       -24.6780    0.0490    9.6160 C.ar      1 3CQ         0.0067
     23 C18       -17.4480    8.5400    5.1240 C.ar      1 3CQ         0.1261
     24 C19       -23.6640    0.9560    9.8720 C.ar      1 3CQ         0.0475
     25 C22       -23.2110   -0.6880    8.1300 C.2       1 3CQ         0.2112
     26 C23       -21.4210   -1.1260    6.5780 C.2       1 3CQ         0.2405
     27 C24       -18.5360   -2.5800    2.7550 C.3       1 3CQ         0.0005
     28 C25       -19.2760   -0.4990    4.6450 C.3       1 3CQ         0.0694
     29 C26       -17.5690   -1.5240    3.2410 C.3       1 3CQ         0.0452
     30 C20       -17.0330    3.2150    3.6980 C.2       1 3CQ         0.0359
     31 C21       -17.7190    0.8640    3.4730 C.2       1 3CQ         0.1787
     32 C27       -15.2820   15.3620    5.6090 C.3       1 3CQ        -0.0425
     33 C28       -17.4940   16.3270    6.0900 C.3       1 3CQ        -0.0425
     34 C29       -16.4490   14.7750    7.6950 C.3       1 3CQ         0.0288
     35 C30       -16.8690    4.6370    4.0610 C.3       1 3CQ        -0.0056
     36 C31       -17.7330    5.5320    3.1880 C.3       1 3CQ        -0.0142
     37 C32       -17.3670    6.9880    3.4130 C.3       1 3CQ         0.0720
     38 C33       -16.6480   10.7410    4.7440 C.ar      1 3CQ        -0.0582
     39 N34       -24.4050   -0.8790    8.6370 N.2       1 3CQ        -0.3094
     40 N36       -22.6370   -1.4580    7.1310 N.am      1 3CQ        -0.1896
     41 N35       -18.3410   -0.3430    3.5510 N.pl3     1 3CQ        -0.2621
     42 N37       -16.2300   15.8050    6.6550 N.4       1 3CQ         0.2394
     43 O38       -20.7240   -0.1740    6.8750 O.2       1 3CQ        -0.3704
     44 O39       -17.7070    7.2330    4.7600 O.3       1 3CQ        -0.3166
     45 S40       -22.3390    0.6170    8.8300 S.3       1 3CQ         0.0300
     46 S41       -18.2340    2.2200    4.4070 S.3       1 3CQ         0.0264
     47 F47       -18.3730    7.9900    7.2120 F         1 3CQ        -0.1898
     48 H1        -26.8836    1.2041   11.8482 H         1 3CQ         0.0543
     49 H2        -25.0786    2.7719   12.2674 H         1 3CQ         0.0527
     50 H3        -21.6988   -5.2775    4.7347 H         1 3CQ         0.0554
     51 H4        -17.8708   10.4411    7.8805 H         1 3CQ         0.0589
     52 H5        -22.3823   -3.5200    6.3290 H         1 3CQ         0.0593
     53 H6        -19.9106   -4.8147    3.1132 H         1 3CQ         0.0573
     54 H7        -26.6668   -0.5819   10.1611 H         1 3CQ         0.0529
     55 H8        -22.9504    2.6505   11.0053 H         1 3CQ         0.0554
     56 H9        -16.5924    9.1840    3.2669 H         1 3CQ         0.0536
     57 H10       -19.0063   -2.2406    1.8203 H         1 3CQ         0.0432
     58 H11       -17.9899   -3.5171    2.5716 H         1 3CQ         0.0432
     59 H12       -18.7273   -0.3763    5.5904 H         1 3CQ         0.0690
     60 H13       -20.0421    0.2859    4.5611 H         1 3CQ         0.0690
     61 H14       -16.8335   -1.2971    2.4551 H         1 3CQ         0.0550
     62 H15       -17.0460   -1.8786    4.1414 H         1 3CQ         0.0550
     63 H16       -15.1566   16.1625    4.8650 H         1 3CQ         0.0778
     64 H17       -15.6753   14.4610    5.1154 H         1 3CQ         0.0778
     65 H18       -14.3093   15.1332    6.0688 H         1 3CQ         0.0778
     66 H19       -18.1592   16.6408    6.9079 H         1 3CQ         0.0778
     67 H20       -17.9849   15.5391    5.5000 H         1 3CQ         0.0778
     68 H21       -17.2776   17.1892    5.4422 H         1 3CQ         0.0778
     69 H22       -15.5746   14.7323    8.3610 H         1 3CQ         0.0953
     70 H23       -17.3446   15.0282    8.2814 H         1 3CQ         0.0953
     71 H24       -15.8141    4.9206    3.9317 H         1 3CQ         0.0444
     72 H25       -17.1594    4.7742    5.1131 H         1 3CQ         0.0444
     73 H26       -18.7916    5.3789    3.4448 H         1 3CQ         0.0315
     74 H27       -17.5712    5.2752    2.1307 H         1 3CQ         0.0315
     75 H28       -17.9427    7.6420    2.7415 H         1 3CQ         0.0615
     76 H29       -16.2914    7.1486    3.2480 H         1 3CQ         0.0615
     77 H30       -16.1894   11.4788    4.0957 H         1 3CQ         0.0572
     78 H31       -23.1166   -2.2726    6.8048 H         1 3CQ         0.2442
     79 H32       -15.7899   16.5830    7.1208 H         1 3CQ         0.2037
@<TRIPOS>BOND
     1    2    1 1  
     2   31    1 2  
     3    2    3 1  
     4   30    2 2  
     5    3    4 ar 
     6    3    5 ar 
     7    6    7 3  
     8   18    6 1  
     9    7   34 1  
    10    9    8 ar 
    11   14    8 ar 
    12   16    9 ar 
    13   12   10 ar 
    14   13   10 ar 
    15   15   11 ar 
    16   11   18 ar 
    17   19   12 ar 
    18   20   13 ar 
    19   22   14 ar 
    20   23   15 ar 
    21   15   47 1  
    22   24   16 ar 
    23   23   17 ar 
    24   17   38 ar 
    25   38   18 ar 
    26   21   19 ar 
    27   19   26 1  
    28   21   20 ar 
    29   27   20 1  
    30   28   21 1  
    31   24   22 ar 
    32   39   22 1  
    33   44   23 1  
    34   45   24 1  
    35   25   39 2  
    36   40   25 1  
    37   25   45 1  
    38   26   40 am 
    39   26   43 2  
    40   29   27 1  
    41   41   28 1  
    42   41   29 1  
    43   35   30 1  
    44   30   46 1  
    45   31   41 1  
    46   46   31 1  
    47   42   32 1  
    48   42   33 1  
    49   34   42 1  
    50   36   35 1  
    51   37   36 1  
    52   37   44 1  
    53    8   48 1  
    54    9   49 1  
    55   10   50 1  
    56   11   51 1  
    57   12   52 1  
    58   13   53 1  
    59   14   54 1  
    60   16   55 1  
    61   17   56 1  
    62   27   57 1  
    63   27   58 1  
    64   28   59 1  
    65   28   60 1  
    66   29   61 1  
    67   29   62 1  
    68   32   63 1  
    69   32   64 1  
    70   32   65 1  
    71   33   66 1  
    72   33   67 1  
    73   33   68 1  
    74   34   69 1  
    75   34   70 1  
    76   35   71 1  
    77   35   72 1  
    78   36   73 1  
    79   36   74 1  
    80   37   75 1  
    81   37   76 1  
    82   38   77 1  
    83   40   78 1  
    84   42   79 1  
@<TRIPOS>SUBSTRUCTURE
     1 3CQ         1

