### 
### Created by X-TOOL on Mon Sep 10 21:13:23 2018
### 

@<TRIPOS>MOLECULE
4qwx_ligand
   87    89     1     0     0
SMALL
GAST_HUCK


@<TRIPOS>ATOM
      1 C29        59.3460 -134.5200   34.7280 C.2       1 04C         0.2238
      2 O37        59.3750 -135.7420   34.8710 O.2       1 04C        -0.3910
      3 C30        58.1870 -133.8550   33.9590 C.3       1 04C         0.0582
      4 N31        57.0740 -133.8360   34.9040 N.4       1 04C         0.2552
      5 O34        54.3610 -133.4550   35.3620 O.3       1 04C        -0.3693
      6 C36        56.1350 -134.9540   34.6600 C.3       1 04C        -0.0060
      7 C32        56.3940 -132.5370   34.8450 C.3       1 04C        -0.0060
      8 C35        54.9420 -134.7660   35.5090 C.3       1 04C         0.0878
      9 C33        55.2860 -132.4630   35.8280 C.3       1 04C         0.0878
     10 N28        60.2780 -133.6830   35.2240 N.am      1 04C        -0.2615
     11 C27        61.4200 -134.1890   36.0070 C.3       1 04C         0.1283
     12 C26        60.9740 -134.3450   37.4610 C.2       1 04C         0.2037
     13 O39        60.1440 -133.5820   37.9570 O.2       1 04C        -0.3944
     14 C38        62.6130 -133.2280   35.9460 C.3       1 04C        -0.0244
     15 N25        61.5540 -135.3540   38.1170 N.am      1 04C        -0.2621
     16 C24        61.2390 -135.6250   39.5190 C.3       1 04C         0.1389
     17 C40        60.7220 -137.0230   39.6560 C.3       1 04C         0.0163
     18 C41        59.3460 -136.9420   39.4500 C.ar      1 04C        -0.0493
     19 C48        58.8280 -136.9910   38.1620 C.ar      1 04C        -0.0685
     20 C47        57.4540 -136.9160   37.9540 C.ar      1 04C        -0.0396
     21 C44        56.5770 -136.7960   39.0370 C.ar      1 04C         0.0837
     22 O45        55.2130 -136.7110   38.9200 O.3       1 04C        -0.3257
     23 C46        54.5360 -137.1290   37.7260 C.3       1 04C         0.0579
     24 C43        57.1060 -136.7450   40.3250 C.ar      1 04C        -0.0396
     25 C42        58.4790 -136.8180   40.5340 C.ar      1 04C        -0.0685
     26 C23        62.5160 -135.4960   40.3390 C.2       1 04C         0.2040
     27 O49        63.6220 -135.5590   39.8010 O.2       1 04C        -0.3943
     28 N22        62.2970 -135.3310   41.6520 N.am      1 04C        -0.2774
     29 C8         63.3800 -135.1670   42.6240 C.3       1 04C         0.0777
     30 C9         63.2580 -136.2070   43.7530 C.3       1 04C         0.0845
     31 O21        61.9370 -136.1380   44.2950 O.3       1 04C        -0.3890
     32 C10        63.5860 -137.7120   43.3800 C.3       1 04C         0.0077
     33 C11        64.6930 -137.8090   42.2590 C.3       1 04C        -0.0579
     34 C12        62.3050 -138.3230   42.8150 C.3       1 04C         0.0492
     35 O13        62.6580 -139.5330   42.1260 O.3       1 04C        -0.3947
     36 C7         63.2480 -133.7930   43.2700 C.3       1 04C         0.0064
     37 C6         63.9950 -132.7760   42.6190 C.ar      1 04C        -0.0408
     38 C5         64.8270 -132.9640   41.5020 C.ar      1 04C        -0.0603
     39 C4         65.5090 -131.8840   40.9440 C.ar      1 04C        -0.0686
     40 C3         65.3740 -130.6060   41.4790 C.ar      1 04C        -0.0687
     41 C2         64.5520 -130.4020   42.5820 C.ar      1 04C        -0.0686
     42 C1         63.8730 -131.4830   43.1400 C.ar      1 04C        -0.0603
     43 H1         57.9270 -134.4425   33.0661 H         1 04C         0.1063
     44 H2         58.4578 -132.8320   33.6588 H         1 04C         0.1063
     45 H3         57.4505 -133.9492   35.8322 H         1 04C         0.2054
     46 H4         56.6218 -135.9076   34.9122 H         1 04C         0.0837
     47 H5         55.8376 -134.9628   33.6010 H         1 04C         0.0837
     48 H6         55.9860 -132.3918   33.8338 H         1 04C         0.0837
     49 H7         57.1214 -131.7416   35.0646 H         1 04C         0.0837
     50 H8         54.1893 -135.5186   35.2314 H         1 04C         0.0613
     51 H9         55.2316 -134.9076   36.5607 H         1 04C         0.0613
     52 H10        55.6421 -132.7019   36.8410 H         1 04C         0.0613
     53 H11        54.8254 -131.4641   35.8273 H         1 04C         0.0613
     54 H12        60.1936 -132.7005   35.0580 H         1 04C         0.1884
     55 H13        61.7271 -135.1668   35.6075 H         1 04C         0.0797
     56 H14        63.4439 -133.6369   36.5397 H         1 04C         0.0277
     57 H15        62.3174 -132.2501   36.3539 H         1 04C         0.0277
     58 H16        62.9338 -133.1076   34.9007 H         1 04C         0.0277
     59 H17        62.2151 -135.9340   37.6410 H         1 04C         0.1885
     60 H18        60.4848 -134.9096   39.8787 H         1 04C         0.0821
     61 H19        60.9362 -137.4136   40.6618 H         1 04C         0.0453
     62 H20        61.1840 -137.6776   38.9024 H         1 04C         0.0453
     63 H21        59.4973 -137.0881   37.3148 H         1 04C         0.0530
     64 H22        57.0603 -136.9509   36.9446 H         1 04C         0.0525
     65 H23        53.4533 -136.9755   37.8455 H         1 04C         0.0575
     66 H24        54.7373 -138.1951   37.5444 H         1 04C         0.0575
     67 H25        54.8982 -136.5369   36.8727 H         1 04C         0.0575
     68 H26        56.4394 -136.6473   41.1742 H         1 04C         0.0525
     69 H27        58.8756 -136.7784   41.5421 H         1 04C         0.0530
     70 H28        61.3529 -135.3195   41.9815 H         1 04C         0.1857
     71 H29        64.3527 -135.2661   42.1201 H         1 04C         0.0604
     72 H30        63.9712 -135.9119   44.5367 H         1 04C         0.0621
     73 H31        61.7823 -135.2662   44.6392 H         1 04C         0.2099
     74 H32        63.9151 -138.2569   44.2771 H         1 04C         0.0346
     75 H33        64.8910 -138.8665   42.0297 H         1 04C         0.0234
     76 H34        65.6179 -137.3316   42.6147 H         1 04C         0.0234
     77 H35        64.3416 -137.2966   41.3513 H         1 04C         0.0234
     78 H36        61.8326 -137.6186   42.1145 H         1 04C         0.0560
     79 H37        61.6065 -138.5498   43.6340 H         1 04C         0.0560
     80 H38        63.2638 -139.3305   41.4228 H         1 04C         0.2094
     81 H39        63.5956 -133.8651   44.3111 H         1 04C         0.0449
     82 H40        62.1865 -133.5049   43.2570 H         1 04C         0.0449
     83 H41        64.9388 -133.9530   41.0726 H         1 04C         0.0557
     84 H42        66.1510 -132.0409   40.0848 H         1 04C         0.0599
     85 H43        65.9079 -129.7724   41.0372 H         1 04C         0.0559
     86 H44        64.4405 -129.4099   43.0042 H         1 04C         0.0599
     87 H45        63.2338 -131.3182   43.9998 H         1 04C         0.0557
@<TRIPOS>BOND
     1    1    2 2  
     2    3    1 1  
     3    1   10 am 
     4    4    3 1  
     5    6    4 1  
     6    4    7 1  
     7    8    5 1  
     8    5    9 1  
     9    6    8 1  
    10    7    9 1  
    11   10   11 1  
    12   11   12 1  
    13   11   14 1  
    14   12   13 2  
    15   12   15 am 
    16   15   16 1  
    17   16   17 1  
    18   16   26 1  
    19   17   18 1  
    20   18   19 ar 
    21   18   25 ar 
    22   19   20 ar 
    23   20   21 ar 
    24   21   22 1  
    25   21   24 ar 
    26   22   23 1  
    27   24   25 ar 
    28   26   27 2  
    29   26   28 am 
    30   28   29 1  
    31   29   30 1  
    32   29   36 1  
    33   30   31 1  
    34   30   32 1  
    35   32   33 1  
    36   32   34 1  
    37   34   35 1  
    38   36   37 1  
    39   37   38 ar 
    40   37   42 ar 
    41   38   39 ar 
    42   39   40 ar 
    43   40   41 ar 
    44   41   42 ar 
    45    3   43 1  
    46    3   44 1  
    47    4   45 1  
    48    6   46 1  
    49    6   47 1  
    50    7   48 1  
    51    7   49 1  
    52    8   50 1  
    53    8   51 1  
    54    9   52 1  
    55    9   53 1  
    56   10   54 1  
    57   11   55 1  
    58   14   56 1  
    59   14   57 1  
    60   14   58 1  
    61   15   59 1  
    62   16   60 1  
    63   17   61 1  
    64   17   62 1  
    65   19   63 1  
    66   20   64 1  
    67   23   65 1  
    68   23   66 1  
    69   23   67 1  
    70   24   68 1  
    71   25   69 1  
    72   28   70 1  
    73   29   71 1  
    74   30   72 1  
    75   31   73 1  
    76   32   74 1  
    77   33   75 1  
    78   33   76 1  
    79   33   77 1  
    80   34   78 1  
    81   34   79 1  
    82   35   80 1  
    83   36   81 1  
    84   36   82 1  
    85   38   83 1  
    86   39   84 1  
    87   40   85 1  
    88   41   86 1  
    89   42   87 1  
@<TRIPOS>SUBSTRUCTURE
     1 04C         1

