### 
### Created by X-TOOL on Mon Sep 10 21:13:23 2018
### 

@<TRIPOS>MOLECULE
4qxj_ligand
   87    89     1     0     0
SMALL
GAST_HUCK


@<TRIPOS>ATOM
      1 C29        59.8840 -134.6610   34.6460 C.2       1 04C         0.2238
      2 O37        60.0050 -135.8730   34.8260 O.2       1 04C        -0.3910
      3 C30        58.7140 -134.1040   33.8180 C.3       1 04C         0.0582
      4 N31        57.6790 -133.7480   34.7880 N.4       1 04C         0.2552
      5 O34        55.0410 -133.1120   35.3720 O.3       1 04C        -0.3693
      6 C36        56.6980 -134.8450   34.9450 C.3       1 04C        -0.0060
      7 C32        57.0220 -132.5050   34.3720 C.3       1 04C        -0.0060
      8 C35        55.5850 -134.3710   35.8000 C.3       1 04C         0.0878
      9 C33        56.0280 -132.0710   35.3800 C.3       1 04C         0.0878
     10 N28        60.7240 -133.7380   35.1400 N.am      1 04C        -0.2615
     11 C27        61.8810 -134.1180   35.9640 C.3       1 04C         0.1283
     12 C26        61.4410 -134.2220   37.4270 C.2       1 04C         0.2037
     13 O39        60.6040 -133.4530   37.9040 O.2       1 04C        -0.3944
     14 C38        63.0000 -133.0830   35.8240 C.3       1 04C        -0.0244
     15 N25        62.0330 -135.2130   38.1030 N.am      1 04C        -0.2621
     16 C24        61.7320 -135.4760   39.5080 C.3       1 04C         0.1389
     17 C40        61.1920 -136.8720   39.6350 C.3       1 04C         0.0163
     18 C41        59.8070 -136.8050   39.4810 C.ar      1 04C        -0.0493
     19 C48        59.2160 -137.0090   38.2370 C.ar      1 04C        -0.0685
     20 C47        57.8310 -136.9560   38.0960 C.ar      1 04C        -0.0396
     21 C44        57.0180 -136.6960   39.2080 C.ar      1 04C         0.0837
     22 O45        55.6460 -136.6300   39.1870 O.3       1 04C        -0.3257
     23 C46        54.9250 -136.5930   37.9520 C.3       1 04C         0.0579
     24 C43        57.6190 -136.5030   40.4470 C.ar      1 04C        -0.0396
     25 C42        58.9990 -136.5560   40.5870 C.ar      1 04C        -0.0685
     26 C23        63.0350 -135.3950   40.2950 C.2       1 04C         0.2040
     27 O49        64.1230 -135.5500   39.7370 O.2       1 04C        -0.3943
     28 N22        62.8610 -135.1690   41.6050 N.am      1 04C        -0.2774
     29 C8         63.9750 -135.0530   42.5460 C.3       1 04C         0.0777
     30 C9         63.8100 -136.0960   43.6720 C.3       1 04C         0.0845
     31 O21        62.4620 -136.0380   44.1460 O.3       1 04C        -0.3890
     32 C10        64.1900 -137.6090   43.3140 C.3       1 04C         0.0077
     33 C11        65.3180 -137.6760   42.2190 C.3       1 04C        -0.0579
     34 C12        62.9240 -138.2580   42.7510 C.3       1 04C         0.0492
     35 O13        63.3330 -139.3740   41.9450 O.3       1 04C        -0.3947
     36 C7         63.9190 -133.6810   43.2030 C.3       1 04C         0.0064
     37 C6         64.6550 -132.6780   42.5320 C.ar      1 04C        -0.0408
     38 C5         65.5000 -132.8850   41.4320 C.ar      1 04C        -0.0603
     39 C4         66.1710 -131.8070   40.8550 C.ar      1 04C        -0.0686
     40 C3         66.0120 -130.5170   41.3600 C.ar      1 04C        -0.0687
     41 C2         65.1760 -130.2970   42.4470 C.ar      1 04C        -0.0686
     42 C1         64.5110 -131.3770   43.0220 C.ar      1 04C        -0.0603
     43 H1         58.3397 -134.8676   33.1203 H         1 04C         0.1063
     44 H2         59.0323 -133.2155   33.2530 H         1 04C         0.1063
     45 H3         58.1195 -133.5914   35.6810 H         1 04C         0.2054
     46 H4         57.1843 -135.7111   35.4176 H         1 04C         0.0837
     47 H5         56.3082 -135.1364   33.9586 H         1 04C         0.0837
     48 H6         56.5122 -132.6708   33.4115 H         1 04C         0.0837
     49 H7         57.7815 -131.7183   34.2530 H         1 04C         0.0837
     50 H8         54.7831 -135.1237   35.7796 H         1 04C         0.0613
     51 H9         55.9573 -134.2596   36.8291 H         1 04C         0.0613
     52 H10        56.4929 -131.9818   36.3729 H         1 04C         0.0613
     53 H11        55.5805 -131.1069   35.0966 H         1 04C         0.0613
     54 H12        60.5595 -132.7714   34.9435 H         1 04C         0.1884
     55 H13        62.2562 -135.0962   35.6289 H         1 04C         0.0797
     56 H14        63.8564 -133.3825   36.4461 H         1 04C         0.0277
     57 H15        62.6334 -132.0997   36.1538 H         1 04C         0.0277
     58 H16        63.3145 -133.0230   34.7716 H         1 04C         0.0277
     59 H17        62.7007 -135.7903   37.6330 H         1 04C         0.1885
     60 H18        61.0033 -134.7454   39.8892 H         1 04C         0.0821
     61 H19        61.4397 -137.2812   40.6255 H         1 04C         0.0453
     62 H20        61.6254 -137.5142   38.8541 H         1 04C         0.0453
     63 H21        59.8378 -137.2105   37.3722 H         1 04C         0.0530
     64 H22        57.3805 -137.1163   37.1232 H         1 04C         0.0525
     65 H23        53.8459 -136.5415   38.1589 H         1 04C         0.0575
     66 H24        55.1442 -137.5016   37.3721 H         1 04C         0.0575
     67 H25        55.2304 -135.7074   37.3755 H         1 04C         0.0575
     68 H26        57.0010 -136.3084   41.3160 H         1 04C         0.0525
     69 H27        59.4492 -136.4029   41.5611 H         1 04C         0.0530
     70 H28        61.9286 -135.0756   41.9542 H         1 04C         0.1857
     71 H29        64.9318 -135.1962   42.0226 H         1 04C         0.0604
     72 H30        64.4773 -135.7896   44.4910 H         1 04C         0.0621
     73 H31        62.2821 -135.1669   44.4799 H         1 04C         0.2099
     74 H32        64.5239 -138.1365   44.2197 H         1 04C         0.0346
     75 H33        65.5529 -138.7278   41.9985 H         1 04C         0.0234
     76 H34        66.2205 -137.1689   42.5908 H         1 04C         0.0234
     77 H35        64.9691 -137.1783   41.3022 H         1 04C         0.0234
     78 H36        62.3719 -137.5325   42.1355 H         1 04C         0.0560
     79 H37        62.2817 -138.6045   43.5740 H         1 04C         0.0560
     80 H38        63.8907 -139.0666   41.2401 H         1 04C         0.2094
     81 H39        64.3165 -133.7730   44.2245 H         1 04C         0.0449
     82 H40        62.8667 -133.3637   43.2462 H         1 04C         0.0449
     83 H41        65.6317 -133.8831   41.0301 H         1 04C         0.0557
     84 H42        66.8229 -131.9737   40.0051 H         1 04C         0.0599
     85 H43        66.5402 -129.6870   40.9048 H         1 04C         0.0559
     86 H44        65.0428 -129.2968   42.8430 H         1 04C         0.0599
     87 H45        63.8633 -131.2037   43.8738 H         1 04C         0.0557
@<TRIPOS>BOND
     1    1    2 2  
     2    3    1 1  
     3    1   10 am 
     4    4    3 1  
     5    6    4 1  
     6    4    7 1  
     7    8    5 1  
     8    5    9 1  
     9    6    8 1  
    10    7    9 1  
    11   10   11 1  
    12   11   12 1  
    13   11   14 1  
    14   12   13 2  
    15   12   15 am 
    16   15   16 1  
    17   16   17 1  
    18   16   26 1  
    19   17   18 1  
    20   18   19 ar 
    21   18   25 ar 
    22   19   20 ar 
    23   20   21 ar 
    24   21   22 1  
    25   21   24 ar 
    26   22   23 1  
    27   24   25 ar 
    28   26   27 2  
    29   26   28 am 
    30   28   29 1  
    31   29   30 1  
    32   29   36 1  
    33   30   31 1  
    34   30   32 1  
    35   32   33 1  
    36   32   34 1  
    37   34   35 1  
    38   36   37 1  
    39   37   38 ar 
    40   37   42 ar 
    41   38   39 ar 
    42   39   40 ar 
    43   40   41 ar 
    44   41   42 ar 
    45    3   43 1  
    46    3   44 1  
    47    4   45 1  
    48    6   46 1  
    49    6   47 1  
    50    7   48 1  
    51    7   49 1  
    52    8   50 1  
    53    8   51 1  
    54    9   52 1  
    55    9   53 1  
    56   10   54 1  
    57   11   55 1  
    58   14   56 1  
    59   14   57 1  
    60   14   58 1  
    61   15   59 1  
    62   16   60 1  
    63   17   61 1  
    64   17   62 1  
    65   19   63 1  
    66   20   64 1  
    67   23   65 1  
    68   23   66 1  
    69   23   67 1  
    70   24   68 1  
    71   25   69 1  
    72   28   70 1  
    73   29   71 1  
    74   30   72 1  
    75   31   73 1  
    76   32   74 1  
    77   33   75 1  
    78   33   76 1  
    79   33   77 1  
    80   34   78 1  
    81   34   79 1  
    82   35   80 1  
    83   36   81 1  
    84   36   82 1  
    85   38   83 1  
    86   39   84 1  
    87   40   85 1  
    88   41   86 1  
    89   42   87 1  
@<TRIPOS>SUBSTRUCTURE
     1 04C         1

