### 
### Created by X-TOOL on Mon Sep 10 21:13:17 2018
### 

@<TRIPOS>MOLECULE
4qxo_ligand
   34    36     1     0     0
SMALL
GAST_HUCK


@<TRIPOS>ATOM
      1 OAD       -16.9130   52.0850   -3.6440 O.2       1 1YE        -0.3930
      2 CAQ       -18.0870   52.1730   -3.2070 C.2       1 1YE         0.1378
      3 CAS       -19.1560   52.0690   -4.0810 C.ar      1 1YE         0.0524
      4 CAJ       -18.9680   51.8800   -5.4490 C.ar      1 1YE        -0.0634
      5 CAH       -20.0890   51.7570   -6.3040 C.ar      1 1YE        -0.0708
      6 CAN       -21.3950   51.8290   -5.7990 C.ar      1 1YE        -0.0465
      7 CAA       -22.5200   51.7110   -6.6530 C.3       1 1YE        -0.0338
      8 CAO       -21.5920   52.0360   -4.4270 C.ar      1 1YE        -0.0033
      9 CAB       -22.8660   52.1160   -3.7940 C.3       1 1YE        -0.0339
     10 CAT       -20.4650   52.1770   -3.6200 C.ar      1 1YE         0.1344
     11 OAL       -20.7060   52.3390   -2.3250 O.3       1 1YE        -0.2526
     12 CAU       -19.6920   52.3880   -1.4370 C.ar      1 1YE         0.1423
     13 CAR       -18.3530   52.3190   -1.8570 C.ar      1 1YE         0.0582
     14 CAI       -17.3340   52.3720   -0.8790 C.ar      1 1YE        -0.0577
     15 CAF       -17.7120   52.5190    0.4600 C.ar      1 1YE        -0.0729
     16 CAG       -19.0540   52.6180    0.8410 C.ar      1 1YE        -0.0612
     17 CAP       -20.0660   52.5480   -0.1150 C.ar      1 1YE         0.0114
     18 CAK       -21.4330   52.6390    0.2310 C.3       1 1YE         0.0338
     19 CAM       -22.3680   51.4130   -0.0840 C.2       1 1YE         0.0448
     20 OAE       -23.6000   51.6050    0.1400 O.co2     1 1YE        -0.5667
     21 OAC       -21.8570   50.3260   -0.4720 O.co2     1 1YE        -0.5667
     22 H         -17.9652   51.8273   -5.8572 H         1 1YE         0.0569
     23 H         -19.9355   51.6047   -7.3662 H         1 1YE         0.0474
     24 H         -22.1802   51.5533   -7.6873 H         1 1YE         0.0383
     25 H         -23.1187   52.6323   -6.6002 H         1 1YE         0.0383
     26 H         -23.1341   50.8558   -6.3344 H         1 1YE         0.0383
     27 H         -23.6580   51.9882   -4.5466 H         1 1YE         0.0355
     28 H         -22.9744   53.0983   -3.3109 H         1 1YE         0.0355
     29 H         -22.9492   51.3233   -3.0359 H         1 1YE         0.0355
     30 H         -16.2891   52.3008   -1.1585 H         1 1YE         0.0583
     31 H         -16.9433   52.5572    1.2234 H         1 1YE         0.0527
     32 H         -19.3088   52.7500    1.8863 H         1 1YE         0.0565
     33 H         -21.8461   53.5083   -0.3016 H         1 1YE         0.0569
     34 H         -21.4829   52.8158    1.3155 H         1 1YE         0.0569
@<TRIPOS>BOND
     1    1    2 2  
     2    2    3 1  
     3    2   13 1  
     4    3    4 ar 
     5    3   10 ar 
     6    4    5 ar 
     7    5    6 ar 
     8    6    7 1  
     9    6    8 ar 
    10    8    9 1  
    11    8   10 ar 
    12   10   11 1  
    13   11   12 1  
    14   12   13 ar 
    15   12   17 ar 
    16   13   14 ar 
    17   14   15 ar 
    18   15   16 ar 
    19   16   17 ar 
    20   17   18 1  
    21   18   19 1  
    22   19   20 ar 
    23   19   21 ar 
    24    4   22 1  
    25    5   23 1  
    26    7   24 1  
    27    7   25 1  
    28    7   26 1  
    29    9   27 1  
    30    9   28 1  
    31    9   29 1  
    32   14   30 1  
    33   15   31 1  
    34   16   32 1  
    35   18   33 1  
    36   18   34 1  
@<TRIPOS>SUBSTRUCTURE
     1 1YE         1

