### 
### Created by X-TOOL on Sat Nov 28 16:09:55 2015
### 

@<TRIPOS>MOLECULE
4qxq_ligand
   34    36     1     0     0
SMALL
GAST_HUCK


@<TRIPOS>ATOM
      1 OAD       162.9910   49.0380    5.5650 O.2       1 MOL        -0.3930
      2 CAQ       163.9510   49.6930    5.1370 C.2       1 MOL         0.1378
      3 CAS       165.0120   50.0820    5.9480 C.ar      1 MOL         0.0524
      4 CAJ       165.0240   49.7980    7.3060 C.ar      1 MOL        -0.0634
      5 CAH       166.1300   50.1710    8.0710 C.ar      1 MOL        -0.0708
      6 CAN       167.2370   50.8420    7.4990 C.ar      1 MOL        -0.0465
      7 CAA       168.3860   51.2460    8.2850 C.3       1 MOL        -0.0338
      8 CAO       167.2000   51.1630    6.1350 C.ar      1 MOL        -0.0033
      9 CAB       168.2480   51.8690    5.4870 C.3       1 MOL        -0.0339
     10 CAT       166.0560   50.8210    5.4260 C.ar      1 MOL         0.1344
     11 OAL       166.0980   51.0930    4.1160 O.3       1 MOL        -0.2526
     12 CAU       165.1250   50.6610    3.2800 C.ar      1 MOL         0.1423
     13 CAR       164.0300   49.9890    3.7870 C.ar      1 MOL         0.0582
     14 CAI       163.0500   49.5420    2.8930 C.ar      1 MOL        -0.0577
     15 CAF       163.1480   49.8310    1.5330 C.ar      1 MOL        -0.0729
     16 CAG       164.2570   50.5330    1.0420 C.ar      1 MOL        -0.0612
     17 CAP       165.2500   50.9930    1.9250 C.ar      1 MOL         0.0114
     18 CAK       166.3860   51.7240    1.4620 C.3       1 MOL         0.0338
     19 CAM       167.7890   51.1310    1.7520 C.2       1 MOL         0.0448
     20 OAE       167.8930   49.9350    2.1480 O.co2     1 MOL        -0.5667
     21 OAC       168.7310   51.9310    1.5520 O.co2     1 MOL        -0.5667
     22 H         164.1837   49.2921    7.7676 H         1 MOL         0.0569
     23 H         166.1415   49.9409    9.1302 H         1 MOL         0.0474
     24 H         168.2523   50.9165    9.3259 H         1 MOL         0.0383
     25 H         168.4828   52.3414    8.2568 H         1 MOL         0.0383
     26 H         169.2948   50.7867    7.8689 H         1 MOL         0.0383
     27 H         169.0646   52.0501    6.2014 H         1 MOL         0.0355
     28 H         167.8665   52.8312    5.1147 H         1 MOL         0.0355
     29 H         168.6248   51.2726    4.6430 H         1 MOL         0.0355
     30 H         162.2083   48.9666    3.2613 H         1 MOL         0.0583
     31 H         162.3653   49.5123    0.8542 H         1 MOL         0.0527
     32 H         164.3496   50.7219   -0.0214 H         1 MOL         0.0565
     33 H         166.3477   52.7204    1.9264 H         1 MOL         0.0569
     34 H         166.2904   51.8241    0.3708 H         1 MOL         0.0569
@<TRIPOS>BOND
     1    1    2 2  
     2    2    3 1  
     3    2   13 1  
     4    3    4 ar 
     5    3   10 ar 
     6    4    5 ar 
     7    5    6 ar 
     8    6    7 1  
     9    6    8 ar 
    10    8    9 1  
    11    8   10 ar 
    12   10   11 1  
    13   11   12 1  
    14   12   13 ar 
    15   12   17 ar 
    16   13   14 ar 
    17   14   15 ar 
    18   15   16 ar 
    19   16   17 ar 
    20   17   18 1  
    21   18   19 1  
    22   19   20 ar 
    23   19   21 ar 
    24    4   22 1  
    25    5   23 1  
    26    7   24 1  
    27    7   25 1  
    28    7   26 1  
    29    9   27 1  
    30    9   28 1  
    31    9   29 1  
    32   14   30 1  
    33   15   31 1  
    34   16   32 1  
    35   18   33 1  
    36   18   34 1  
@<TRIPOS>SUBSTRUCTURE
     1 MOL         1

