### 
### Created by X-TOOL on Sat Nov 28 16:09:55 2015
### 

@<TRIPOS>MOLECULE
4qxr_ligand
   34    36     1     0     0
SMALL
GAST_HUCK


@<TRIPOS>ATOM
      1 OAD       113.4620  -38.0190  -10.5590 O.2       1 MOL        -0.3930
      2 CAQ       113.3970  -39.1770  -10.1660 C.2       1 MOL         0.1378
      3 CAS       113.5800  -40.2490  -11.0220 C.ar      1 MOL         0.0524
      4 CAJ       113.8550  -40.0350  -12.3690 C.ar      1 MOL        -0.0634
      5 CAH       114.0570  -41.1340  -13.1960 C.ar      1 MOL        -0.0708
      6 CAN       113.9820  -42.4360  -12.6890 C.ar      1 MOL        -0.0465
      7 CAA       114.1830  -43.5370  -13.5180 C.3       1 MOL        -0.0338
      8 CAO       113.7100  -42.6440  -11.3360 C.ar      1 MOL        -0.0033
      9 CAB       113.6220  -43.9060  -10.7500 C.3       1 MOL        -0.0339
     10 CAT       113.4990  -41.5530  -10.5320 C.ar      1 MOL         0.1344
     11 OAL       113.2670  -41.8280   -9.2350 O.3       1 MOL        -0.2526
     12 CAU       113.1120  -40.7930   -8.3730 C.ar      1 MOL         0.1423
     13 CAR       113.1910  -39.4660   -8.8350 C.ar      1 MOL         0.0582
     14 CAI       113.0480  -38.4230   -7.9300 C.ar      1 MOL        -0.0577
     15 CAF       112.8180  -38.7230   -6.5950 C.ar      1 MOL        -0.0729
     16 CAG       112.7410  -40.0420   -6.1500 C.ar      1 MOL        -0.0612
     17 CAP       112.8790  -41.1000   -7.0400 C.ar      1 MOL         0.0114
     18 CAK       112.7920  -42.4150   -6.5690 C.3       1 MOL         0.0338
     19 CAM       114.0020  -43.3310   -6.8580 C.2       1 MOL         0.0448
     20 OAE       113.7970  -44.5590   -6.7130 O.co2     1 MOL        -0.5667
     21 OAC       115.0830  -42.7980   -7.2020 O.co2     1 MOL        -0.5667
     22 H         113.9108  -39.0282  -12.7669 H         1 MOL         0.0569
     23 H         114.2753  -40.9804  -14.2466 H         1 MOL         0.0474
     24 H         114.3838  -43.1923  -14.5431 H         1 MOL         0.0383
     25 H         113.2825  -44.1687  -13.5135 H         1 MOL         0.0383
     26 H         115.0414  -44.1195  -13.1523 H         1 MOL         0.0383
     27 H         113.8132  -44.6775  -11.5104 H         1 MOL         0.0355
     28 H         112.6148  -44.0462  -10.3307 H         1 MOL         0.0355
     29 H         114.3686  -43.9901   -9.9466 H         1 MOL         0.0355
     30 H         113.1148  -37.3927   -8.2604 H         1 MOL         0.0583
     31 H         112.6956  -37.9148   -5.8830 H         1 MOL         0.0527
     32 H         112.5717  -40.2443   -5.0986 H         1 MOL         0.0565
     33 H         111.9057  -42.8769   -7.0285 H         1 MOL         0.0569
     34 H         112.6587  -42.3713   -5.4780 H         1 MOL         0.0569
@<TRIPOS>BOND
     1    1    2 2  
     2    2    3 1  
     3    2   13 1  
     4    3    4 ar 
     5    3   10 ar 
     6    4    5 ar 
     7    5    6 ar 
     8    6    7 1  
     9    6    8 ar 
    10    8    9 1  
    11    8   10 ar 
    12   10   11 1  
    13   11   12 1  
    14   12   13 ar 
    15   12   17 ar 
    16   13   14 ar 
    17   14   15 ar 
    18   15   16 ar 
    19   16   17 ar 
    20   17   18 1  
    21   18   19 1  
    22   19   20 ar 
    23   19   21 ar 
    24    4   22 1  
    25    5   23 1  
    26    7   24 1  
    27    7   25 1  
    28    7   26 1  
    29    9   27 1  
    30    9   28 1  
    31    9   29 1  
    32   14   30 1  
    33   15   31 1  
    34   16   32 1  
    35   18   33 1  
    36   18   34 1  
@<TRIPOS>SUBSTRUCTURE
     1 MOL         1

