### 
### Created by X-TOOL on Mon Sep 10 21:13:17 2018
### 

@<TRIPOS>MOLECULE
4qy3_ligand
   30    31     1     0     0
SMALL
GAST_HUCK


@<TRIPOS>ATOM
      1 C1          6.4690   -8.5960    6.1710 C.ar      1 3G1         0.0511
      2 C2          5.4160   -8.2950    7.0430 C.ar      1 3G1         0.0870
      3 C3          4.7780   -9.3490    7.7090 C.ar      1 3G1        -0.0488
      4 C4          5.1720  -10.6560    7.5020 C.ar      1 3G1        -0.0653
      5 C6          6.8570   -9.9150    5.9680 C.ar      1 3G1        -0.0449
      6 C8          6.2250   -7.2390    3.7660 C.3       1 3G1         0.0549
      7 C10         5.7110   -4.7960    3.5230 C.ar      1 3G1        -0.0593
      8 C11         5.7020   -3.6310    2.7830 C.ar      1 3G1        -0.0685
      9 C12         6.2620   -3.6010    1.5210 C.ar      1 3G1        -0.0687
     10 C13         6.8360   -4.7470    1.0080 C.ar      1 3G1        -0.0685
     11 C14         6.8490   -5.9170    1.7420 C.ar      1 3G1        -0.0593
     12 O2          5.7050   -6.0100    6.6820 O.co2     1 3G1        -0.2571
     13 C7          5.0340   -6.8760    7.2830 C.2       1 3G1         0.3722
     14 O3          4.0830   -6.6730    8.0680 O.co2     1 3G1        -0.2571
     15 C5          6.2010  -10.9380    6.6430 C.ar      1 3G1        -0.0656
     16 S1          7.3730   -7.3550    5.2120 S.3       1 3G1        -0.0216
     17 O1          8.6280   -8.0390    4.7860 O.3       1 3G1        -0.3228
     18 C9          6.2800   -5.9560    3.0100 C.ar      1 3G1        -0.0295
     19 H           3.9658   -9.1363    8.3947 H         1 3G1         0.0634
     20 H           4.6653  -11.4616    8.0210 H         1 3G1         0.0563
     21 H           7.6677  -10.1451    5.2862 H         1 3G1         0.0569
     22 H           5.1977   -7.3713    4.1363 H         1 3G1         0.0579
     23 H           6.4718   -8.0543    3.0700 H         1 3G1         0.0579
     24 H           5.2703   -4.8066    4.5133 H         1 3G1         0.0557
     25 H           5.2528   -2.7345    3.1947 H         1 3G1         0.0599
     26 H           6.2510   -2.6866    0.9389 H         1 3G1         0.0559
     27 H           7.2808   -4.7284    0.0196 H         1 3G1         0.0599
     28 H           7.3049   -6.8089    1.3276 H         1 3G1         0.0557
     29 H           6.5061  -11.9666    6.4884 H         1 3G1         0.0620
     30 H           9.2206   -8.1007    5.5259 H         1 3G1         0.2306
@<TRIPOS>BOND
     1    1    2 ar 
     2    1    5 ar 
     3   16    1 1  
     4    2    3 ar 
     5    2   13 1  
     6    3    4 ar 
     7   15    4 ar 
     8    5   15 ar 
     9    6   16 1  
    10   18    6 1  
    11    7    8 ar 
    12    7   18 ar 
    13    8    9 ar 
    14    9   10 ar 
    15   10   11 ar 
    16   11   18 ar 
    17   13   12 ar 
    18   13   14 ar 
    19   16   17 1  
    20    3   19 1  
    21    4   20 1  
    22    5   21 1  
    23    6   22 1  
    24    6   23 1  
    25    7   24 1  
    26    8   25 1  
    27    9   26 1  
    28   10   27 1  
    29   11   28 1  
    30   15   29 1  
    31   17   30 1  
@<TRIPOS>SUBSTRUCTURE
     1 3G1         1

