### 
### Created by X-TOOL on Mon Sep 10 21:13:17 2018
### 

@<TRIPOS>MOLECULE
4qye_ligand
   33    35     1     0     0
SMALL
GAST_HUCK


@<TRIPOS>ATOM
      1 O3          9.6940    5.8110   15.0030 O.co2     1 3DL        -0.5601
      2 C17         9.8100    6.8970   15.6050 C.2       1 3DL         0.0643
      3 O2         10.8540    7.5860   15.5610 O.co2     1 3DL        -0.5601
      4 C1          8.6490    7.3700   16.4170 C.ar      1 3DL         0.0124
      5 C6          7.5700    6.5190   16.5870 C.ar      1 3DL        -0.0445
      6 C5          6.4780    6.9200   17.3350 C.ar      1 3DL        -0.0457
      7 C4          6.4830    8.1620   17.9640 C.ar      1 3DL         0.0089
      8 C3          7.5530    9.0270   17.7850 C.ar      1 3DL        -0.0457
      9 C2          8.6400    8.6300   17.0130 C.ar      1 3DL        -0.0445
     10 C7          5.2720    8.5810   18.7080 C.ar      1 3DL         0.0811
     11 N2          4.1330    7.8820   18.4890 N.ar      1 3DL        -0.2641
     12 C10         2.9880    8.2540   19.1040 C.ar      1 3DL         0.0774
     13 C9          2.9910    9.3830   19.9190 C.ar      1 3DL         0.0466
     14 N1          4.1120   10.0750   20.1120 N.ar      1 3DL        -0.2726
     15 C8          5.2470    9.7130   19.5170 C.ar      1 3DL         0.0470
     16 C11         1.7340    7.5160   18.8270 C.ar      1 3DL        -0.0022
     17 C16         0.6080    7.6660   19.6270 C.ar      1 3DL        -0.0210
     18 C15        -0.5580    6.9830   19.3080 C.ar      1 3DL         0.0907
     19 O1         -1.6330    7.1340   20.1340 O.3       1 3DL        -0.3326
     20 C14        -0.6290    6.1660   18.1750 C.ar      1 3DL        -0.0306
     21 C13         0.4870    6.0380   17.3490 C.ar      1 3DL        -0.0669
     22 C12         1.6600    6.7220   17.6730 C.ar      1 3DL        -0.0599
     23 H           7.5812    5.5351   16.1322 H         1 3DL         0.0657
     24 H           5.6181    6.2671   17.4315 H         1 3DL         0.0654
     25 H           7.5420   10.0085   18.2450 H         1 3DL         0.0654
     26 H           9.4803    9.3007   16.8749 H         1 3DL         0.0657
     27 H           2.0732    9.7011   20.4002 H         1 3DL         0.0917
     28 H           6.1480   10.2979   19.6623 H         1 3DL         0.0918
     29 H           0.6397    8.3132   20.4960 H         1 3DL         0.0568
     30 H          -2.3591    6.6175   19.8046 H         1 3DL         0.2480
     31 H          -1.5452    5.6361   17.9407 H         1 3DL         0.0566
     32 H           0.4442    5.4135   16.4640 H         1 3DL         0.0597
     33 H           2.5246    6.6385   17.0246 H         1 3DL         0.0556
@<TRIPOS>BOND
     1    1    2 ar 
     2    2    3 ar 
     3    2    4 1  
     4    4    5 ar 
     5    4    9 ar 
     6    5    6 ar 
     7    6    7 ar 
     8    7    8 ar 
     9    7   10 1  
    10    8    9 ar 
    11   10   11 ar 
    12   10   15 ar 
    13   11   12 ar 
    14   12   13 ar 
    15   12   16 1  
    16   13   14 ar 
    17   14   15 ar 
    18   16   17 ar 
    19   16   22 ar 
    20   17   18 ar 
    21   18   19 1  
    22   18   20 ar 
    23   20   21 ar 
    24   21   22 ar 
    25    5   23 1  
    26    6   24 1  
    27    8   25 1  
    28    9   26 1  
    29   13   27 1  
    30   15   28 1  
    31   17   29 1  
    32   19   30 1  
    33   20   31 1  
    34   21   32 1  
    35   22   33 1  
@<TRIPOS>SUBSTRUCTURE
     1 3DL         1

