### 
### Created by X-TOOL on Mon Sep 10 21:13:18 2018
### 

@<TRIPOS>MOLECULE
4qyg_ligand
   50    54     1     0     0
SMALL
GAST_HUCK


@<TRIPOS>ATOM
      1 O2          7.4340    5.0830   14.7350 O.co2     1 3DW        -0.5606
      2 C22         8.1590    5.9650   15.2480 C.2       1 3DW         0.0721
      3 O1          9.3600    6.1040   14.9280 O.co2     1 3DW        -0.5606
      4 C9          7.5880    6.8690   16.2920 C.ar      1 3DW         0.0681
      5 N3          8.4080    7.8090   16.8210 N.ar      1 3DW        -0.2955
      6 C10         7.9750    8.6750   17.7580 C.ar      1 3DW         0.0370
      7 C7          6.6640    8.6120   18.2060 C.ar      1 3DW         0.1003
      8 N2          5.9400    9.3310   19.1150 N.pl3     1 3DW        -0.2520
      9 C2          4.6780    8.8420   19.1670 C.ar      1 3DW         0.1426
     10 C8          6.2500    6.7610   16.7130 C.ar      1 3DW        -0.0254
     11 C6          5.8100    7.6570   17.6870 C.ar      1 3DW         0.0261
     12 C1          4.5760    7.7990   18.2850 C.ar      1 3DW         0.0328
     13 C5          3.3610    7.1220   18.1270 C.ar      1 3DW        -0.0405
     14 C4          2.2680    7.5570   18.9130 C.ar      1 3DW        -0.0090
     15 C3          2.4640    8.6420   19.7850 C.ar      1 3DW         0.0047
     16 N1          3.6460    9.2660   19.9210 N.ar      1 3DW        -0.2798
     17 C11         0.9020    6.9300   18.8240 C.ar      1 3DW        -0.0300
     18 C16         0.5100    6.2380   17.6750 C.ar      1 3DW        -0.0655
     19 C15        -0.7580    5.6740   17.5550 C.ar      1 3DW        -0.0430
     20 C14        -1.6920    5.7910   18.5910 C.ar      1 3DW         0.0418
     21 C13        -1.3120    6.5040   19.7280 C.ar      1 3DW        -0.0430
     22 C12        -0.0420    7.0680   19.8480 C.ar      1 3DW        -0.0655
     23 N4         -2.9370    5.2230   18.4740 N.pl3     1 3DW        -0.2980
     24 C20        -4.0040    5.7430   19.3380 C.3       1 3DW         0.0673
     25 C19        -5.3680    5.2720   18.8370 C.3       1 3DW        -0.0119
     26 N5         -5.3620    3.8170   18.6230 N.4       1 3DW         0.2359
     27 C21        -6.6990    3.3320   18.2310 C.3       1 3DW        -0.0430
     28 C18        -4.3730    3.5060   17.5790 C.3       1 3DW        -0.0119
     29 C17        -2.9840    3.8050   18.1140 C.3       1 3DW         0.0673
     30 H           8.6508    9.4204   18.1614 H         1 3DW         0.0771
     31 H           6.2974   10.1200   19.6724 H         1 3DW         0.2232
     32 H           5.5872    6.0110   16.2968 H         1 3DW         0.0713
     33 H           3.2615    6.2975   17.4303 H         1 3DW         0.0704
     34 H           1.6237    8.9909   20.3742 H         1 3DW         0.0786
     35 H           1.2117    6.1374   16.8549 H         1 3DW         0.0588
     36 H          -1.0241    5.1392   16.6504 H         1 3DW         0.0520
     37 H          -2.0216    6.6228   20.5388 H         1 3DW         0.0520
     38 H           0.2168    7.6195   20.7446 H         1 3DW         0.0588
     39 H          -3.9742    6.8426   19.3298 H         1 3DW         0.0568
     40 H          -3.8492    5.3796   20.3646 H         1 3DW         0.0568
     41 H          -5.5993    5.7768   17.8875 H         1 3DW         0.0834
     42 H          -6.1353    5.5252   19.5834 H         1 3DW         0.0834
     43 H          -5.0927    3.3598   19.4800 H         1 3DW         0.2032
     44 H          -6.6638    2.2432   18.0782 H         1 3DW         0.0778
     45 H          -7.0080    3.8235   17.2967 H         1 3DW         0.0778
     46 H          -7.4221    3.5675   19.0258 H         1 3DW         0.0778
     47 H          -4.5674    4.1241   16.6901 H         1 3DW         0.0834
     48 H          -4.4435    2.4421   17.3085 H         1 3DW         0.0834
     49 H          -2.7843    3.1870   19.0018 H         1 3DW         0.0568
     50 H          -2.2314    3.5903   17.3410 H         1 3DW         0.0568
@<TRIPOS>BOND
     1    1    2 ar 
     2    2    3 ar 
     3    2    4 1  
     4    4    5 ar 
     5    4   10 ar 
     6    5    6 ar 
     7    6    7 ar 
     8    7    8 1  
     9    7   11 ar 
    10    8    9 1  
    11    9   12 ar 
    12    9   16 ar 
    13   10   11 ar 
    14   11   12 1  
    15   12   13 ar 
    16   13   14 ar 
    17   14   15 ar 
    18   14   17 1  
    19   15   16 ar 
    20   17   18 ar 
    21   17   22 ar 
    22   18   19 ar 
    23   19   20 ar 
    24   20   21 ar 
    25   20   23 1  
    26   21   22 ar 
    27   23   24 1  
    28   23   29 1  
    29   24   25 1  
    30   25   26 1  
    31   26   27 1  
    32   26   28 1  
    33   28   29 1  
    34    6   30 1  
    35    8   31 1  
    36   10   32 1  
    37   13   33 1  
    38   15   34 1  
    39   18   35 1  
    40   19   36 1  
    41   21   37 1  
    42   22   38 1  
    43   24   39 1  
    44   24   40 1  
    45   25   41 1  
    46   25   42 1  
    47   26   43 1  
    48   27   44 1  
    49   27   45 1  
    50   27   46 1  
    51   28   47 1  
    52   28   48 1  
    53   29   49 1  
    54   29   50 1  
@<TRIPOS>SUBSTRUCTURE
     1 3DW         1

