### 
### Created by X-TOOL on Mon Sep 10 21:13:18 2018
### 

@<TRIPOS>MOLECULE
4qyh_ligand
   49    53     1     0     0
SMALL
GAST_HUCK


@<TRIPOS>ATOM
      1 N6          9.0010    5.8190   14.9130 N.1       1 3DX        -0.3295
      2 C22         8.4420    6.4980   15.6680 C.1       1 3DX         0.1094
      3 C9          7.8520    7.2660   16.5130 C.ar      1 3DX         0.1545
      4 N3          8.6010    8.2590   17.0470 N.ar      1 3DX        -0.2758
      5 C10         8.1030    9.1310   17.9350 C.ar      1 3DX         0.0446
      6 C7          6.7780    9.0360   18.3240 C.ar      1 3DX         0.1068
      7 N2          5.9990    9.7610   19.1760 N.pl3     1 3DX        -0.2488
      8 C2          4.7550    9.2310   19.1900 C.ar      1 3DX         0.1444
      9 C8          6.4990    7.1230   16.8650 C.ar      1 3DX        -0.0040
     10 C6          5.9780    8.0350   17.7930 C.ar      1 3DX         0.0341
     11 C1          4.7130    8.1620   18.3340 C.ar      1 3DX         0.0348
     12 C5          3.5190    7.4500   18.1700 C.ar      1 3DX        -0.0401
     13 C4          2.3970    7.8960   18.9030 C.ar      1 3DX        -0.0088
     14 C3          2.5250    8.9980   19.7590 C.ar      1 3DX         0.0049
     15 N1          3.6870    9.6540   19.8960 N.ar      1 3DX        -0.2793
     16 C11         1.0570    7.2260   18.8110 C.ar      1 3DX        -0.0298
     17 C16         0.6910    6.5220   17.6610 C.ar      1 3DX        -0.0655
     18 C15        -0.5540    5.9020   17.5690 C.ar      1 3DX        -0.0430
     19 C14        -1.4820    5.9790   18.6190 C.ar      1 3DX         0.0418
     20 C13        -1.1170    6.6870   19.7630 C.ar      1 3DX        -0.0430
     21 C12         0.1280    7.3070   19.8590 C.ar      1 3DX        -0.0655
     22 N4         -2.7020    5.3580   18.5660 N.pl3     1 3DX        -0.2980
     23 C20        -2.9250    4.2980   17.5810 C.3       1 3DX         0.0673
     24 C19        -3.8110    3.2760   18.2750 C.3       1 3DX        -0.0119
     25 N5         -5.0650    3.9020   18.7350 N.4       1 3DX         0.2359
     26 C21        -5.8790    2.8850   19.4360 C.3       1 3DX        -0.0430
     27 C18        -4.7840    5.0520   19.6260 C.3       1 3DX        -0.0119
     28 C17        -3.9120    6.0900   18.9250 C.3       1 3DX         0.0673
     29 H           8.7361    9.9083   18.3473 H         1 3DX         0.0796
     30 H           6.3076   10.5791   19.7204 H         1 3DX         0.2252
     31 H           5.8839    6.3399   16.4366 H         1 3DX         0.0790
     32 H           3.4581    6.5931   17.5088 H         1 3DX         0.0704
     33 H           1.6621    9.3291   20.3255 H         1 3DX         0.0787
     34 H           1.3839    6.4572   16.8299 H         1 3DX         0.0588
     35 H          -0.8098    5.3510   16.6712 H         1 3DX         0.0520
     36 H          -1.8126    6.7566   20.5915 H         1 3DX         0.0520
     37 H           0.3818    7.8596   20.7564 H         1 3DX         0.0588
     38 H          -1.9692    3.8404   17.2861 H         1 3DX         0.0568
     39 H          -3.4289    4.7012   16.6902 H         1 3DX         0.0568
     40 H          -3.2747    2.8620   19.1416 H         1 3DX         0.0834
     41 H          -4.0490    2.4660   17.5699 H         1 3DX         0.0834
     42 H          -5.5771    4.2351   17.9332 H         1 3DX         0.2032
     43 H          -6.8173    3.3421   19.7834 H         1 3DX         0.0778
     44 H          -5.3181    2.4979   20.2994 H         1 3DX         0.0778
     45 H          -6.1070    2.0588   18.7465 H         1 3DX         0.0778
     46 H          -4.2613    4.6913   20.5241 H         1 3DX         0.0834
     47 H          -5.7352    5.5206   19.9186 H         1 3DX         0.0834
     48 H          -4.4140    6.4783   18.0266 H         1 3DX         0.0568
     49 H          -3.6768    6.9237   19.6030 H         1 3DX         0.0568
@<TRIPOS>BOND
     1    1    2 3  
     2    2    3 1  
     3    3    4 ar 
     4    3    9 ar 
     5    4    5 ar 
     6    5    6 ar 
     7    6    7 1  
     8    6   10 ar 
     9    7    8 1  
    10    8   11 ar 
    11    8   15 ar 
    12    9   10 ar 
    13   10   11 1  
    14   11   12 ar 
    15   12   13 ar 
    16   13   14 ar 
    17   13   16 1  
    18   14   15 ar 
    19   16   17 ar 
    20   16   21 ar 
    21   17   18 ar 
    22   18   19 ar 
    23   19   20 ar 
    24   19   22 1  
    25   20   21 ar 
    26   22   23 1  
    27   22   28 1  
    28   23   24 1  
    29   24   25 1  
    30   25   26 1  
    31   25   27 1  
    32   27   28 1  
    33    5   29 1  
    34    7   30 1  
    35    9   31 1  
    36   12   32 1  
    37   14   33 1  
    38   17   34 1  
    39   18   35 1  
    40   20   36 1  
    41   21   37 1  
    42   23   38 1  
    43   23   39 1  
    44   24   40 1  
    45   24   41 1  
    46   25   42 1  
    47   26   43 1  
    48   26   44 1  
    49   26   45 1  
    50   27   46 1  
    51   27   47 1  
    52   28   48 1  
    53   28   49 1  
@<TRIPOS>SUBSTRUCTURE
     1 3DX         1

