### 
### Created by X-TOOL on Mon Sep 10 21:13:20 2018
### 

@<TRIPOS>MOLECULE
4qyy_ligand
   64    67     1     0     0
SMALL
GAST_HUCK


@<TRIPOS>ATOM
      1 N1         49.2160   21.7580    8.6400 N.am      1 3G7        -0.2650
      2 C2         43.2270   25.1880    8.4880 C.ar      1 3G7         0.0186
      3 N3         49.0290   13.7500    9.2040 N.am      1 3G7        -0.2398
      4 C4         45.0680   24.3650    9.8290 C.ar      1 3G7        -0.0377
      5 C5         45.9080   24.3380    8.7080 C.ar      1 3G7         0.0462
      6 C6         45.3910   24.8170    7.4930 C.ar      1 3G7        -0.0377
      7 C7         44.0690   25.2100    7.3840 C.ar      1 3G7        -0.0545
      8 C10        49.0980   22.7110    7.5450 C.3       1 3G7         0.0539
      9 C16        48.5630   15.8860   10.1890 C.3       1 3G7         0.0985
     10 C17        49.1550   17.2660   10.5240 C.3       1 3G7        -0.0096
     11 C18        49.5300   14.9680    9.4880 C.2       1 3G7         0.2091
     12 C20        50.9240   12.6760    8.0160 C.ar      1 3G7        -0.0488
     13 C21        51.4950   11.5210    7.5020 C.ar      1 3G7        -0.0453
     14 CL         48.7190    8.7670    8.2980 Cl        1 3G7        -0.0824
     15 C23        49.5850   10.2680    8.2140 C.ar      1 3G7         0.0552
     16 C22        50.8340   10.2990    7.6060 C.ar      1 3G7         0.0867
     17 O3         51.3660    9.1360    7.1560 O.3       1 3G7        -0.3419
     18 C24        49.0000   11.4130    8.7180 C.ar      1 3G7        -0.0352
     19 C19        49.6770   12.6290    8.6270 C.ar      1 3G7         0.0561
     20 O2         50.6760   15.3220    9.2120 O.2       1 3G7        -0.3858
     21 C15        47.4230   16.2770    9.2100 C.3       1 3G7         0.0126
     22 C14        47.4210   17.7860    9.0610 C.3       1 3G7        -0.0273
     23 N2         48.8340   18.1480    9.3430 N.4       1 3G7         0.2540
     24 C13        49.1300   19.5660    9.7150 C.3       1 3G7         0.0582
     25 C12        49.1650   20.4250    8.4570 C.2       1 3G7         0.2241
     26 O1         49.0960   19.9210    7.3390 O.2       1 3G7        -0.3910
     27 C9         49.0340   22.5060    9.8800 C.3       1 3G7         0.0539
     28 C8         47.5990   22.9770    9.9550 C.3       1 3G7         0.0484
     29 C11        47.6830   23.2080    7.4870 C.3       1 3G7         0.0484
     30 N          47.2330   23.7750    8.7720 N.pl3     1 3G7        -0.3019
     31 C3         43.7550   24.7920    9.7190 C.ar      1 3G7        -0.0545
     32 C1         41.7850   25.5490    8.3460 C.2       1 3G7         0.1200
     33 O          41.3160   25.8180    7.2380 O.2       1 3G7        -0.3855
     34 C          40.9060   25.5470    9.5510 C.3       1 3G7         0.0087
     35 H          48.0644   13.6182    9.4324 H         1 3G7         0.2220
     36 H          45.4498   24.0483   10.7928 H         1 3G7         0.0531
     37 H          46.0388   24.8798    6.6261 H         1 3G7         0.0531
     38 H          43.6857   25.5392    6.4249 H         1 3G7         0.0639
     39 H          49.3558   22.2178    6.5962 H         1 3G7         0.0542
     40 H          49.7802   23.5568    7.7158 H         1 3G7         0.0542
     41 H          48.1775   15.3915   11.0928 H         1 3G7         0.0598
     42 H          50.2438   17.1925   10.6625 H         1 3G7         0.0844
     43 H          48.6953   17.6683   11.4388 H         1 3G7         0.0844
     44 H          51.4529   13.6192    7.9407 H         1 3G7         0.0481
     45 H          52.4626   11.5696    7.0158 H         1 3G7         0.0507
     46 H          52.2156    9.3073    6.7668 H         1 3G7         0.2437
     47 H          48.0211   11.3669    9.1813 H         1 3G7         0.0483
     48 H          46.4557   15.9416    9.6123 H         1 3G7         0.0346
     49 H          47.5958   15.8067    8.2308 H         1 3G7         0.0346
     50 H          46.7399   18.2546    9.7866 H         1 3G7         0.0816
     51 H          47.1320   18.0829    8.0420 H         1 3G7         0.0816
     52 H          49.4028   17.9101    8.5456 H         1 3G7         0.2054
     53 H          50.1057   19.6164   10.2205 H         1 3G7         0.1063
     54 H          48.3468   19.9386   10.3916 H         1 3G7         0.1063
     55 H          49.7096   23.3740    9.8915 H         1 3G7         0.0542
     56 H          49.2561   21.8570   10.7399 H         1 3G7         0.0542
     57 H          47.4715   23.5943   10.8565 H         1 3G7         0.0536
     58 H          46.9371   22.1004   10.0141 H         1 3G7         0.0536
     59 H          47.0242   22.3681    7.2215 H         1 3G7         0.0536
     60 H          47.6137   23.9871    6.7136 H         1 3G7         0.0536
     61 H          43.1272   24.8193   10.6023 H         1 3G7         0.0639
     62 H          39.8850   25.8353    9.2605 H         1 3G7         0.0447
     63 H          41.2937   26.2648   10.2889 H         1 3G7         0.0447
     64 H          40.8910   24.5395    9.9923 H         1 3G7         0.0447
@<TRIPOS>BOND
     1    1    8 1  
     2    1   25 am 
     3   27    1 1  
     4    7    2 ar 
     5   31    2 ar 
     6    2   32 1  
     7   11    3 am 
     8    3   19 1  
     9    5    4 ar 
    10    4   31 ar 
    11    5    6 ar 
    12   30    5 1  
    13    6    7 ar 
    14    8   29 1  
    15   10    9 1  
    16    9   11 1  
    17   21    9 1  
    18   23   10 1  
    19   11   20 2  
    20   12   13 ar 
    21   19   12 ar 
    22   13   16 ar 
    23   15   14 1  
    24   15   16 ar 
    25   18   15 ar 
    26   16   17 1  
    27   19   18 ar 
    28   22   21 1  
    29   23   22 1  
    30   24   23 1  
    31   25   24 1  
    32   25   26 2  
    33   28   27 1  
    34   28   30 1  
    35   29   30 1  
    36   32   33 2  
    37   32   34 1  
    38    3   35 1  
    39    4   36 1  
    40    6   37 1  
    41    7   38 1  
    42    8   39 1  
    43    8   40 1  
    44    9   41 1  
    45   10   42 1  
    46   10   43 1  
    47   12   44 1  
    48   13   45 1  
    49   17   46 1  
    50   18   47 1  
    51   21   48 1  
    52   21   49 1  
    53   22   50 1  
    54   22   51 1  
    55   23   52 1  
    56   24   53 1  
    57   24   54 1  
    58   27   55 1  
    59   27   56 1  
    60   28   57 1  
    61   28   58 1  
    62   29   59 1  
    63   29   60 1  
    64   31   61 1  
    65   34   62 1  
    66   34   63 1  
    67   34   64 1  
@<TRIPOS>SUBSTRUCTURE
     1 3G7         1

