### 
### Created by X-TOOL on Mon Sep 10 21:13:22 2018
### 

@<TRIPOS>MOLECULE
4qz0_ligand
   87    89     1     0     0
SMALL
GAST_HUCK


@<TRIPOS>ATOM
      1 C29        59.5250 -134.5870   34.5290 C.2       1 04C         0.2238
      2 O37        59.6020 -135.7930   34.7620 O.2       1 04C        -0.3910
      3 C30        58.3750 -134.0410   33.6690 C.3       1 04C         0.0582
      4 N31        57.3450 -133.4800   34.5470 N.4       1 04C         0.2552
      5 O34        54.6430 -133.4500   35.2890 O.3       1 04C        -0.3693
      6 C36        56.8230 -134.4360   35.5450 C.3       1 04C        -0.0060
      7 C32        56.2590 -133.0630   33.6430 C.3       1 04C        -0.0060
      8 C35        55.6830 -133.7720   36.2130 C.3       1 04C         0.0878
      9 C33        55.0580 -132.4740   34.3220 C.3       1 04C         0.0878
     10 N28        60.4140 -133.6780   34.9620 N.am      1 04C        -0.2615
     11 C27        61.5600 -134.0740   35.7980 C.3       1 04C         0.1283
     12 C26        61.1050 -134.1490   37.2580 C.2       1 04C         0.2037
     13 O39        60.3220 -133.3200   37.7230 O.2       1 04C        -0.3944
     14 C38        62.7100 -133.0710   35.6540 C.3       1 04C        -0.0244
     15 N25        61.6130 -135.1850   37.9410 N.am      1 04C        -0.2621
     16 C24        61.2920 -135.4240   39.3520 C.3       1 04C         0.1389
     17 C40        60.7750 -136.8200   39.5270 C.3       1 04C         0.0163
     18 C41        59.3960 -136.8470   39.2980 C.ar      1 04C        -0.0493
     19 C48        58.9010 -136.9680   37.9990 C.ar      1 04C        -0.0685
     20 C47        57.5270 -137.0260   37.7700 C.ar      1 04C        -0.0396
     21 C44        56.6360 -136.9670   38.8410 C.ar      1 04C         0.0837
     22 O45        55.2910 -137.0450   38.6190 O.3       1 04C        -0.3257
     23 C46        54.5980 -135.8030   38.6520 C.3       1 04C         0.0579
     24 C43        57.1290 -136.8590   40.1420 C.ar      1 04C        -0.0396
     25 C42        58.5030 -136.8010   40.3700 C.ar      1 04C        -0.0685
     26 C23        62.5830 -135.3100   40.1620 C.2       1 04C         0.2040
     27 O49        63.6790 -135.2690   39.6050 O.2       1 04C        -0.3943
     28 N22        62.3980 -135.3130   41.4900 N.am      1 04C        -0.2774
     29 C8         63.4980 -135.1640   42.4420 C.3       1 04C         0.0777
     30 C9         63.4080 -136.2060   43.5750 C.3       1 04C         0.0845
     31 O21        62.0920 -136.1520   44.1430 O.3       1 04C        -0.3890
     32 C10        63.7740 -137.7300   43.2160 C.3       1 04C         0.0077
     33 C11        64.9200 -137.7870   42.1490 C.3       1 04C        -0.0579
     34 C12        62.4990 -138.4040   42.6760 C.3       1 04C         0.0492
     35 O13        62.8790 -139.3820   41.6920 O.3       1 04C        -0.3947
     36 C7         63.3300 -133.8000   43.0990 C.3       1 04C         0.0064
     37 C6         64.0720 -132.7560   42.4960 C.ar      1 04C        -0.0408
     38 C5         64.8240 -132.8610   41.3140 C.ar      1 04C        -0.0603
     39 C4         65.5030 -131.7530   40.8070 C.ar      1 04C        -0.0686
     40 C3         65.4420 -130.5240   41.4610 C.ar      1 04C        -0.0687
     41 C2         64.6960 -130.4010   42.6280 C.ar      1 04C        -0.0686
     42 C1         64.0180 -131.5110   43.1320 C.ar      1 04C        -0.0603
     43 H1         57.9439 -134.8564   33.0696 H         1 04C         0.1063
     44 H2         58.7562 -133.2557   32.9997 H         1 04C         0.1063
     45 H3         57.7194 -132.6813   35.0347 H         1 04C         0.2054
     46 H4         57.6035 -134.6803   36.2806 H         1 04C         0.0837
     47 H5         56.4865 -135.3576   35.0476 H         1 04C         0.0837
     48 H6         55.9306 -133.9457   33.0747 H         1 04C         0.0837
     49 H7         56.6624 -132.3099   32.9501 H         1 04C         0.0837
     50 H8         55.2795 -134.4460   36.9830 H         1 04C         0.0613
     51 H9         56.0384 -132.8450   36.6867 H         1 04C         0.0613
     52 H10        55.3231 -131.5294   34.8194 H         1 04C         0.0613
     53 H11        54.2555 -132.2914   33.5921 H         1 04C         0.0613
     54 H12        60.2958 -132.7168   34.7127 H         1 04C         0.1884
     55 H13        61.9124 -135.0656   35.4779 H         1 04C         0.0797
     56 H14        63.5531 -133.3866   36.2861 H         1 04C         0.0277
     57 H15        62.3686 -132.0740   35.9692 H         1 04C         0.0277
     58 H16        63.0337 -133.0326   34.6034 H         1 04C         0.0277
     59 H17        62.2315 -135.8159   37.4726 H         1 04C         0.1885
     60 H18        60.5478 -134.6933   39.7015 H         1 04C         0.0821
     61 H19        60.9815 -137.1599   40.5526 H         1 04C         0.0453
     62 H20        61.2770 -137.4877   38.8113 H         1 04C         0.0453
     63 H21        59.5890 -137.0172   37.1628 H         1 04C         0.0530
     64 H22        57.1506 -137.1171   36.7575 H         1 04C         0.0525
     65 H23        53.5281 -135.9750   38.4628 H         1 04C         0.0575
     66 H24        55.0046 -135.1355   37.8779 H         1 04C         0.0575
     67 H25        54.7254 -135.3382   39.6408 H         1 04C         0.0575
     68 H26        56.4408 -136.8201   40.9786 H         1 04C         0.0525
     69 H27        58.8794 -136.7199   41.3833 H         1 04C         0.0530
     70 H28        61.4692 -135.4217   41.8442 H         1 04C         0.1857
     71 H29        64.4652 -135.2429   41.9240 H         1 04C         0.0604
     72 H30        64.1258 -135.8900   44.3463 H         1 04C         0.0621
     73 H31        61.9334 -135.2819   44.4898 H         1 04C         0.2099
     74 H32        64.1075 -138.2510   44.1256 H         1 04C         0.0346
     75 H33        65.1543 -138.8367   41.9183 H         1 04C         0.0234
     76 H34        65.8169 -137.2902   42.5473 H         1 04C         0.0234
     77 H35        64.5933 -137.2743   41.2323 H         1 04C         0.0234
     78 H36        61.8470 -137.6478   42.2144 H         1 04C         0.0560
     79 H37        61.9626 -138.8967   43.5003 H         1 04C         0.0560
     80 H38        63.3436 -138.9526   40.9833 H         1 04C         0.2094
     81 H39        63.6482 -133.8840   44.1486 H         1 04C         0.0449
     82 H40        62.2645 -133.5298   43.0593 H         1 04C         0.0449
     83 H41        64.8770 -133.8097   40.7923 H         1 04C         0.0557
     84 H42        66.0832 -131.8488   39.8963 H         1 04C         0.0599
     85 H43        65.9737 -129.6678   41.0618 H         1 04C         0.0559
     86 H44        64.6417 -129.4486   43.1428 H         1 04C         0.0599
     87 H45        63.4344 -131.4063   44.0395 H         1 04C         0.0557
@<TRIPOS>BOND
     1    1    2 2  
     2    3    1 1  
     3    1   10 am 
     4    4    3 1  
     5    6    4 1  
     6    4    7 1  
     7    8    5 1  
     8    5    9 1  
     9    6    8 1  
    10    7    9 1  
    11   10   11 1  
    12   11   12 1  
    13   11   14 1  
    14   12   13 2  
    15   12   15 am 
    16   15   16 1  
    17   16   17 1  
    18   16   26 1  
    19   17   18 1  
    20   18   19 ar 
    21   18   25 ar 
    22   19   20 ar 
    23   20   21 ar 
    24   21   22 1  
    25   21   24 ar 
    26   22   23 1  
    27   24   25 ar 
    28   26   27 2  
    29   26   28 am 
    30   28   29 1  
    31   29   30 1  
    32   29   36 1  
    33   30   31 1  
    34   30   32 1  
    35   32   33 1  
    36   32   34 1  
    37   34   35 1  
    38   36   37 1  
    39   37   38 ar 
    40   37   42 ar 
    41   38   39 ar 
    42   39   40 ar 
    43   40   41 ar 
    44   41   42 ar 
    45    3   43 1  
    46    3   44 1  
    47    4   45 1  
    48    6   46 1  
    49    6   47 1  
    50    7   48 1  
    51    7   49 1  
    52    8   50 1  
    53    8   51 1  
    54    9   52 1  
    55    9   53 1  
    56   10   54 1  
    57   11   55 1  
    58   14   56 1  
    59   14   57 1  
    60   14   58 1  
    61   15   59 1  
    62   16   60 1  
    63   17   61 1  
    64   17   62 1  
    65   19   63 1  
    66   20   64 1  
    67   23   65 1  
    68   23   66 1  
    69   23   67 1  
    70   24   68 1  
    71   25   69 1  
    72   28   70 1  
    73   29   71 1  
    74   30   72 1  
    75   31   73 1  
    76   32   74 1  
    77   33   75 1  
    78   33   76 1  
    79   33   77 1  
    80   34   78 1  
    81   34   79 1  
    82   35   80 1  
    83   36   81 1  
    84   36   82 1  
    85   38   83 1  
    86   39   84 1  
    87   40   85 1  
    88   41   86 1  
    89   42   87 1  
@<TRIPOS>SUBSTRUCTURE
     1 04C         1

