### 
### Created by X-TOOL on Mon Sep 10 21:13:23 2018
### 

@<TRIPOS>MOLECULE
4qz1_ligand
   87    89     1     0     0
SMALL
GAST_HUCK


@<TRIPOS>ATOM
      1 C29        59.5780 -134.2350   34.8760 C.2       1 04C         0.2238
      2 O37        59.5930 -135.4540   35.0410 O.2       1 04C        -0.3910
      3 C30        58.4640 -133.5810   34.0480 C.3       1 04C         0.0582
      4 N31        57.2960 -133.6770   34.9120 N.4       1 04C         0.2552
      5 O34        54.7820 -133.0830   35.8600 O.3       1 04C        -0.3693
      6 C36        56.1450 -134.2850   34.2200 C.3       1 04C        -0.0060
      7 C32        56.9480 -132.3620   35.4510 C.3       1 04C        -0.0060
      8 C35        55.0290 -134.3530   35.1910 C.3       1 04C         0.0878
      9 C33        55.9350 -132.5130   36.5160 C.3       1 04C         0.0878
     10 N28        60.4730 -133.3910   35.4130 N.am      1 04C        -0.2615
     11 C27        61.5840 -133.8780   36.2420 C.3       1 04C         0.1283
     12 C26        61.1190 -133.9790   37.6890 C.2       1 04C         0.2037
     13 O39        60.3620 -133.1310   38.1620 O.2       1 04C        -0.3944
     14 C38        62.7620 -132.9050   36.1670 C.3       1 04C        -0.0244
     15 N25        61.6070 -135.0390   38.3540 N.am      1 04C        -0.2621
     16 C24        61.3030 -135.2860   39.7680 C.3       1 04C         0.1389
     17 C40        60.7340 -136.6630   39.9730 C.3       1 04C         0.0163
     18 C41        59.3650 -136.5580   39.7530 C.ar      1 04C        -0.0493
     19 C48        58.8420 -136.6810   38.4710 C.ar      1 04C        -0.0685
     20 C47        57.4700 -136.5820   38.2570 C.ar      1 04C        -0.0396
     21 C44        56.6040 -136.3630   39.3400 C.ar      1 04C         0.0837
     22 O45        55.2410 -136.2410   39.2510 O.3       1 04C        -0.3257
     23 C46        54.5960 -136.5510   38.0070 C.3       1 04C         0.0579
     24 C43        57.1400 -136.2420   40.6160 C.ar      1 04C        -0.0396
     25 C42        58.5070 -136.3390   40.8260 C.ar      1 04C        -0.0685
     26 C23        62.6160 -135.2020   40.5430 C.2       1 04C         0.2040
     27 O49        63.7030 -135.3360   39.9740 O.2       1 04C        -0.3943
     28 N22        62.4500 -135.0050   41.8600 N.am      1 04C        -0.2774
     29 C8         63.5670 -134.8640   42.7940 C.3       1 04C         0.0777
     30 C9         63.4790 -135.9100   43.9220 C.3       1 04C         0.0845
     31 O21        62.1650 -135.8870   44.4820 O.3       1 04C        -0.3890
     32 C10        63.8790 -137.4210   43.5700 C.3       1 04C         0.0077
     33 C11        65.0560 -137.4550   42.5510 C.3       1 04C        -0.0579
     34 C12        62.6560 -138.0890   42.9530 C.3       1 04C         0.0492
     35 O13        63.0970 -139.2990   42.3160 O.3       1 04C        -0.3947
     36 C7         63.4420 -133.4960   43.4560 C.3       1 04C         0.0064
     37 C6         64.2010 -132.4790   42.8260 C.ar      1 04C        -0.0408
     38 C5         64.8800 -132.6130   41.6040 C.ar      1 04C        -0.0603
     39 C4         65.5860 -131.5380   41.0670 C.ar      1 04C        -0.0686
     40 C3         65.6200 -130.3140   41.7300 C.ar      1 04C        -0.0687
     41 C2         64.9470 -130.1610   42.9370 C.ar      1 04C        -0.0686
     42 C1         64.2450 -131.2380   43.4740 C.ar      1 04C        -0.0603
     43 H1         58.3022 -134.1264   33.1065 H         1 04C         0.1063
     44 H2         58.7038 -132.5305   33.8267 H         1 04C         0.1063
     45 H3         57.5365 -134.2754   35.6867 H         1 04C         0.2054
     46 H4         56.4053 -135.2966   33.8752 H         1 04C         0.0837
     47 H5         55.8555 -133.6667   33.3575 H         1 04C         0.0837
     48 H6         56.5410 -131.7327   34.6458 H         1 04C         0.0837
     49 H7         57.8487 -131.8875   35.8676 H         1 04C         0.0837
     50 H8         54.1156 -134.6512   34.6556 H         1 04C         0.0613
     51 H9         55.2715 -135.1093   35.9520 H         1 04C         0.0613
     52 H10        56.3019 -133.1854   37.3054 H         1 04C         0.0613
     53 H11        55.6861 -131.5350   36.9537 H         1 04C         0.0613
     54 H12        60.3816 -132.4094   35.2452 H         1 04C         0.1884
     55 H13        61.9020 -134.8684   35.8842 H         1 04C         0.0797
     56 H14        63.5871 -133.2794   36.7908 H         1 04C         0.0277
     57 H15        62.4453 -131.9170   36.5323 H         1 04C         0.0277
     58 H16        63.1008 -132.8190   35.1240 H         1 04C         0.0277
     59 H17        62.1984 -135.6826   37.8682 H         1 04C         0.1885
     60 H18        60.5909 -134.5314   40.1334 H         1 04C         0.0821
     61 H19        60.9292 -137.0065   40.9996 H         1 04C         0.0453
     62 H20        61.1811 -137.3698   39.2585 H         1 04C         0.0453
     63 H21        59.5067 -136.8551   37.6326 H         1 04C         0.0530
     64 H22        57.0702 -136.6741   37.2536 H         1 04C         0.0525
     65 H23        53.5111 -136.4010   38.1092 H         1 04C         0.0575
     66 H24        54.7977 -137.5990   37.7405 H         1 04C         0.0575
     67 H25        54.9847 -135.8906   37.2178 H         1 04C         0.0575
     68 H26        56.4805 -136.0694   41.4588 H         1 04C         0.0525
     69 H27        58.9082 -136.2440   41.8285 H         1 04C         0.0530
     70 H28        61.5185 -134.9521   42.2200 H         1 04C         0.1857
     71 H29        64.5234 -134.9582   42.2588 H         1 04C         0.0604
     72 H30        64.1830 -135.5809   44.7005 H         1 04C         0.0621
     73 H31        61.9868 -135.0225   44.8333 H         1 04C         0.2099
     74 H32        64.1747 -137.9508   44.4875 H         1 04C         0.0346
     75 H33        65.3140 -138.4999   42.3237 H         1 04C         0.0234
     76 H34        65.9305 -136.9472   42.9838 H         1 04C         0.0234
     77 H35        64.7549 -136.9421   41.6257 H         1 04C         0.0234
     78 H36        62.1977 -137.4196   42.2101 H         1 04C         0.0560
     79 H37        61.9214 -138.3242   43.7372 H         1 04C         0.0560
     80 H38        63.7341 -139.0876   41.6436 H         1 04C         0.2094
     81 H39        63.7805 -133.5842   44.4989 H         1 04C         0.0449
     82 H40        62.3831 -133.1986   43.4380 H         1 04C         0.0449
     83 H41        64.8548 -133.5588   41.0749 H         1 04C         0.0557
     84 H42        66.1123 -131.6556   40.1267 H         1 04C         0.0599
     85 H43        66.1702 -129.4819   41.3059 H         1 04C         0.0559
     86 H44        64.9684 -129.2100   43.4568 H         1 04C         0.0599
     87 H45        63.7210 -131.1127   44.4146 H         1 04C         0.0557
@<TRIPOS>BOND
     1    1    2 2  
     2    3    1 1  
     3    1   10 am 
     4    4    3 1  
     5    6    4 1  
     6    4    7 1  
     7    8    5 1  
     8    5    9 1  
     9    6    8 1  
    10    7    9 1  
    11   10   11 1  
    12   11   12 1  
    13   11   14 1  
    14   12   13 2  
    15   12   15 am 
    16   15   16 1  
    17   16   17 1  
    18   16   26 1  
    19   17   18 1  
    20   18   19 ar 
    21   18   25 ar 
    22   19   20 ar 
    23   20   21 ar 
    24   21   22 1  
    25   21   24 ar 
    26   22   23 1  
    27   24   25 ar 
    28   26   27 2  
    29   26   28 am 
    30   28   29 1  
    31   29   30 1  
    32   29   36 1  
    33   30   31 1  
    34   30   32 1  
    35   32   33 1  
    36   32   34 1  
    37   34   35 1  
    38   36   37 1  
    39   37   38 ar 
    40   37   42 ar 
    41   38   39 ar 
    42   39   40 ar 
    43   40   41 ar 
    44   41   42 ar 
    45    3   43 1  
    46    3   44 1  
    47    4   45 1  
    48    6   46 1  
    49    6   47 1  
    50    7   48 1  
    51    7   49 1  
    52    8   50 1  
    53    8   51 1  
    54    9   52 1  
    55    9   53 1  
    56   10   54 1  
    57   11   55 1  
    58   14   56 1  
    59   14   57 1  
    60   14   58 1  
    61   15   59 1  
    62   16   60 1  
    63   17   61 1  
    64   17   62 1  
    65   19   63 1  
    66   20   64 1  
    67   23   65 1  
    68   23   66 1  
    69   23   67 1  
    70   24   68 1  
    71   25   69 1  
    72   28   70 1  
    73   29   71 1  
    74   30   72 1  
    75   31   73 1  
    76   32   74 1  
    77   33   75 1  
    78   33   76 1  
    79   33   77 1  
    80   34   78 1  
    81   34   79 1  
    82   35   80 1  
    83   36   81 1  
    84   36   82 1  
    85   38   83 1  
    86   39   84 1  
    87   40   85 1  
    88   41   86 1  
    89   42   87 1  
@<TRIPOS>SUBSTRUCTURE
     1 04C         1

