### 
### Created by X-TOOL on Mon Sep 10 21:13:24 2018
### 

@<TRIPOS>MOLECULE
4qz2_ligand
   87    89     1     0     0
SMALL
GAST_HUCK


@<TRIPOS>ATOM
      1 C29        59.8160 -134.4740   34.6550 C.2       1 04C         0.2238
      2 O37        59.8930 -135.6670   34.9430 O.2       1 04C        -0.3910
      3 C30        58.6580 -133.9590   33.7830 C.3       1 04C         0.0582
      4 N31        57.6400 -133.4630   34.7030 N.4       1 04C         0.2552
      5 O34        55.0250 -132.8190   35.3540 O.3       1 04C        -0.3693
      6 C36        56.7110 -134.5360   35.1260 C.3       1 04C        -0.0060
      7 C32        56.8940 -132.3840   34.0460 C.3       1 04C        -0.0060
      8 C35        55.6750 -133.9280   35.9940 C.3       1 04C         0.0878
      9 C33        55.9280 -131.7600   34.9880 C.3       1 04C         0.0878
     10 N28        60.6980 -133.5410   35.0550 N.am      1 04C        -0.2615
     11 C27        61.8580 -133.8870   35.8950 C.3       1 04C         0.1283
     12 C26        61.4180 -133.9770   37.3600 C.2       1 04C         0.2037
     13 O39        60.6550 -133.1430   37.8440 O.2       1 04C        -0.3944
     14 C38        62.9570 -132.8310   35.7410 C.3       1 04C        -0.0244
     15 N25        61.9260 -135.0240   38.0300 N.am      1 04C        -0.2621
     16 C24        61.6160 -135.2800   39.4400 C.3       1 04C         0.1389
     17 C40        61.0550 -136.6740   39.5690 C.3       1 04C         0.0163
     18 C41        59.6780 -136.5880   39.3520 C.ar      1 04C        -0.0493
     19 C48        59.1150 -136.9220   38.1210 C.ar      1 04C        -0.0685
     20 C47        57.7370 -136.8400   37.9230 C.ar      1 04C        -0.0396
     21 C44        56.8990 -136.4240   38.9670 C.ar      1 04C         0.0837
     22 O45        55.5330 -136.3060   38.8860 O.3       1 04C        -0.3257
     23 C46        54.8110 -136.7540   37.7300 C.3       1 04C         0.0579
     24 C43        57.4720 -136.0970   40.1930 C.ar      1 04C        -0.0396
     25 C42        58.8440 -136.1810   40.3870 C.ar      1 04C        -0.0685
     26 C23        62.9090 -135.1960   40.2580 C.2       1 04C         0.2040
     27 O49        64.0050 -135.3570   39.7200 O.2       1 04C        -0.3943
     28 N22        62.7250 -134.9520   41.5680 N.am      1 04C        -0.2774
     29 C8         63.8310 -134.8350   42.5290 C.3       1 04C         0.0777
     30 C9         63.6720 -135.8810   43.6570 C.3       1 04C         0.0845
     31 O21        62.3530 -135.7710   44.1880 O.3       1 04C        -0.3890
     32 C10        63.9870 -137.4030   43.2810 C.3       1 04C         0.0077
     33 C11        65.0030 -137.5060   42.0890 C.3       1 04C        -0.0579
     34 C12        62.6770 -138.0080   42.8000 C.3       1 04C         0.0492
     35 O13        62.9880 -139.2440   42.1360 O.3       1 04C        -0.3947
     36 C7         63.7860 -133.4660   43.1920 C.3       1 04C         0.0064
     37 C6         64.5010 -132.4590   42.5030 C.ar      1 04C        -0.0408
     38 C5         65.3470 -132.6690   41.4040 C.ar      1 04C        -0.0603
     39 C4         65.9990 -131.5920   40.8040 C.ar      1 04C        -0.0686
     40 C3         65.8200 -130.2980   41.2860 C.ar      1 04C        -0.0687
     41 C2         64.9840 -130.0740   42.3740 C.ar      1 04C        -0.0686
     42 C1         64.3370 -131.1520   42.9710 C.ar      1 04C        -0.0603
     43 H1         58.2509 -134.7762   33.1695 H         1 04C         0.1063
     44 H2         59.0068 -133.1472   33.1277 H         1 04C         0.1063
     45 H3         58.0971 -133.0952   35.5227 H         1 04C         0.2054
     46 H4         57.2610 -135.3072   35.6852 H         1 04C         0.0837
     47 H5         56.2384 -134.9904   34.2428 H         1 04C         0.0837
     48 H6         56.3446 -132.7966   33.1870 H         1 04C         0.0837
     49 H7         57.6014 -131.6182   33.6953 H         1 04C         0.0837
     50 H8         54.9207 -134.6913   36.2358 H         1 04C         0.0613
     51 H9         56.1500 -133.5752   36.9213 H         1 04C         0.0613
     52 H10        56.4494 -131.3728   35.8758 H         1 04C         0.0613
     53 H11        55.3833 -130.9406   34.4962 H         1 04C         0.0613
     54 H12        60.5634 -132.5902   34.7758 H         1 04C         0.1884
     55 H13        62.2535 -134.8630   35.5772 H         1 04C         0.0797
     56 H14        63.8161 -133.1011   36.3726 H         1 04C         0.0277
     57 H15        62.5685 -131.8496   36.0506 H         1 04C         0.0277
     58 H16        63.2756 -132.7840   34.6892 H         1 04C         0.0277
     59 H17        62.5382 -135.6521   37.5497 H         1 04C         0.1885
     60 H18        60.8872 -134.5422   39.8068 H         1 04C         0.0821
     61 H19        61.2536 -137.0682   40.5765 H         1 04C         0.0453
     62 H20        61.5138 -137.3355   38.8194 H         1 04C         0.0453
     63 H21        59.7550 -137.2488   37.3094 H         1 04C         0.0530
     64 H22        57.3128 -137.0986   36.9595 H         1 04C         0.0525
     65 H23        53.7366 -136.5663   37.8733 H         1 04C         0.0575
     66 H24        54.9791 -137.8317   37.5876 H         1 04C         0.0575
     67 H25        55.1636 -136.2075   36.8429 H         1 04C         0.0575
     68 H26        56.8368 -135.7717   41.0089 H         1 04C         0.0525
     69 H27        59.2678 -135.9275   41.3520 H         1 04C         0.0530
     70 H28        61.7895 -134.8449   41.9047 H         1 04C         0.1857
     71 H29        64.7901 -134.9779   42.0096 H         1 04C         0.0604
     72 H30        64.3833 -135.6033   44.4488 H         1 04C         0.0621
     73 H31        62.2242 -134.8958   44.5344 H         1 04C         0.2099
     74 H32        64.3756 -137.9402   44.1587 H         1 04C         0.0346
     75 H33        65.1940 -138.5649   41.8605 H         1 04C         0.0234
     76 H34        65.9470 -137.0152   42.3683 H         1 04C         0.0234
     77 H35        64.5801 -137.0102   41.2028 H         1 04C         0.0234
     78 H36        62.1809 -137.3202   42.0994 H         1 04C         0.0560
     79 H37        62.0147 -138.1989   43.6573 H         1 04C         0.0560
     80 H38        62.1854 -139.6453   41.8240 H         1 04C         0.2094
     81 H39        64.2106 -133.5591   44.2025 H         1 04C         0.0449
     82 H40        62.7339 -133.1529   43.2637 H         1 04C         0.0449
     83 H41        65.4945 -133.6718   41.0197 H         1 04C         0.0557
     84 H42        66.6508 -131.7638   39.9550 H         1 04C         0.0599
     85 H43        66.3314 -129.4670   40.8139 H         1 04C         0.0559
     86 H44        64.8375 -129.0693   42.7537 H         1 04C         0.0599
     87 H45        63.6888 -130.9734   43.8213 H         1 04C         0.0557
@<TRIPOS>BOND
     1    1    2 2  
     2    3    1 1  
     3    1   10 am 
     4    4    3 1  
     5    6    4 1  
     6    4    7 1  
     7    8    5 1  
     8    5    9 1  
     9    6    8 1  
    10    7    9 1  
    11   10   11 1  
    12   11   12 1  
    13   11   14 1  
    14   12   13 2  
    15   12   15 am 
    16   15   16 1  
    17   16   17 1  
    18   16   26 1  
    19   17   18 1  
    20   18   19 ar 
    21   18   25 ar 
    22   19   20 ar 
    23   20   21 ar 
    24   21   22 1  
    25   21   24 ar 
    26   22   23 1  
    27   24   25 ar 
    28   26   27 2  
    29   26   28 am 
    30   28   29 1  
    31   29   30 1  
    32   29   36 1  
    33   30   31 1  
    34   30   32 1  
    35   32   33 1  
    36   32   34 1  
    37   34   35 1  
    38   36   37 1  
    39   37   38 ar 
    40   37   42 ar 
    41   38   39 ar 
    42   39   40 ar 
    43   40   41 ar 
    44   41   42 ar 
    45    3   43 1  
    46    3   44 1  
    47    4   45 1  
    48    6   46 1  
    49    6   47 1  
    50    7   48 1  
    51    7   49 1  
    52    8   50 1  
    53    8   51 1  
    54    9   52 1  
    55    9   53 1  
    56   10   54 1  
    57   11   55 1  
    58   14   56 1  
    59   14   57 1  
    60   14   58 1  
    61   15   59 1  
    62   16   60 1  
    63   17   61 1  
    64   17   62 1  
    65   19   63 1  
    66   20   64 1  
    67   23   65 1  
    68   23   66 1  
    69   23   67 1  
    70   24   68 1  
    71   25   69 1  
    72   28   70 1  
    73   29   71 1  
    74   30   72 1  
    75   31   73 1  
    76   32   74 1  
    77   33   75 1  
    78   33   76 1  
    79   33   77 1  
    80   34   78 1  
    81   34   79 1  
    82   35   80 1  
    83   36   81 1  
    84   36   82 1  
    85   38   83 1  
    86   39   84 1  
    87   40   85 1  
    88   41   86 1  
    89   42   87 1  
@<TRIPOS>SUBSTRUCTURE
     1 04C         1

