### 
### Created by X-TOOL on Mon Sep 10 21:13:23 2018
### 

@<TRIPOS>MOLECULE
4qz3_ligand
   87    89     1     0     0
SMALL
GAST_HUCK


@<TRIPOS>ATOM
      1 C29        59.5080 -134.4940   34.6300 C.2       1 04C         0.2238
      2 O37        59.5420 -135.7240   34.6120 O.2       1 04C        -0.3910
      3 C30        58.3590 -133.7380   33.9440 C.3       1 04C         0.0582
      4 N31        57.1420 -134.1620   34.6400 N.4       1 04C         0.2552
      5 O34        54.5700 -133.3790   35.3540 O.3       1 04C        -0.3693
      6 C36        56.0370 -134.2740   33.6560 C.3       1 04C        -0.0060
      7 C32        56.8610 -133.2070   35.7320 C.3       1 04C        -0.0060
      8 C35        54.7330 -134.4100   34.3660 C.3       1 04C         0.0878
      9 C33        55.5540 -133.4600   36.4010 C.3       1 04C         0.0878
     10 N28        60.4350 -133.7190   35.2190 N.am      1 04C        -0.2615
     11 C27        61.5690 -134.2890   35.9530 C.3       1 04C         0.1283
     12 C26        61.1240 -134.4190   37.4060 C.2       1 04C         0.2037
     13 O39        60.3660 -133.5830   37.8990 O.2       1 04C        -0.3944
     14 C38        62.7790 -133.3530   35.8670 C.3       1 04C        -0.0244
     15 N25        61.5980 -135.4890   38.0600 N.am      1 04C        -0.2621
     16 C24        61.2570 -135.7250   39.4700 C.3       1 04C         0.1389
     17 C40        60.6380 -137.0900   39.6510 C.3       1 04C         0.0163
     18 C41        59.2900 -136.9730   39.2950 C.ar      1 04C        -0.0493
     19 C48        58.8550 -137.3360   38.0220 C.ar      1 04C        -0.0685
     20 C47        57.5100 -137.2230   37.6780 C.ar      1 04C        -0.0396
     21 C44        56.5790 -136.7540   38.6020 C.ar      1 04C         0.0837
     22 O45        55.2670 -136.6530   38.2120 O.3       1 04C        -0.3257
     23 C46        54.2500 -136.9920   39.1750 C.3       1 04C         0.0579
     24 C43        57.0180 -136.3850   39.8780 C.ar      1 04C        -0.0396
     25 C42        58.3610 -136.5030   40.2210 C.ar      1 04C        -0.0685
     26 C23        62.5370 -135.6510   40.3030 C.2       1 04C         0.2040
     27 O49        63.6430 -135.8410   39.7930 O.2       1 04C        -0.3943
     28 N22        62.3230 -135.3780   41.5990 N.am      1 04C        -0.2774
     29 C8         63.4090 -135.2520   42.5720 C.3       1 04C         0.0777
     30 C9         63.2510 -136.2980   43.7010 C.3       1 04C         0.0845
     31 O21        61.9100 -136.2260   44.2160 O.3       1 04C        -0.3890
     32 C10        63.5860 -137.8250   43.3240 C.3       1 04C         0.0077
     33 C11        64.6720 -137.9110   42.1920 C.3       1 04C        -0.0579
     34 C12        62.2910 -138.4430   42.7970 C.3       1 04C         0.0492
     35 O13        62.6430 -139.6570   42.1130 O.3       1 04C        -0.3947
     36 C7         63.3450 -133.8640   43.2040 C.3       1 04C         0.0064
     37 C6         64.1130 -132.8910   42.5150 C.ar      1 04C        -0.0408
     38 C5         64.9340 -133.1450   41.4030 C.ar      1 04C        -0.0603
     39 C4         65.6430 -132.1090   40.7970 C.ar      1 04C        -0.0686
     40 C3         65.5500 -130.8070   41.2820 C.ar      1 04C        -0.0687
     41 C2         64.7410 -130.5380   42.3810 C.ar      1 04C        -0.0686
     42 C1         64.0330 -131.5760   42.9850 C.ar      1 04C        -0.0603
     43 H1         58.3052 -134.0049   32.8782 H         1 04C         0.1063
     44 H2         58.5001 -132.6516   34.0433 H         1 04C         0.1063
     45 H3         57.2942 -135.0713   35.0475 H         1 04C         0.2054
     46 H4         56.2011 -135.1587   33.0233 H         1 04C         0.0837
     47 H5         56.0167 -133.3719   33.0269 H         1 04C         0.0837
     48 H6         56.8504 -132.1894   35.3144 H         1 04C         0.0837
     49 H7         57.6609 -133.2870   36.4828 H         1 04C         0.0837
     50 H8         53.9160 -134.3372   33.6331 H         1 04C         0.0613
     51 H9         54.6948 -135.3913   34.8615 H         1 04C         0.0613
     52 H10        55.5443 -134.4584   36.8626 H         1 04C         0.0613
     53 H11        55.3613 -132.6982   37.1708 H         1 04C         0.0613
     54 H12        60.3487 -132.7248   35.1547 H         1 04C         0.1884
     55 H13        61.8330 -135.2748   35.5426 H         1 04C         0.0797
     56 H14        63.6220 -133.7917   36.4210 H         1 04C         0.0277
     57 H15        62.5201 -132.3778   36.3051 H         1 04C         0.0277
     58 H16        63.0637 -133.2176   34.8132 H         1 04C         0.0277
     59 H17        62.1920 -136.1358   37.5817 H         1 04C         0.1885
     60 H18        60.5477 -134.9551   39.8079 H         1 04C         0.0821
     61 H19        60.7263 -137.4098   40.6998 H         1 04C         0.0453
     62 H20        61.1391 -137.8223   39.0009 H         1 04C         0.0453
     63 H21        59.5676 -137.7086   37.2950 H         1 04C         0.0530
     64 H22        57.1848 -137.5025   36.6824 H         1 04C         0.0525
     65 H23        53.2568 -136.8629   38.7202 H         1 04C         0.0575
     66 H24        54.3404 -136.3331   40.0512 H         1 04C         0.0575
     67 H25        54.3763 -138.0387   39.4887 H         1 04C         0.0575
     68 H26        56.3078 -136.0050   40.6034 H         1 04C         0.0525
     69 H27        58.6875 -136.2270   41.2171 H         1 04C         0.0530
     70 H28        61.3817 -135.2554   41.9135 H         1 04C         0.1857
     71 H29        64.3757 -135.3933   42.0665 H         1 04C         0.0604
     72 H30        63.9464 -136.0088   44.5027 H         1 04C         0.0621
     73 H31        61.8039 -136.8655   44.9105 H         1 04C         0.2099
     74 H32        63.9374 -138.3642   44.2160 H         1 04C         0.0346
     75 H33        64.8765 -138.9665   41.9596 H         1 04C         0.0234
     76 H34        65.5976 -137.4249   42.5341 H         1 04C         0.0234
     77 H35        64.3023 -137.4019   41.2897 H         1 04C         0.0234
     78 H36        61.7986 -137.7482   42.1008 H         1 04C         0.0560
     79 H37        61.6127 -138.6658   43.6338 H         1 04C         0.0560
     80 H38        61.8564 -140.0667   41.7723 H         1 04C         0.2094
     81 H39        63.7180 -133.9343   44.2364 H         1 04C         0.0449
     82 H40        62.2955 -133.5348   43.2149 H         1 04C         0.0449
     83 H41        65.0165 -134.1534   41.0139 H         1 04C         0.0557
     84 H42        66.2727 -132.3189   39.9400 H         1 04C         0.0599
     85 H43        66.1053 -130.0072   40.8055 H         1 04C         0.0559
     86 H44        64.6615 -129.5276   42.7654 H         1 04C         0.0599
     87 H45        63.4043 -131.3584   43.8409 H         1 04C         0.0557
@<TRIPOS>BOND
     1    1    2 2  
     2    3    1 1  
     3    1   10 am 
     4    4    3 1  
     5    6    4 1  
     6    4    7 1  
     7    8    5 1  
     8    5    9 1  
     9    6    8 1  
    10    7    9 1  
    11   10   11 1  
    12   11   12 1  
    13   11   14 1  
    14   12   13 2  
    15   12   15 am 
    16   15   16 1  
    17   16   17 1  
    18   16   26 1  
    19   17   18 1  
    20   18   19 ar 
    21   18   25 ar 
    22   19   20 ar 
    23   20   21 ar 
    24   21   22 1  
    25   21   24 ar 
    26   22   23 1  
    27   24   25 ar 
    28   26   27 2  
    29   26   28 am 
    30   28   29 1  
    31   29   30 1  
    32   29   36 1  
    33   30   31 1  
    34   30   32 1  
    35   32   33 1  
    36   32   34 1  
    37   34   35 1  
    38   36   37 1  
    39   37   38 ar 
    40   37   42 ar 
    41   38   39 ar 
    42   39   40 ar 
    43   40   41 ar 
    44   41   42 ar 
    45    3   43 1  
    46    3   44 1  
    47    4   45 1  
    48    6   46 1  
    49    6   47 1  
    50    7   48 1  
    51    7   49 1  
    52    8   50 1  
    53    8   51 1  
    54    9   52 1  
    55    9   53 1  
    56   10   54 1  
    57   11   55 1  
    58   14   56 1  
    59   14   57 1  
    60   14   58 1  
    61   15   59 1  
    62   16   60 1  
    63   17   61 1  
    64   17   62 1  
    65   19   63 1  
    66   20   64 1  
    67   23   65 1  
    68   23   66 1  
    69   23   67 1  
    70   24   68 1  
    71   25   69 1  
    72   28   70 1  
    73   29   71 1  
    74   30   72 1  
    75   31   73 1  
    76   32   74 1  
    77   33   75 1  
    78   33   76 1  
    79   33   77 1  
    80   34   78 1  
    81   34   79 1  
    82   35   80 1  
    83   36   81 1  
    84   36   82 1  
    85   38   83 1  
    86   39   84 1  
    87   40   85 1  
    88   41   86 1  
    89   42   87 1  
@<TRIPOS>SUBSTRUCTURE
     1 04C         1

