### 
### Created by X-TOOL on Mon Sep 10 21:13:23 2018
### 

@<TRIPOS>MOLECULE
4qz4_ligand
   87    89     1     0     0
SMALL
GAST_HUCK


@<TRIPOS>ATOM
      1 C29        59.1220 -134.0870   34.7930 C.2       1 04C         0.2238
      2 O37        59.1440 -135.3150   34.8710 O.2       1 04C        -0.3910
      3 C30        57.9670 -133.3660   34.0780 C.3       1 04C         0.0582
      4 N31        56.7200 -133.7710   34.7360 N.4       1 04C         0.2552
      5 O34        54.1760 -132.7810   35.3190 O.3       1 04C        -0.3693
      6 C36        55.6610 -133.8050   33.6910 C.3       1 04C        -0.0060
      7 C32        56.4380 -132.8360   35.8510 C.3       1 04C        -0.0060
      8 C35        54.2990 -133.7980   34.3020 C.3       1 04C         0.0878
      9 C33        55.0730 -132.9920   36.4250 C.3       1 04C         0.0878
     10 N28        60.0840 -133.2790   35.2710 N.am      1 04C        -0.2615
     11 C27        61.2500 -133.7960   35.9940 C.3       1 04C         0.1283
     12 C26        60.8830 -133.8730   37.4690 C.2       1 04C         0.2037
     13 O39        60.3480 -132.9110   38.0200 O.2       1 04C        -0.3944
     14 C38        62.4310 -132.8380   35.8190 C.3       1 04C        -0.0244
     15 N25        61.1580 -135.0390   38.0750 N.am      1 04C        -0.2621
     16 C24        60.8620 -135.2270   39.5000 C.3       1 04C         0.1389
     17 C40        60.2570 -136.5820   39.7690 C.3       1 04C         0.0163
     18 C41        58.8930 -136.4700   39.4490 C.ar      1 04C        -0.0493
     19 C48        58.4640 -136.6520   38.1340 C.ar      1 04C        -0.0685
     20 C47        57.1150 -136.5420   37.8060 C.ar      1 04C        -0.0396
     21 C44        56.1730 -136.2590   38.7940 C.ar      1 04C         0.0837
     22 O45        54.8450 -136.1470   38.4810 O.3       1 04C        -0.3257
     23 C46        54.2880 -137.2900   37.8030 C.3       1 04C         0.0579
     24 C43        56.5980 -136.0740   40.1110 C.ar      1 04C        -0.0396
     25 C42        57.9490 -136.1820   40.4380 C.ar      1 04C        -0.0685
     26 C23        62.1750 -135.0940   40.2660 C.2       1 04C         0.2040
     27 O49        63.2590 -135.0990   39.6810 O.2       1 04C        -0.3943
     28 N22        62.0110 -134.9690   41.5870 N.am      1 04C        -0.2774
     29 C8         63.1250 -134.7970   42.5170 C.3       1 04C         0.0777
     30 C9         63.0230 -135.8220   43.6640 C.3       1 04C         0.0845
     31 O21        61.6680 -135.8420   44.1830 O.3       1 04C        -0.3890
     32 C10        63.4730 -137.3210   43.3180 C.3       1 04C         0.0077
     33 C11        64.7970 -137.3300   42.5110 C.3       1 04C        -0.0579
     34 C12        62.3710 -137.9270   42.4520 C.3       1 04C         0.0492
     35 O13        62.1570 -139.2900   42.8650 O.3       1 04C        -0.3947
     36 C7         62.9940 -133.4140   43.1460 C.3       1 04C         0.0064
     37 C6         63.7670 -132.4090   42.5210 C.ar      1 04C        -0.0408
     38 C5         64.6200 -132.6040   41.4260 C.ar      1 04C        -0.0603
     39 C4         65.3300 -131.5320   40.8890 C.ar      1 04C        -0.0686
     40 C3         65.1990 -130.2540   41.4240 C.ar      1 04C        -0.0687
     41 C2         64.3530 -130.0430   42.5060 C.ar      1 04C        -0.0686
     42 C1         63.6480 -131.1170   43.0430 C.ar      1 04C        -0.0603
     43 H1         57.9430 -133.6554   33.0170 H         1 04C         0.1063
     44 H2         58.0973 -132.2767   34.1581 H         1 04C         0.1063
     45 H3         56.8242 -134.6976   35.1190 H         1 04C         0.2054
     46 H4         55.7796 -134.7183   33.0895 H         1 04C         0.0837
     47 H5         55.7680 -132.9226   33.0429 H         1 04C         0.0837
     48 H6         56.5433 -131.8067   35.4776 H         1 04C         0.0837
     49 H7         57.1738 -133.0136   36.6491 H         1 04C         0.0837
     50 H8         53.5557 -133.6062   33.5141 H         1 04C         0.0613
     51 H9         54.1068 -134.7814   34.7559 H         1 04C         0.0613
     52 H10        54.9421 -134.0016   36.8415 H         1 04C         0.0613
     53 H11        54.8975 -132.2447   37.2129 H         1 04C         0.0613
     54 H12        60.0017 -132.2926   35.1288 H         1 04C         0.1884
     55 H13        61.5188 -134.7934   35.6159 H         1 04C         0.0797
     56 H14        63.3038 -133.2289   36.3626 H         1 04C         0.0277
     57 H15        62.1631 -131.8488   36.2186 H         1 04C         0.0277
     58 H16        62.6749 -132.7480   34.7502 H         1 04C         0.0277
     59 H17        61.5679 -135.7856   37.5510 H         1 04C         0.1885
     60 H18        60.1580 -134.4494   39.8311 H         1 04C         0.0821
     61 H19        60.3797 -136.8515   40.8284 H         1 04C         0.0453
     62 H20        60.7356 -137.3458   39.1385 H         1 04C         0.0453
     63 H21        59.1876 -136.8812   37.3601 H         1 04C         0.0530
     64 H22        56.7963 -136.6769   36.7787 H         1 04C         0.0525
     65 H23        53.2233 -137.1093   37.5938 H         1 04C         0.0575
     66 H24        54.3904 -138.1804   38.4407 H         1 04C         0.0575
     67 H25        54.8250 -137.4528   36.8569 H         1 04C         0.0575
     68 H26        55.8732 -135.8450   40.8839 H         1 04C         0.0525
     69 H27        58.2685 -136.0419   41.4643 H         1 04C         0.0530
     70 H28        61.0820 -134.9944   41.9561 H         1 04C         0.1857
     71 H29        64.0845 -134.9020   41.9894 H         1 04C         0.0604
     72 H30        63.6897 -135.4673   44.4637 H         1 04C         0.0621
     73 H31        61.4426 -134.9790   44.5101 H         1 04C         0.2099
     74 H32        63.5987 -137.9007   44.2444 H         1 04C         0.0346
     75 H33        65.0828 -138.3683   42.2871 H         1 04C         0.0234
     76 H34        65.5906 -136.8508   43.1031 H         1 04C         0.0234
     77 H35        64.6568 -136.7773   41.5703 H         1 04C         0.0234
     78 H36        62.6756 -137.9038   41.3953 H         1 04C         0.0560
     79 H37        61.4421 -137.3516   42.5786 H         1 04C         0.0560
     80 H38        61.4725 -139.6774   42.3322 H         1 04C         0.2094
     81 H39        63.3079 -133.4841   44.1979 H         1 04C         0.0449
     82 H40        61.9369 -133.1137   43.0980 H         1 04C         0.0449
     83 H41        64.7278 -133.5928   40.9951 H         1 04C         0.0557
     84 H42        65.9913 -131.6952   40.0457 H         1 04C         0.0599
     85 H43        65.7547 -129.4263   40.9983 H         1 04C         0.0559
     86 H44        64.2428 -129.0508   42.9284 H         1 04C         0.0599
     87 H45        62.9899 -130.9473   43.8875 H         1 04C         0.0557
@<TRIPOS>BOND
     1    1    2 2  
     2    3    1 1  
     3    1   10 am 
     4    4    3 1  
     5    6    4 1  
     6    4    7 1  
     7    8    5 1  
     8    5    9 1  
     9    6    8 1  
    10    7    9 1  
    11   10   11 1  
    12   11   12 1  
    13   11   14 1  
    14   12   13 2  
    15   12   15 am 
    16   15   16 1  
    17   16   17 1  
    18   16   26 1  
    19   17   18 1  
    20   18   19 ar 
    21   18   25 ar 
    22   19   20 ar 
    23   20   21 ar 
    24   21   22 1  
    25   21   24 ar 
    26   22   23 1  
    27   24   25 ar 
    28   26   27 2  
    29   26   28 am 
    30   28   29 1  
    31   29   30 1  
    32   29   36 1  
    33   30   31 1  
    34   30   32 1  
    35   32   33 1  
    36   32   34 1  
    37   34   35 1  
    38   36   37 1  
    39   37   38 ar 
    40   37   42 ar 
    41   38   39 ar 
    42   39   40 ar 
    43   40   41 ar 
    44   41   42 ar 
    45    3   43 1  
    46    3   44 1  
    47    4   45 1  
    48    6   46 1  
    49    6   47 1  
    50    7   48 1  
    51    7   49 1  
    52    8   50 1  
    53    8   51 1  
    54    9   52 1  
    55    9   53 1  
    56   10   54 1  
    57   11   55 1  
    58   14   56 1  
    59   14   57 1  
    60   14   58 1  
    61   15   59 1  
    62   16   60 1  
    63   17   61 1  
    64   17   62 1  
    65   19   63 1  
    66   20   64 1  
    67   23   65 1  
    68   23   66 1  
    69   23   67 1  
    70   24   68 1  
    71   25   69 1  
    72   28   70 1  
    73   29   71 1  
    74   30   72 1  
    75   31   73 1  
    76   32   74 1  
    77   33   75 1  
    78   33   76 1  
    79   33   77 1  
    80   34   78 1  
    81   34   79 1  
    82   35   80 1  
    83   36   81 1  
    84   36   82 1  
    85   38   83 1  
    86   39   84 1  
    87   40   85 1  
    88   41   86 1  
    89   42   87 1  
@<TRIPOS>SUBSTRUCTURE
     1 04C         1

