### 
### Created by X-TOOL on Mon Sep 10 21:13:24 2018
### 

@<TRIPOS>MOLECULE
4qz5_ligand
   87    89     1     0     0
SMALL
GAST_HUCK


@<TRIPOS>ATOM
      1 C29        60.3510 -134.5050   34.1770 C.2       1 04C         0.2238
      2 O37        60.3580 -135.7250   34.3520 O.2       1 04C        -0.3910
      3 C30        59.3790 -133.8260   33.2010 C.3       1 04C         0.0582
      4 N31        58.5440 -134.8510   32.5740 N.4       1 04C         0.2552
      5 O34        56.0130 -135.3630   31.5240 O.3       1 04C        -0.3693
      6 C36        58.2220 -134.3930   31.1900 C.3       1 04C        -0.0060
      7 C32        57.3360 -135.0770   33.4080 C.3       1 04C        -0.0060
      8 C35        57.1350 -135.2460   30.6050 C.3       1 04C         0.0878
      9 C33        56.4310 -136.0420   32.7360 C.3       1 04C         0.0878
     10 N28        61.1810 -133.6410   34.7820 N.am      1 04C        -0.2615
     11 C27        62.1900 -134.0770   35.7610 C.3       1 04C         0.1283
     12 C26        61.5510 -134.1880   37.1540 C.2       1 04C         0.2037
     13 O39        60.5740 -133.5030   37.4750 O.2       1 04C        -0.3944
     14 C38        63.3380 -133.0630   35.8180 C.3       1 04C        -0.0244
     15 N25        62.1390 -135.0970   37.9490 N.am      1 04C        -0.2621
     16 C24        61.7000 -135.3560   39.3290 C.3       1 04C         0.1389
     17 C40        61.0960 -136.7400   39.4490 C.3       1 04C         0.0163
     18 C41        59.6930 -136.6500   39.3770 C.ar      1 04C        -0.0493
     19 C48        59.0690 -136.1460   38.2330 C.ar      1 04C        -0.0685
     20 C47        57.6820 -136.0700   38.1500 C.ar      1 04C        -0.0396
     21 C44        56.8950 -136.5100   39.2110 C.ar      1 04C         0.0837
     22 O45        55.5330 -136.4380   39.1190 O.3       1 04C        -0.3257
     23 C46        55.0010 -135.3380   39.8680 C.3       1 04C         0.0579
     24 C43        57.5080 -137.0260   40.3570 C.ar      1 04C        -0.0396
     25 C42        58.8980 -137.1000   40.4400 C.ar      1 04C        -0.0685
     26 C23        62.9600 -135.3170   40.1920 C.2       1 04C         0.2040
     27 O49        64.0730 -135.5050   39.6900 O.2       1 04C        -0.3943
     28 N22        62.7380 -135.1000   41.5000 N.am      1 04C        -0.2774
     29 C8         63.8500 -135.0230   42.4600 C.3       1 04C         0.0777
     30 C9         63.7430 -136.1230   43.5500 C.3       1 04C         0.0845
     31 O21        62.3880 -136.1210   44.0700 O.3       1 04C        -0.3890
     32 C10        64.1520 -137.6260   43.1170 C.3       1 04C         0.0077
     33 C11        65.2950 -137.6280   42.0260 C.3       1 04C        -0.0579
     34 C12        62.9270 -138.2710   42.4510 C.3       1 04C         0.0492
     35 O13        63.2840 -139.6070   42.0360 O.3       1 04C        -0.3947
     36 C7         63.8170 -133.6600   43.1540 C.3       1 04C         0.0064
     37 C6         64.4950 -132.6480   42.4250 C.ar      1 04C        -0.0408
     38 C5         65.3550 -132.8780   41.3350 C.ar      1 04C        -0.0603
     39 C4         65.9740 -131.8090   40.6830 C.ar      1 04C        -0.0686
     40 C3         65.7570 -130.4970   41.1050 C.ar      1 04C        -0.0687
     41 C2         64.9090 -130.2530   42.1860 C.ar      1 04C        -0.0686
     42 C1         64.2880 -131.3230   42.8350 C.ar      1 04C        -0.0603
     43 H1         59.9474 -133.2888   32.4275 H         1 04C         0.1063
     44 H2         58.7425 -133.1152   33.7483 H         1 04C         0.1063
     45 H3         59.0586 -135.7159   32.5173 H         1 04C         0.2054
     46 H4         59.1222 -134.4698   30.5626 H         1 04C         0.0837
     47 H5         57.8856 -133.3462   31.2221 H         1 04C         0.0837
     48 H6         56.8088 -134.1225   33.5524 H         1 04C         0.0837
     49 H7         57.6381 -135.4806   34.3857 H         1 04C         0.0837
     50 H8         56.7857 -134.7902   29.6668 H         1 04C         0.0613
     51 H9         57.5367 -136.2489   30.3981 H         1 04C         0.0613
     52 H10        56.9647 -136.9733   32.4958 H         1 04C         0.0613
     53 H11        55.5637 -136.2702   33.3729 H         1 04C         0.0613
     54 H12        61.1116 -132.6684   34.5602 H         1 04C         0.1884
     55 H13        62.5850 -135.0587   35.4608 H         1 04C         0.0797
     56 H14        64.0863 -133.3972   36.5517 H         1 04C         0.0277
     57 H15        62.9447 -132.0803   36.1172 H         1 04C         0.0277
     58 H16        63.8069 -132.9838   34.8261 H         1 04C         0.0277
     59 H17        62.9097 -135.6212   37.5866 H         1 04C         0.1885
     60 H18        60.9743 -134.5953   39.6525 H         1 04C         0.0821
     61 H19        61.3855 -137.1836   40.4130 H         1 04C         0.0453
     62 H20        61.4649 -137.3730   38.6285 H         1 04C         0.0453
     63 H21        59.6737 -135.8095   37.3986 H         1 04C         0.0530
     64 H22        57.2139 -135.6680   37.2587 H         1 04C         0.0525
     65 H23        53.9060 -135.3198   39.7650 H         1 04C         0.0575
     66 H24        55.4210 -134.3963   39.4849 H         1 04C         0.0575
     67 H25        55.2676 -135.4537   40.9289 H         1 04C         0.0575
     68 H26        56.8994 -137.3703   41.1853 H         1 04C         0.0525
     69 H27        59.3652 -137.5069   41.3295 H         1 04C         0.0530
     70 H28        61.7994 -134.9888   41.8265 H         1 04C         0.1857
     71 H29        64.8002 -135.1412   41.9185 H         1 04C         0.0604
     72 H30        64.4256 -135.8333   44.3625 H         1 04C         0.0621
     73 H31        62.3059 -136.7900   44.7395 H         1 04C         0.2099
     74 H32        64.4684 -138.1983   44.0015 H         1 04C         0.0346
     75 H33        65.5446 -138.6653   41.7584 H         1 04C         0.0234
     76 H34        66.1881 -137.1285   42.4296 H         1 04C         0.0234
     77 H35        64.9481 -137.0917   41.1305 H         1 04C         0.0234
     78 H36        62.6253 -137.6782   41.5749 H         1 04C         0.0560
     79 H37        62.0943 -138.3150   43.1684 H         1 04C         0.0560
     80 H38        64.0049 -139.5636   41.4187 H         1 04C         0.2094
     81 H39        64.2919 -133.7581   44.1413 H         1 04C         0.0449
     82 H40        62.7672 -133.3567   43.2805 H         1 04C         0.0449
     83 H41        65.5384 -133.8922   40.9990 H         1 04C         0.0557
     84 H42        66.6293 -132.0006   39.8410 H         1 04C         0.0599
     85 H43        66.2439 -129.6727   40.5965 H         1 04C         0.0559
     86 H44        64.7328 -129.2372   42.5209 H         1 04C         0.0599
     87 H45        63.6314 -131.1246   43.6744 H         1 04C         0.0557
@<TRIPOS>BOND
     1    1    2 2  
     2    3    1 1  
     3    1   10 am 
     4    4    3 1  
     5    6    4 1  
     6    4    7 1  
     7    8    5 1  
     8    5    9 1  
     9    6    8 1  
    10    7    9 1  
    11   10   11 1  
    12   11   12 1  
    13   11   14 1  
    14   12   13 2  
    15   12   15 am 
    16   15   16 1  
    17   16   17 1  
    18   16   26 1  
    19   17   18 1  
    20   18   19 ar 
    21   18   25 ar 
    22   19   20 ar 
    23   20   21 ar 
    24   21   22 1  
    25   21   24 ar 
    26   22   23 1  
    27   24   25 ar 
    28   26   27 2  
    29   26   28 am 
    30   28   29 1  
    31   29   30 1  
    32   29   36 1  
    33   30   31 1  
    34   30   32 1  
    35   32   33 1  
    36   32   34 1  
    37   34   35 1  
    38   36   37 1  
    39   37   38 ar 
    40   37   42 ar 
    41   38   39 ar 
    42   39   40 ar 
    43   40   41 ar 
    44   41   42 ar 
    45    3   43 1  
    46    3   44 1  
    47    4   45 1  
    48    6   46 1  
    49    6   47 1  
    50    7   48 1  
    51    7   49 1  
    52    8   50 1  
    53    8   51 1  
    54    9   52 1  
    55    9   53 1  
    56   10   54 1  
    57   11   55 1  
    58   14   56 1  
    59   14   57 1  
    60   14   58 1  
    61   15   59 1  
    62   16   60 1  
    63   17   61 1  
    64   17   62 1  
    65   19   63 1  
    66   20   64 1  
    67   23   65 1  
    68   23   66 1  
    69   23   67 1  
    70   24   68 1  
    71   25   69 1  
    72   28   70 1  
    73   29   71 1  
    74   30   72 1  
    75   31   73 1  
    76   32   74 1  
    77   33   75 1  
    78   33   76 1  
    79   33   77 1  
    80   34   78 1  
    81   34   79 1  
    82   35   80 1  
    83   36   81 1  
    84   36   82 1  
    85   38   83 1  
    86   39   84 1  
    87   40   85 1  
    88   41   86 1  
    89   42   87 1  
@<TRIPOS>SUBSTRUCTURE
     1 04C         1

