### 
### Created by X-TOOL on Mon Sep 10 21:13:23 2018
### 

@<TRIPOS>MOLECULE
4qz6_ligand
   87    89     1     0     0
SMALL
GAST_HUCK


@<TRIPOS>ATOM
      1 C29        59.2050 -134.4830   34.5070 C.2       1 04C         0.2238
      2 O37        59.1640 -135.7070   34.6300 O.2       1 04C        -0.3910
      3 C30        58.0900 -133.7270   33.7680 C.3       1 04C         0.0582
      4 N31        56.8270 -134.0850   34.4130 N.4       1 04C         0.2552
      5 O34        54.3460 -133.0810   35.1910 O.3       1 04C        -0.3693
      6 C36        55.7490 -133.8880   33.4130 C.3       1 04C        -0.0060
      7 C32        56.6350 -133.2460   35.6180 C.3       1 04C        -0.0060
      8 C35        54.4190 -133.9830   34.0730 C.3       1 04C         0.0878
      9 C33        55.2840 -133.4150   36.2320 C.3       1 04C         0.0878
     10 N28        60.1950 -133.7010   34.9670 N.am      1 04C        -0.2615
     11 C27        61.3390 -134.2280   35.7160 C.3       1 04C         0.1283
     12 C26        60.9320 -134.3190   37.1830 C.2       1 04C         0.2037
     13 O39        60.2320 -133.4410   37.6850 O.2       1 04C        -0.3944
     14 C38        62.5190 -133.2650   35.5670 C.3       1 04C        -0.0244
     15 N25        61.3740 -135.4010   37.8410 N.am      1 04C        -0.2621
     16 C24        61.0460 -135.6130   39.2590 C.3       1 04C         0.1389
     17 C40        60.4550 -136.9780   39.4740 C.3       1 04C         0.0163
     18 C41        59.1200 -136.9000   39.0850 C.ar      1 04C        -0.0493
     19 C48        58.7520 -137.1620   37.7680 C.ar      1 04C        -0.0685
     20 C47        57.4180 -137.0890   37.3840 C.ar      1 04C        -0.0396
     21 C44        56.4330 -136.7590   38.3080 C.ar      1 04C         0.0837
     22 O45        55.1450 -136.7070   37.8450 O.3       1 04C        -0.3257
     23 C46        54.0510 -136.5160   38.7770 C.3       1 04C         0.0579
     24 C43        56.8090 -136.4950   39.6320 C.ar      1 04C        -0.0396
     25 C42        58.1420 -136.5690   40.0170 C.ar      1 04C        -0.0685
     26 C23        62.3180 -135.5210   40.0950 C.2       1 04C         0.2040
     27 O49        63.4310 -135.6030   39.5770 O.2       1 04C        -0.3943
     28 N22        62.0820 -135.3770   41.4040 N.am      1 04C        -0.2774
     29 C8         63.1410 -135.2340   42.3980 C.3       1 04C         0.0777
     30 C9         62.9970 -136.2860   43.5180 C.3       1 04C         0.0845
     31 O21        61.6570 -136.2450   44.0310 O.3       1 04C        -0.3890
     32 C10        63.3750 -137.8060   43.1550 C.3       1 04C         0.0077
     33 C11        64.4260 -137.8710   41.9890 C.3       1 04C        -0.0579
     34 C12        62.0780 -138.4830   42.6890 C.3       1 04C         0.0492
     35 O13        62.4400 -139.6010   41.8630 O.3       1 04C        -0.3947
     36 C7         62.9650 -133.8710   43.0510 C.3       1 04C         0.0064
     37 C6         63.7250 -132.8360   42.4580 C.ar      1 04C        -0.0408
     38 C5         64.4510 -132.9420   41.2630 C.ar      1 04C        -0.0603
     39 C4         65.1500 -131.8440   40.7650 C.ar      1 04C        -0.0686
     40 C3         65.1310 -130.6270   41.4420 C.ar      1 04C        -0.0687
     41 C2         64.4080 -130.5050   42.6240 C.ar      1 04C        -0.0686
     42 C1         63.7120 -131.6040   43.1190 C.ar      1 04C        -0.0603
     43 H1         58.0704 -134.0242   32.7091 H         1 04C         0.1063
     44 H2         58.2569 -132.6422   33.8414 H         1 04C         0.1063
     45 H3         56.8483 -135.0535   34.6914 H         1 04C         0.2054
     46 H4         55.8264 -134.6632   32.6364 H         1 04C         0.0837
     47 H5         55.8567 -132.8951   32.9520 H         1 04C         0.0837
     48 H6         56.7630 -132.1907   35.3355 H         1 04C         0.0837
     49 H7         57.3963 -133.5212   36.3628 H         1 04C         0.0837
     50 H8         53.6350 -133.7233   33.3465 H         1 04C         0.0613
     51 H9         54.2637 -135.0126   34.4277 H         1 04C         0.0613
     52 H10        55.1386 -134.4542   36.5621 H         1 04C         0.0613
     53 H11        55.1639 -132.7374   37.0902 H         1 04C         0.0613
     54 H12        60.1497 -132.7176   34.7910 H         1 04C         0.1884
     55 H13        61.6174 -135.2226   35.3375 H         1 04C         0.0797
     56 H14        63.3824 -133.6537   36.1268 H         1 04C         0.0277
     57 H15        62.2391 -132.2779   35.9637 H         1 04C         0.0277
     58 H16        62.7837 -133.1712   34.5035 H         1 04C         0.0277
     59 H17        61.9355 -136.0742   37.3598 H         1 04C         0.1885
     60 H18        60.3286 -134.8450   39.5839 H         1 04C         0.0821
     61 H19        60.5251 -137.2590   40.5352 H         1 04C         0.0453
     62 H20        60.9857 -137.7220   38.8618 H         1 04C         0.0453
     63 H21        59.5096 -137.4242   37.0384 H         1 04C         0.0530
     64 H22        57.1433 -137.2912   36.3550 H         1 04C         0.0525
     65 H23        53.0988 -136.5006   38.2265 H         1 04C         0.0575
     66 H24        54.1834 -135.5614   39.3072 H         1 04C         0.0575
     67 H25        54.0407 -137.3411   39.5044 H         1 04C         0.0575
     68 H26        56.0529 -136.2306   40.3624 H         1 04C         0.0525
     69 H27        58.4202 -136.3685   41.0453 H         1 04C         0.0530
     70 H28        61.1323 -135.3668   41.7170 H         1 04C         0.1857
     71 H29        64.1272 -135.3191   41.9182 H         1 04C         0.0604
     72 H30        63.6805 -135.9791   44.3233 H         1 04C         0.0621
     73 H31        61.5634 -136.8912   44.7211 H         1 04C         0.2099
     74 H32        63.7779 -138.3153   44.0428 H         1 04C         0.0346
     75 H33        64.6620 -138.9221   41.7663 H         1 04C         0.0234
     76 H34        65.3435 -137.3457   42.2926 H         1 04C         0.0234
     77 H35        64.0084 -137.3909   41.0917 H         1 04C         0.0234
     78 H36        61.4710 -137.7711   42.1105 H         1 04C         0.0560
     79 H37        61.5037 -138.8315   43.5600 H         1 04C         0.0560
     80 H38        62.9389 -139.2927   41.1156 H         1 04C         0.2094
     81 H39        63.2624 -133.9544   44.1067 H         1 04C         0.0449
     82 H40        61.9019 -133.5952   42.9902 H         1 04C         0.0449
     83 H41        64.4686 -133.8824   40.7241 H         1 04C         0.0557
     84 H42        65.7130 -131.9379   39.8434 H         1 04C         0.0599
     85 H43        65.6779 -129.7776   41.0490 H         1 04C         0.0559
     86 H44        64.3868 -129.5607   43.1559 H         1 04C         0.0599
     87 H45        63.1467 -131.5024   44.0384 H         1 04C         0.0557
@<TRIPOS>BOND
     1    1    2 2  
     2    3    1 1  
     3    1   10 am 
     4    4    3 1  
     5    6    4 1  
     6    4    7 1  
     7    8    5 1  
     8    5    9 1  
     9    6    8 1  
    10    7    9 1  
    11   10   11 1  
    12   11   12 1  
    13   11   14 1  
    14   12   13 2  
    15   12   15 am 
    16   15   16 1  
    17   16   17 1  
    18   16   26 1  
    19   17   18 1  
    20   18   19 ar 
    21   18   25 ar 
    22   19   20 ar 
    23   20   21 ar 
    24   21   22 1  
    25   21   24 ar 
    26   22   23 1  
    27   24   25 ar 
    28   26   27 2  
    29   26   28 am 
    30   28   29 1  
    31   29   30 1  
    32   29   36 1  
    33   30   31 1  
    34   30   32 1  
    35   32   33 1  
    36   32   34 1  
    37   34   35 1  
    38   36   37 1  
    39   37   38 ar 
    40   37   42 ar 
    41   38   39 ar 
    42   39   40 ar 
    43   40   41 ar 
    44   41   42 ar 
    45    3   43 1  
    46    3   44 1  
    47    4   45 1  
    48    6   46 1  
    49    6   47 1  
    50    7   48 1  
    51    7   49 1  
    52    8   50 1  
    53    8   51 1  
    54    9   52 1  
    55    9   53 1  
    56   10   54 1  
    57   11   55 1  
    58   14   56 1  
    59   14   57 1  
    60   14   58 1  
    61   15   59 1  
    62   16   60 1  
    63   17   61 1  
    64   17   62 1  
    65   19   63 1  
    66   20   64 1  
    67   23   65 1  
    68   23   66 1  
    69   23   67 1  
    70   24   68 1  
    71   25   69 1  
    72   28   70 1  
    73   29   71 1  
    74   30   72 1  
    75   31   73 1  
    76   32   74 1  
    77   33   75 1  
    78   33   76 1  
    79   33   77 1  
    80   34   78 1  
    81   34   79 1  
    82   35   80 1  
    83   36   81 1  
    84   36   82 1  
    85   38   83 1  
    86   39   84 1  
    87   40   85 1  
    88   41   86 1  
    89   42   87 1  
@<TRIPOS>SUBSTRUCTURE
     1 04C         1

