### 
### Created by X-TOOL on Mon Sep 10 21:13:23 2018
### 

@<TRIPOS>MOLECULE
4qz7_ligand
   87    89     1     0     0
SMALL
GAST_HUCK


@<TRIPOS>ATOM
      1 C29        59.5390 -134.7650   34.9870 C.2       1 04C         0.2238
      2 O37        59.7310 -135.9790   34.9210 O.2       1 04C        -0.3910
      3 C30        58.3650 -134.1180   34.2300 C.3       1 04C         0.0582
      4 N31        57.1250 -134.5570   34.8780 N.4       1 04C         0.2552
      5 O34        54.5850 -133.7720   35.7260 O.3       1 04C        -0.3693
      6 C36        56.8900 -133.7540   36.1030 C.3       1 04C        -0.0060
      7 C32        56.0190 -134.3920   33.8960 C.3       1 04C        -0.0060
      8 C35        55.5720 -134.0510   36.7470 C.3       1 04C         0.0878
      9 C33        54.7170 -134.6310   34.5740 C.3       1 04C         0.0878
     10 N28        60.3230 -133.9120   35.6730 N.am      1 04C        -0.2615
     11 C27        61.4770 -134.3760   36.4570 C.3       1 04C         0.1283
     12 C26        61.0450 -134.4750   37.9200 C.2       1 04C         0.2037
     13 O39        60.3160 -133.6180   38.4210 O.2       1 04C        -0.3944
     14 C38        62.6430 -133.3930   36.3200 C.3       1 04C        -0.0244
     15 N25        61.5060 -135.5560   38.5660 N.am      1 04C        -0.2621
     16 C24        61.1860 -135.8180   39.9730 C.3       1 04C         0.1389
     17 C40        60.6140 -137.2080   40.1150 C.3       1 04C         0.0163
     18 C41        59.2430 -137.1070   39.8200 C.ar      1 04C        -0.0493
     19 C48        58.2870 -137.1410   40.8400 C.ar      1 04C        -0.0685
     20 C47        56.9290 -137.0450   40.5370 C.ar      1 04C        -0.0396
     21 C44        56.5120 -136.9170   39.2130 C.ar      1 04C         0.0837
     22 O45        55.1810 -136.8230   38.9210 O.3       1 04C        -0.3257
     23 C46        54.7160 -137.8570   38.0330 C.3       1 04C         0.0579
     24 C43        57.4640 -136.8800   38.1950 C.ar      1 04C        -0.0396
     25 C42        58.8180 -136.9800   38.4970 C.ar      1 04C        -0.0685
     26 C23        62.4830 -135.7010   40.7740 C.2       1 04C         0.2040
     27 O49        63.5710 -135.6730   40.1960 O.2       1 04C        -0.3943
     28 N22        62.3190 -135.6270   42.1060 N.am      1 04C        -0.2774
     29 C8         63.4560 -135.4760   43.0240 C.3       1 04C         0.0777
     30 C9         63.4210 -136.5230   44.1660 C.3       1 04C         0.0845
     31 O21        62.1110 -136.5080   44.7640 O.3       1 04C        -0.3890
     32 C10        63.7980 -138.0250   43.7780 C.3       1 04C         0.0077
     33 C11        64.8340 -138.0770   42.5930 C.3       1 04C        -0.0579
     34 C12        62.4990 -138.7020   43.3200 C.3       1 04C         0.0492
     35 O13        62.8660 -139.8700   42.5730 O.3       1 04C        -0.3947
     36 C7         63.3830 -134.0920   43.6670 C.3       1 04C         0.0064
     37 C6         64.0910 -133.0870   42.9570 C.ar      1 04C        -0.0408
     38 C5         63.9180 -131.7710   43.4010 C.ar      1 04C        -0.0603
     39 C4         64.5620 -130.7020   42.7800 C.ar      1 04C        -0.0686
     40 C3         65.3990 -130.9370   41.6930 C.ar      1 04C        -0.0687
     41 C2         65.5860 -132.2390   41.2360 C.ar      1 04C        -0.0686
     42 C1         64.9410 -133.3060   41.8600 C.ar      1 04C        -0.0603
     43 H1         58.3733 -134.4405   33.1784 H         1 04C         0.1063
     44 H2         58.4459 -133.0220   34.2782 H         1 04C         0.1063
     45 H3         57.2012 -135.5290   35.1340 H         1 04C         0.2054
     46 H4         56.9178 -132.6875   35.8349 H         1 04C         0.0837
     47 H5         57.6909 -133.9716   36.8250 H         1 04C         0.0837
     48 H6         56.1445 -135.1154   33.0769 H         1 04C         0.0837
     49 H7         56.0388 -133.3702   33.4891 H         1 04C         0.0837
     50 H8         55.5215 -135.1056   37.0557 H         1 04C         0.0613
     51 H9         55.4154 -133.4045   37.6231 H         1 04C         0.0613
     52 H10        53.8980 -134.4219   33.8701 H         1 04C         0.0613
     53 H11        54.6639 -135.6812   34.8969 H         1 04C         0.0613
     54 H12        60.1143 -132.9343   35.6485 H         1 04C         0.1884
     55 H13        61.7941 -135.3658   36.0968 H         1 04C         0.0797
     56 H14        63.4977 -133.7533   36.9113 H         1 04C         0.0277
     57 H15        62.3337 -132.4036   36.6880 H         1 04C         0.0277
     58 H16        62.9353 -133.3160   35.2624 H         1 04C         0.0277
     59 H17        62.0863 -136.2040   38.0727 H         1 04C         0.1885
     60 H18        60.4543 -135.0810   40.3354 H         1 04C         0.0821
     61 H19        60.7557 -137.5742   41.1425 H         1 04C         0.0453
     62 H20        61.1049 -137.8949   39.4099 H         1 04C         0.0453
     63 H21        58.6032 -137.2425   41.8719 H         1 04C         0.0530
     64 H22        56.1949 -137.0700   41.3342 H         1 04C         0.0525
     65 H23        53.6414 -137.7203   37.8420 H         1 04C         0.0575
     66 H24        54.8839 -138.8407   38.4958 H         1 04C         0.0575
     67 H25        55.2674 -137.7998   37.0829 H         1 04C         0.0575
     68 H26        57.1475 -136.7728   37.1638 H         1 04C         0.0525
     69 H27        59.5497 -136.9591   37.6974 H         1 04C         0.0530
     70 H28        61.3944 -135.6763   42.4838 H         1 04C         0.1857
     71 H29        64.3940 -135.5816   42.4592 H         1 04C         0.0604
     72 H30        64.1517 -136.1967   44.9207 H         1 04C         0.0621
     73 H31        61.9332 -135.6424   45.1128 H         1 04C         0.2099
     74 H32        64.2150 -138.5439   44.6537 H         1 04C         0.0346
     75 H33        65.0676 -139.1255   42.3560 H         1 04C         0.0234
     76 H34        65.7554 -137.5538   42.8883 H         1 04C         0.0234
     77 H35        64.4026 -137.5882   41.7070 H         1 04C         0.0234
     78 H36        61.9207 -138.0153   42.6844 H         1 04C         0.0560
     79 H37        61.8957 -138.9886   44.1940 H         1 04C         0.0560
     80 H38        62.0806 -140.3132   42.2743 H         1 04C         0.2094
     81 H39        63.8027 -134.1594   44.6815 H         1 04C         0.0449
     82 H40        62.3259 -133.7937   43.7266 H         1 04C         0.0449
     83 H41        63.2683 -131.5786   44.2472 H         1 04C         0.0557
     84 H42        64.4115 -129.6915   43.1423 H         1 04C         0.0599
     85 H43        65.9027 -130.1106   41.2047 H         1 04C         0.0559
     86 H44        66.2373 -132.4242   40.3895 H         1 04C         0.0599
     87 H45        65.0969 -134.3147   41.4951 H         1 04C         0.0557
@<TRIPOS>BOND
     1    1    2 2  
     2    3    1 1  
     3    1   10 am 
     4    4    3 1  
     5    6    4 1  
     6    4    7 1  
     7    8    5 1  
     8    5    9 1  
     9    6    8 1  
    10    7    9 1  
    11   10   11 1  
    12   11   12 1  
    13   11   14 1  
    14   12   13 2  
    15   12   15 am 
    16   15   16 1  
    17   16   17 1  
    18   16   26 1  
    19   17   18 1  
    20   18   19 ar 
    21   18   25 ar 
    22   19   20 ar 
    23   20   21 ar 
    24   21   22 1  
    25   21   24 ar 
    26   22   23 1  
    27   24   25 ar 
    28   26   27 2  
    29   26   28 am 
    30   28   29 1  
    31   29   30 1  
    32   29   36 1  
    33   30   31 1  
    34   30   32 1  
    35   32   33 1  
    36   32   34 1  
    37   34   35 1  
    38   36   37 1  
    39   37   38 ar 
    40   37   42 ar 
    41   38   39 ar 
    42   39   40 ar 
    43   40   41 ar 
    44   41   42 ar 
    45    3   43 1  
    46    3   44 1  
    47    4   45 1  
    48    6   46 1  
    49    6   47 1  
    50    7   48 1  
    51    7   49 1  
    52    8   50 1  
    53    8   51 1  
    54    9   52 1  
    55    9   53 1  
    56   10   54 1  
    57   11   55 1  
    58   14   56 1  
    59   14   57 1  
    60   14   58 1  
    61   15   59 1  
    62   16   60 1  
    63   17   61 1  
    64   17   62 1  
    65   19   63 1  
    66   20   64 1  
    67   23   65 1  
    68   23   66 1  
    69   23   67 1  
    70   24   68 1  
    71   25   69 1  
    72   28   70 1  
    73   29   71 1  
    74   30   72 1  
    75   31   73 1  
    76   32   74 1  
    77   33   75 1  
    78   33   76 1  
    79   33   77 1  
    80   34   78 1  
    81   34   79 1  
    82   35   80 1  
    83   36   81 1  
    84   36   82 1  
    85   38   83 1  
    86   39   84 1  
    87   40   85 1  
    88   41   86 1  
    89   42   87 1  
@<TRIPOS>SUBSTRUCTURE
     1 04C         1

