### 
### Created by X-TOOL on Mon Sep 10 21:13:16 2018
### 

@<TRIPOS>MOLECULE
4qzs_ligand
   56    59     1     0     0
SMALL
GAST_HUCK


@<TRIPOS>ATOM
      1 CAA        11.5710   -3.3840    1.6370 C.3       1 JQ1         0.0171
      2 CAB         6.8330   -7.2430    1.3040 C.3       1 JQ1        -0.0308
      3 CAC         7.2430   -7.4230   -1.7400 C.3       1 JQ1        -0.0507
      4 CAD        10.3650  -10.8150   -3.5470 C.3       1 JQ1        -0.0319
      5 CAE        12.4180  -11.0330   -5.0480 C.3       1 JQ1        -0.0319
      6 CAF        10.7280   -9.1720   -5.4670 C.3       1 JQ1        -0.0319
      7 OAG        13.5770   -8.2360   -4.8940 O.2       1 JQ1        -0.3702
      8 CLAH        6.4180   -3.7560   -6.7460 Cl        1 JQ1        -0.0647
      9 CAI         7.1220   -4.2780   -4.1930 C.ar      1 JQ1        -0.0406
     10 CAJ         8.6120   -5.1170   -5.9260 C.ar      1 JQ1        -0.0406
     11 CAK         7.9820   -4.8430   -3.2280 C.ar      1 JQ1        -0.0437
     12 CAL         9.4590   -5.6880   -4.9540 C.ar      1 JQ1        -0.0437
     13 CAM        13.4810   -7.3400   -2.6990 C.3       1 JQ1         0.0747
     14 NAN        11.2620   -6.2630   -2.8600 N.2       1 JQ1        -0.3432
     15 NAO        13.4520   -4.1880    0.2310 N.2       1 JQ1        -0.2795
     16 NAP        13.6630   -5.0880   -0.7180 N.2       1 JQ1        -0.2784
     17 OAQ        12.0630   -9.1140   -3.4770 O.3       1 JQ1        -0.2709
     18 SAR         9.3940   -6.0670    1.3880 S.3       1 JQ1         0.0060
     19 CAS        13.0730   -8.2670   -3.7490 C.2       1 JQ1         0.2376
     20 CAT        10.0100   -6.1370   -2.5670 C.2       1 JQ1         0.0263
     21 CAU         7.4470   -4.4080   -5.5560 C.ar      1 JQ1         0.0470
     22 CAV        12.1570   -4.2770    0.6050 C.2       1 JQ1         0.1468
     23 CAW         9.1640   -5.5660   -3.5700 C.ar      1 JQ1         0.0078
     24 CAX         8.0180   -6.7670    0.5550 C.2       1 JQ1         0.0043
     25 CAY         8.2730   -6.8240   -0.8260 C.2       1 JQ1        -0.0580
     26 CAZ        12.5340   -5.7780   -0.9140 C.2       1 JQ1         0.1631
     27 CBA         9.5420   -6.2600   -1.2130 C.2       1 JQ1         0.0320
     28 CBB        10.2990   -5.7900   -0.1040 C.2       1 JQ1         0.1844
     29 CBC        12.2250   -6.7940   -1.9550 C.3       1 JQ1         0.1007
     30 NBD        11.5740   -5.2650   -0.1180 N.pl3     1 JQ1        -0.1470
     31 CBE        11.4230  -10.0330   -4.3850 C.3       1 JQ1         0.0899
     32 H          12.3458   -2.6992    2.0120 H         1 JQ1         0.0469
     33 H          11.1834   -3.9901    2.4691 H         1 JQ1         0.0469
     34 H          10.7498   -2.8013    1.1942 H         1 JQ1         0.0469
     35 H           6.0898   -7.6432    0.5986 H         1 JQ1         0.0365
     36 H           6.3926   -6.4052    1.8645 H         1 JQ1         0.0365
     37 H           7.1361   -8.0343    2.0054 H         1 JQ1         0.0365
     38 H           6.3827   -7.7674   -1.1472 H         1 JQ1         0.0315
     39 H           7.6821   -8.2758   -2.2785 H         1 JQ1         0.0315
     40 H           6.9096   -6.6647   -2.4637 H         1 JQ1         0.0315
     41 H           9.8434  -11.5349   -4.1948 H         1 JQ1         0.0261
     42 H           9.6365  -10.1076   -3.1241 H         1 JQ1         0.0261
     43 H          10.8689  -11.3540   -2.7312 H         1 JQ1         0.0261
     44 H          13.1608  -10.4749   -5.6370 H         1 JQ1         0.0261
     45 H          11.8650  -11.7168   -5.7087 H         1 JQ1         0.0261
     46 H          12.9305  -11.6129   -4.2663 H         1 JQ1         0.0261
     47 H          10.0296   -8.4717   -4.9855 H         1 JQ1         0.0261
     48 H          10.1742   -9.8262   -6.1564 H         1 JQ1         0.0261
     49 H          11.4862   -8.6060   -6.0281 H         1 JQ1         0.0261
     50 H           6.2244   -3.7517   -3.8892 H         1 JQ1         0.0639
     51 H           8.8590   -5.2239   -6.9761 H         1 JQ1         0.0639
     52 H           7.7339   -4.7226   -2.1797 H         1 JQ1         0.0681
     53 H          10.3461   -6.2267   -5.2669 H         1 JQ1         0.0681
     54 H          14.0325   -6.5006   -3.1477 H         1 JQ1         0.0556
     55 H          14.1303   -7.8639   -1.9821 H         1 JQ1         0.0556
     56 H          11.7633   -7.6518   -1.4442 H         1 JQ1         0.0655
@<TRIPOS>BOND
     1   22    1 1  
     2   24    2 1  
     3   25    3 1  
     4   31    4 1  
     5   31    5 1  
     6   31    6 1  
     7   19    7 2  
     8   21    8 1  
     9   11    9 ar 
    10    9   21 ar 
    11   12   10 ar 
    12   10   21 ar 
    13   23   11 ar 
    14   23   12 ar 
    15   13   19 1  
    16   29   13 1  
    17   14   20 2  
    18   29   14 1  
    19   16   15 1  
    20   15   22 2  
    21   26   16 2  
    22   19   17 1  
    23   17   31 1  
    24   24   18 1  
    25   18   28 1  
    26   20   23 1  
    27   20   27 1  
    28   22   30 1  
    29   25   24 2  
    30   27   25 1  
    31   26   29 1  
    32   26   30 1  
    33   27   28 2  
    34   28   30 1  
    35    1   32 1  
    36    1   33 1  
    37    1   34 1  
    38    2   35 1  
    39    2   36 1  
    40    2   37 1  
    41    3   38 1  
    42    3   39 1  
    43    3   40 1  
    44    4   41 1  
    45    4   42 1  
    46    4   43 1  
    47    5   44 1  
    48    5   45 1  
    49    5   46 1  
    50    6   47 1  
    51    6   48 1  
    52    6   49 1  
    53    9   50 1  
    54   10   51 1  
    55   11   52 1  
    56   12   53 1  
    57   13   54 1  
    58   13   55 1  
    59   29   56 1  
@<TRIPOS>SUBSTRUCTURE
     1 JQ1         1

