### 
### Created by X-TOOL on Mon Sep 10 21:13:23 2018
### 

@<TRIPOS>MOLECULE
4qzw_ligand
   87    89     1     0     0
SMALL
GAST_HUCK


@<TRIPOS>ATOM
      1 C29        59.7090 -134.7930   34.3910 C.2       1 04C         0.2238
      2 O37        59.6730 -136.0070   34.5880 O.2       1 04C        -0.3910
      3 C30        58.6260 -134.1050   33.5520 C.3       1 04C         0.0582
      4 N31        57.3610 -134.4090   34.2170 N.4       1 04C         0.2552
      5 O34        54.8960 -133.4690   35.0860 O.3       1 04C        -0.3693
      6 C36        56.2590 -134.1960   33.2440 C.3       1 04C        -0.0060
      7 C32        57.1990 -133.5400   35.4040 C.3       1 04C        -0.0060
      8 C35        54.9530 -134.3370   33.9450 C.3       1 04C         0.0878
      9 C33        55.8950 -133.7920   36.0780 C.3       1 04C         0.0878
     10 N28        60.6470 -133.9710   34.8840 N.am      1 04C        -0.2615
     11 C27        61.7360 -134.4660   35.7300 C.3       1 04C         0.1283
     12 C26        61.2130 -134.5940   37.1580 C.2       1 04C         0.2037
     13 O39        60.3610 -133.8180   37.5910 O.2       1 04C        -0.3944
     14 C38        62.9080 -133.4770   35.7100 C.3       1 04C        -0.0244
     15 N25        61.7530 -135.5960   37.8610 N.am      1 04C        -0.2621
     16 C24        61.3910 -135.8290   39.2610 C.3       1 04C         0.1389
     17 C40        60.8120 -137.1970   39.4640 C.3       1 04C         0.0163
     18 C41        59.4580 -137.1380   39.1360 C.ar      1 04C        -0.0493
     19 C48        59.0480 -137.4090   37.8340 C.ar      1 04C        -0.0685
     20 C47        57.6980 -137.3660   37.5020 C.ar      1 04C        -0.0396
     21 C44        56.7360 -137.0540   38.4590 C.ar      1 04C         0.0837
     22 O45        55.4300 -137.0440   38.0380 O.3       1 04C        -0.3257
     23 C46        54.4010 -136.4550   38.8520 C.3       1 04C         0.0579
     24 C43        57.1510 -136.7900   39.7710 C.ar      1 04C        -0.0396
     25 C42        58.5020 -136.8330   40.1050 C.ar      1 04C        -0.0685
     26 C23        62.6700 -135.7500   40.0880 C.2       1 04C         0.2040
     27 O49        63.7830 -135.8030   39.5600 O.2       1 04C        -0.3943
     28 N22        62.4410 -135.6510   41.3980 N.am      1 04C        -0.2774
     29 C8         63.4940 -135.5330   42.3960 C.3       1 04C         0.0777
     30 C9         63.3020 -136.6120   43.4870 C.3       1 04C         0.0845
     31 O21        61.9230 -136.6050   43.9140 O.3       1 04C        -0.3890
     32 C10        63.7110 -138.1280   43.1320 C.3       1 04C         0.0077
     33 C11        64.7430 -138.1790   41.9450 C.3       1 04C        -0.0579
     34 C12        62.4250 -138.8540   42.6970 C.3       1 04C         0.0492
     35 O13        62.8100 -139.8560   41.7400 O.3       1 04C        -0.3947
     36 C7         63.3220 -134.1790   43.0690 C.3       1 04C         0.0064
     37 C6         64.0180 -133.1130   42.4490 C.ar      1 04C        -0.0408
     38 C5         64.7550 -133.1940   41.2580 C.ar      1 04C        -0.0603
     39 C4         65.3860 -132.0620   40.7370 C.ar      1 04C        -0.0686
     40 C3         65.2900 -130.8310   41.3830 C.ar      1 04C        -0.0687
     41 C2         64.5570 -130.7300   42.5600 C.ar      1 04C        -0.0686
     42 C1         63.9310 -131.8650   43.0780 C.ar      1 04C        -0.0603
     43 H1         58.6254 -134.5017   32.5260 H         1 04C         0.1063
     44 H2         58.7939 -133.0182   33.5249 H         1 04C         0.1063
     45 H3         57.3600 -135.3722   34.5140 H         1 04C         0.2054
     46 H4         56.3279 -134.9441   32.4405 H         1 04C         0.0837
     47 H5         56.3383 -133.1869   32.8134 H         1 04C         0.0837
     48 H6         57.2424 -132.4874   35.0875 H         1 04C         0.0837
     49 H7         58.0152 -133.7438   36.1127 H         1 04C         0.0837
     50 H8         54.1403 -134.0759   33.2512 H         1 04C         0.0613
     51 H9         54.8315 -135.3787   34.2768 H         1 04C         0.0613
     52 H10        55.8132 -134.8463   36.3808 H         1 04C         0.0613
     53 H11        55.7853 -133.1469   36.9622 H         1 04C         0.0613
     54 H12        60.6020 -132.9955   34.6687 H         1 04C         0.1884
     55 H13        62.0746 -135.4468   35.3649 H         1 04C         0.0797
     56 H14        63.7197 -133.8574   36.3476 H         1 04C         0.0277
     57 H15        62.5708 -132.5010   36.0891 H         1 04C         0.0277
     58 H16        63.2743 -133.3633   34.6790 H         1 04C         0.0277
     59 H17        62.4184 -136.1991   37.4210 H         1 04C         0.1885
     60 H18        60.6694 -135.0666   39.5898 H         1 04C         0.0821
     61 H19        60.9299 -137.5015   40.5144 H         1 04C         0.0453
     62 H20        61.3239 -137.9208   38.8127 H         1 04C         0.0453
     63 H21        59.7832 -137.6544   37.0761 H         1 04C         0.0530
     64 H22        57.3907 -137.5783   36.4844 H         1 04C         0.0525
     65 H23        53.4312 -136.5481   38.3412 H         1 04C         0.0575
     66 H24        54.6278 -135.3914   39.0170 H         1 04C         0.0575
     67 H25        54.3568 -136.9750   39.8203 H         1 04C         0.0575
     68 H26        56.4157 -136.5508   40.5307 H         1 04C         0.0525
     69 H27        58.8125 -136.6284   41.1232 H         1 04C         0.0530
     70 H28        61.4918 -135.6582   41.7126 H         1 04C         0.1857
     71 H29        64.4858 -135.6234   41.9289 H         1 04C         0.0604
     72 H30        63.9302 -136.3092   44.3377 H         1 04C         0.0621
     73 H31        61.7059 -135.7496   44.2658 H         1 04C         0.2099
     74 H32        64.1448 -138.6148   44.0179 H         1 04C         0.0346
     75 H33        65.0009 -139.2261   41.7282 H         1 04C         0.0234
     76 H34        65.6526 -137.6280   42.2260 H         1 04C         0.0234
     77 H35        64.2968 -137.7187   41.0511 H         1 04C         0.0234
     78 H36        61.7260 -138.1405   42.2361 H         1 04C         0.0560
     79 H37        61.9458 -139.3270   43.5668 H         1 04C         0.0560
     80 H38        63.2278 -139.4380   40.9962 H         1 04C         0.2094
     81 H39        63.6806 -134.2644   44.1054 H         1 04C         0.0449
     82 H40        62.2501 -133.9320   43.0710 H         1 04C         0.0449
     83 H41        64.8353 -134.1419   40.7383 H         1 04C         0.0557
     84 H42        65.9572 -132.1420   39.8192 H         1 04C         0.0599
     85 H43        65.7834 -129.9583   40.9707 H         1 04C         0.0559
     86 H44        64.4723 -129.7778   43.0712 H         1 04C         0.0599
     87 H45        63.3600 -131.7776   43.9953 H         1 04C         0.0557
@<TRIPOS>BOND
     1    1    2 2  
     2    3    1 1  
     3    1   10 am 
     4    4    3 1  
     5    6    4 1  
     6    4    7 1  
     7    8    5 1  
     8    5    9 1  
     9    6    8 1  
    10    7    9 1  
    11   10   11 1  
    12   11   12 1  
    13   11   14 1  
    14   12   13 2  
    15   12   15 am 
    16   15   16 1  
    17   16   17 1  
    18   16   26 1  
    19   17   18 1  
    20   18   19 ar 
    21   18   25 ar 
    22   19   20 ar 
    23   20   21 ar 
    24   21   22 1  
    25   21   24 ar 
    26   22   23 1  
    27   24   25 ar 
    28   26   27 2  
    29   26   28 am 
    30   28   29 1  
    31   29   30 1  
    32   29   36 1  
    33   30   31 1  
    34   30   32 1  
    35   32   33 1  
    36   32   34 1  
    37   34   35 1  
    38   36   37 1  
    39   37   38 ar 
    40   37   42 ar 
    41   38   39 ar 
    42   39   40 ar 
    43   40   41 ar 
    44   41   42 ar 
    45    3   43 1  
    46    3   44 1  
    47    4   45 1  
    48    6   46 1  
    49    6   47 1  
    50    7   48 1  
    51    7   49 1  
    52    8   50 1  
    53    8   51 1  
    54    9   52 1  
    55    9   53 1  
    56   10   54 1  
    57   11   55 1  
    58   14   56 1  
    59   14   57 1  
    60   14   58 1  
    61   15   59 1  
    62   16   60 1  
    63   17   61 1  
    64   17   62 1  
    65   19   63 1  
    66   20   64 1  
    67   23   65 1  
    68   23   66 1  
    69   23   67 1  
    70   24   68 1  
    71   25   69 1  
    72   28   70 1  
    73   29   71 1  
    74   30   72 1  
    75   31   73 1  
    76   32   74 1  
    77   33   75 1  
    78   33   76 1  
    79   33   77 1  
    80   34   78 1  
    81   34   79 1  
    82   35   80 1  
    83   36   81 1  
    84   36   82 1  
    85   38   83 1  
    86   39   84 1  
    87   40   85 1  
    88   41   86 1  
    89   42   87 1  
@<TRIPOS>SUBSTRUCTURE
     1 04C         1

