### 
### Created by X-TOOL on Mon Sep 10 21:13:24 2018
### 

@<TRIPOS>MOLECULE
4qzx_ligand
   87    89     1     0     0
SMALL
GAST_HUCK


@<TRIPOS>ATOM
      1 C29        59.5820 -134.9140   34.4390 C.2       1 04C         0.2238
      2 O37        59.6800 -136.1340   34.5740 O.2       1 04C        -0.3910
      3 C30        58.3910 -134.3050   33.6790 C.3       1 04C         0.0582
      4 N31        57.3170 -134.2230   34.6660 N.4       1 04C         0.2552
      5 O34        54.6650 -133.7960   35.3570 O.3       1 04C        -0.3693
      6 C36        56.3460 -135.3260   34.4830 C.3       1 04C        -0.0060
      7 C32        56.6680 -132.9070   34.6260 C.3       1 04C        -0.0060
      8 C35        55.2080 -135.1390   35.4150 C.3       1 04C         0.0878
      9 C33        55.6490 -132.8070   35.6980 C.3       1 04C         0.0878
     10 N28        60.4640 -134.0290   34.9370 N.am      1 04C        -0.2615
     11 C27        61.6390 -134.4610   35.7080 C.3       1 04C         0.1283
     12 C26        61.2350 -134.5730   37.1790 C.2       1 04C         0.2037
     13 O39        60.4580 -133.7630   37.6850 O.2       1 04C        -0.3944
     14 C38        62.7790 -133.4510   35.5480 C.3       1 04C        -0.0244
     15 N25        61.7770 -135.6100   37.8320 N.am      1 04C        -0.2621
     16 C24        61.4850 -135.8690   39.2460 C.3       1 04C         0.1389
     17 C40        60.8920 -137.2430   39.3890 C.3       1 04C         0.0163
     18 C41        59.5210 -137.1360   39.1320 C.ar      1 04C        -0.0493
     19 C48        59.0050 -137.3870   37.8610 C.ar      1 04C        -0.0685
     20 C47        57.6370 -137.2860   37.6210 C.ar      1 04C        -0.0396
     21 C44        56.7640 -136.9450   38.6570 C.ar      1 04C         0.0837
     22 O45        55.4100 -136.8230   38.4830 O.3       1 04C        -0.3257
     23 C46        54.7610 -137.8010   37.6480 C.3       1 04C         0.0579
     24 C43        57.2850 -136.6950   39.9230 C.ar      1 04C        -0.0396
     25 C42        58.6500 -136.7950   40.1640 C.ar      1 04C        -0.0685
     26 C23        62.7870 -135.8240   40.0500 C.2       1 04C         0.2040
     27 O49        63.8770 -136.0470   39.5210 O.2       1 04C        -0.3943
     28 N22        62.6110 -135.5480   41.3510 N.am      1 04C        -0.2774
     29 C8         63.7180 -135.4560   42.3060 C.3       1 04C         0.0777
     30 C9         63.5530 -136.5050   43.4340 C.3       1 04C         0.0845
     31 O21        62.2430 -136.3820   43.9620 O.3       1 04C        -0.3890
     32 C10        63.8380 -138.0310   43.0790 C.3       1 04C         0.0077
     33 C11        64.8970 -138.1540   41.9220 C.3       1 04C        -0.0579
     34 C12        62.5230 -138.6230   42.5670 C.3       1 04C         0.0492
     35 O13        62.8330 -139.7920   41.7730 O.3       1 04C        -0.3947
     36 C7         63.6630 -134.0930   42.9770 C.3       1 04C         0.0064
     37 C6         64.3550 -133.0700   42.2900 C.ar      1 04C        -0.0408
     38 C5         65.1580 -133.2430   41.1500 C.ar      1 04C        -0.0603
     39 C4         65.7880 -132.1450   40.5640 C.ar      1 04C        -0.0686
     40 C3         65.6310 -130.8690   41.1000 C.ar      1 04C        -0.0687
     41 C2         64.8370 -130.6860   42.2270 C.ar      1 04C        -0.0686
     42 C1         64.2100 -131.7830   42.8100 C.ar      1 04C        -0.0603
     43 H1         58.0963 -134.9516   32.8394 H         1 04C         0.1063
     44 H2         58.6450 -133.3043   33.2996 H         1 04C         0.1063
     45 H3         57.7300 -134.3303   35.5792 H         1 04C         0.2054
     46 H4         56.8382 -136.2871   34.6928 H         1 04C         0.0837
     47 H5         55.9765 -135.3218   33.4469 H         1 04C         0.0837
     48 H6         56.1820 -132.7709   33.6487 H         1 04C         0.0837
     49 H7         57.4261 -132.1232   34.7709 H         1 04C         0.0837
     50 H8         54.4141 -135.8534   35.1518 H         1 04C         0.0613
     51 H9         55.5541 -135.3368   36.4402 H         1 04C         0.0613
     52 H10        56.0953 -133.0256   36.6793 H         1 04C         0.0613
     53 H11        55.2005 -131.8028   35.7147 H         1 04C         0.0613
     54 H12        60.3169 -133.0526   34.7789 H         1 04C         0.1884
     55 H13        61.9750 -135.4432   35.3443 H         1 04C         0.0797
     56 H14        63.6504 -133.7865   36.1294 H         1 04C         0.0277
     57 H15        62.4510 -132.4669   35.9139 H         1 04C         0.0277
     58 H16        63.0545 -133.3742   34.4858 H         1 04C         0.0277
     59 H17        62.3968 -136.2234   37.3425 H         1 04C         0.1885
     60 H18        60.7814 -135.1135   39.6257 H         1 04C         0.0821
     61 H19        61.0549 -137.6184   40.4101 H         1 04C         0.0453
     62 H20        61.3572 -137.9303   38.6671 H         1 04C         0.0453
     63 H21        59.6738 -137.6628   37.0537 H         1 04C         0.0530
     64 H22        57.2480 -137.4727   36.6266 H         1 04C         0.0525
     65 H23        53.6840 -137.5830   37.5973 H         1 04C         0.0575
     66 H24        54.9124 -138.8043   38.0728 H         1 04C         0.0575
     67 H25        55.1909 -137.7625   36.6362 H         1 04C         0.0575
     68 H26        56.6177 -136.4188   40.7314 H         1 04C         0.0525
     69 H27        59.0381 -136.6070   41.1585 H         1 04C         0.0530
     70 H28        61.6803 -135.3980   41.6846 H         1 04C         0.1857
     71 H29        64.6769 -135.5985   41.7861 H         1 04C         0.0604
     72 H30        64.2696 -136.2323   44.2227 H         1 04C         0.0621
     73 H31        62.1237 -135.5058   44.3092 H         1 04C         0.2099
     74 H32        64.1896 -138.5693   43.9715 H         1 04C         0.0346
     75 H33        65.0739 -139.2164   41.6983 H         1 04C         0.0234
     76 H34        65.8402 -137.6836   42.2367 H         1 04C         0.0234
     77 H35        64.5173 -137.6481   41.0221 H         1 04C         0.0234
     78 H36        61.9966 -137.8814   41.9482 H         1 04C         0.0560
     79 H37        61.8869 -138.9086   43.4177 H         1 04C         0.0560
     80 H38        63.3848 -139.5397   41.0420 H         1 04C         0.2094
     81 H39        64.1001 -134.1875   43.9820 H         1 04C         0.0449
     82 H40        62.6076 -133.7952   43.0627 H         1 04C         0.0449
     83 H41        65.2882 -134.2317   40.7250 H         1 04C         0.0557
     84 H42        66.4050 -132.2860   39.6840 H         1 04C         0.0599
     85 H43        66.1261 -130.0214   40.6402 H         1 04C         0.0559
     86 H44        64.7074 -129.6957   42.6484 H         1 04C         0.0599
     87 H45        63.5940 -131.6343   43.6895 H         1 04C         0.0557
@<TRIPOS>BOND
     1    1    2 2  
     2    3    1 1  
     3    1   10 am 
     4    4    3 1  
     5    6    4 1  
     6    4    7 1  
     7    8    5 1  
     8    5    9 1  
     9    6    8 1  
    10    7    9 1  
    11   10   11 1  
    12   11   12 1  
    13   11   14 1  
    14   12   13 2  
    15   12   15 am 
    16   15   16 1  
    17   16   17 1  
    18   16   26 1  
    19   17   18 1  
    20   18   19 ar 
    21   18   25 ar 
    22   19   20 ar 
    23   20   21 ar 
    24   21   22 1  
    25   21   24 ar 
    26   22   23 1  
    27   24   25 ar 
    28   26   27 2  
    29   26   28 am 
    30   28   29 1  
    31   29   30 1  
    32   29   36 1  
    33   30   31 1  
    34   30   32 1  
    35   32   33 1  
    36   32   34 1  
    37   34   35 1  
    38   36   37 1  
    39   37   38 ar 
    40   37   42 ar 
    41   38   39 ar 
    42   39   40 ar 
    43   40   41 ar 
    44   41   42 ar 
    45    3   43 1  
    46    3   44 1  
    47    4   45 1  
    48    6   46 1  
    49    6   47 1  
    50    7   48 1  
    51    7   49 1  
    52    8   50 1  
    53    8   51 1  
    54    9   52 1  
    55    9   53 1  
    56   10   54 1  
    57   11   55 1  
    58   14   56 1  
    59   14   57 1  
    60   14   58 1  
    61   15   59 1  
    62   16   60 1  
    63   17   61 1  
    64   17   62 1  
    65   19   63 1  
    66   20   64 1  
    67   23   65 1  
    68   23   66 1  
    69   23   67 1  
    70   24   68 1  
    71   25   69 1  
    72   28   70 1  
    73   29   71 1  
    74   30   72 1  
    75   31   73 1  
    76   32   74 1  
    77   33   75 1  
    78   33   76 1  
    79   33   77 1  
    80   34   78 1  
    81   34   79 1  
    82   35   80 1  
    83   36   81 1  
    84   36   82 1  
    85   38   83 1  
    86   39   84 1  
    87   40   85 1  
    88   41   86 1  
    89   42   87 1  
@<TRIPOS>SUBSTRUCTURE
     1 04C         1

