### 
### Created by X-TOOL on Mon Sep 10 21:13:17 2018
### 

@<TRIPOS>MOLECULE
4r02_ligand
   97    98     1     0     0
SMALL
GAST_HUCK


@<TRIPOS>ATOM
      1 O5         12.3010 -138.2160   22.0520 O.2       1 3E5        -0.3773
      2 C27        11.6520 -137.1800   22.1080 C.2       1 3E5         0.3239
      3 O4         11.8280 -136.3110   23.2650 O.3       1 3E5        -0.2506
      4 C28        13.1370 -135.9500   23.7130 C.3       1 3E5         0.1113
      5 C29        13.3720 -136.3320   25.1620 C.ar      1 3E5        -0.0130
      6 C34        14.3430 -135.6400   25.8840 C.ar      1 3E5        -0.0578
      7 C33        14.5900 -135.9620   27.2160 C.ar      1 3E5        -0.0685
      8 C32        13.8680 -136.9800   27.8330 C.ar      1 3E5        -0.0687
      9 C31        12.8970 -137.6750   27.1160 C.ar      1 3E5        -0.0685
     10 C30        12.6490 -137.3540   25.7820 C.ar      1 3E5        -0.0578
     11 N3         10.7810 -136.8030   21.1670 N.am      1 3E5        -0.2411
     12 C22        10.5310 -137.6240   19.9860 C.3       1 3E5         0.1331
     13 C          11.4110 -137.2180   18.8340 C.2       1 3E5         0.2039
     14 O          11.9700 -136.1310   18.7990 O.2       1 3E5        -0.3944
     15 C23         9.0610 -137.7240   19.5340 C.3       1 3E5        -0.0101
     16 C24         8.0920 -136.6650   20.0560 C.3       1 3E5        -0.0425
     17 C25         8.2990 -135.3380   19.3300 C.3       1 3E5        -0.0625
     18 C26         6.6510 -137.1650   19.9460 C.3       1 3E5        -0.0625
     19 N          11.5440 -138.1690   17.9120 N.am      1 3E5        -0.2637
     20 C1         12.4320 -138.0960   16.7720 C.3       1 3E5         0.1311
     21 C6         11.6300 -138.0430   15.5100 C.2       1 3E5         0.2021
     22 O3         10.5640 -138.6370   15.4410 O.2       1 3E5        -0.3945
     23 C2         13.3270 -139.3390   16.7860 C.3       1 3E5        -0.0101
     24 C3         14.8190 -139.0440   16.9440 C.3       1 3E5        -0.0425
     25 C4         15.1200 -138.1510   18.1500 C.3       1 3E5        -0.0625
     26 C5         15.6000 -140.3590   17.0060 C.3       1 3E5        -0.0625
     27 N1         12.1430 -137.3250   14.5120 N.am      1 3E5        -0.2772
     28 C7         11.4620 -137.2050   13.2400 C.3       1 3E5         0.0857
     29 C8         11.5200 -135.7780   12.6910 C.3       1 3E5        -0.0229
     30 C9         10.9370 -134.7210   13.6320 C.3       1 3E5        -0.0444
     31 C11         9.5050 -135.0350   14.0720 C.3       1 3E5        -0.0626
     32 C10        11.0300 -133.3440   12.9720 C.3       1 3E5        -0.0626
     33 C12        12.0330 -138.2120   12.2440 C.3       1 3E5         0.1713
     34 O2         11.5350 -139.4620   12.6860 O.3       1 3E5        -0.3686
     35 C13        13.5360 -138.3490   12.2440 C.2       1 3E5         0.2313
     36 O1         14.2020 -137.4610   11.7380 O.2       1 3E5        -0.3837
     37 N2         14.0150 -139.5030   12.7260 N.am      1 3E5        -0.2386
     38 C14        15.2990 -139.9630   12.6020 C.ar      1 3E5         0.0619
     39 C21        16.3410 -139.2160   12.0290 C.ar      1 3E5        -0.0537
     40 C20        17.6300 -139.7380   11.9240 C.ar      1 3E5        -0.0806
     41 C18        17.9300 -141.0200   12.3780 C.ar      1 3E5        -0.0674
     42 C19        19.3370 -141.5430   12.2430 C.3       1 3E5        -0.0396
     43 C17        16.9400 -141.8160   12.9500 C.ar      1 3E5        -0.0718
     44 C15        15.6350 -141.3450   13.0800 C.ar      1 3E5        -0.0301
     45 C16        14.6260 -142.2760   13.7130 C.3       1 3E5        -0.0365
     46 H1         13.2594 -134.8618   23.6092 H         1 3E5         0.0776
     47 H2         13.8804 -136.4641   23.0861 H         1 3E5         0.0776
     48 H3         14.9082 -134.8478   25.4065 H         1 3E5         0.0557
     49 H4         15.3452 -135.4195   27.7731 H         1 3E5         0.0599
     50 H5         14.0612 -137.2313   28.8696 H         1 3E5         0.0559
     51 H6         12.3332 -138.4668   27.5959 H         1 3E5         0.0599
     52 H7         11.8944 -137.8980   25.2254 H         1 3E5         0.0557
     53 H8         10.2893 -135.9389   21.2743 H         1 3E5         0.1899
     54 H9         10.8287 -138.6451   20.2664 H         1 3E5         0.0799
     55 H10         8.6825 -138.7052   19.8565 H         1 3E5         0.0315
     56 H11         9.0490 -137.6694   18.4354 H         1 3E5         0.0315
     57 H12         8.3093 -136.4999   21.1216 H         1 3E5         0.0298
     58 H13         7.5919 -134.5918   19.7214 H         1 3E5         0.0232
     59 H14         8.1251 -135.4783   18.2529 H         1 3E5         0.0232
     60 H15         9.3290 -134.9878   19.4926 H         1 3E5         0.0232
     61 H16         6.5523 -138.1201   20.4827 H         1 3E5         0.0232
     62 H17         6.3935 -137.3114   18.8866 H         1 3E5         0.0232
     63 H18         5.9706 -136.4232   20.3896 H         1 3E5         0.0232
     64 H19        10.9893 -138.9947   18.0149 H         1 3E5         0.1883
     65 H20        13.0551 -137.1924   16.8440 H         1 3E5         0.0800
     66 H21        13.1818 -139.8777   15.8380 H         1 3E5         0.0315
     67 H22        13.0128 -139.9793   17.6234 H         1 3E5         0.0315
     68 H23        15.1473 -138.4999   16.0462 H         1 3E5         0.0298
     69 H24        16.2037 -137.9733   18.2132 H         1 3E5         0.0232
     70 H25        14.7757 -138.6477   19.0691 H         1 3E5         0.0232
     71 H26        14.5971 -137.1902   18.0344 H         1 3E5         0.0232
     72 H27        15.3575 -140.9713   16.1249 H         1 3E5         0.0232
     73 H28        15.3249 -140.9062   17.9197 H         1 3E5         0.0232
     74 H29        16.6788 -140.1446   17.0178 H         1 3E5         0.0232
     75 H30        13.0177 -136.8587   14.6443 H         1 3E5         0.1857
     76 H31        10.4028 -137.4539   13.4016 H         1 3E5         0.0608
     77 H32        10.9564 -135.7481   11.7469 H         1 3E5         0.0292
     78 H33        12.5729 -135.5250   12.4977 H         1 3E5         0.0292
     79 H34        11.5594 -134.7039   14.5388 H         1 3E5         0.0296
     80 H35         9.1454 -134.2414   14.7435 H         1 3E5         0.0232
     81 H36         9.4871 -135.9991   14.6013 H         1 3E5         0.0232
     82 H37         8.8534 -135.0901   13.1875 H         1 3E5         0.0232
     83 H38        12.0699 -133.1520   12.6692 H         1 3E5         0.0232
     84 H39        10.7078 -132.5723   13.6866 H         1 3E5         0.0232
     85 H40        10.3792 -133.3175   12.0855 H         1 3E5         0.0232
     86 H41        11.6862 -137.9690   11.2288 H         1 3E5         0.0865
     87 H42        11.8501 -140.1487   12.1101 H         1 3E5         0.2134
     88 H43        13.3729 -140.0852   13.2248 H         1 3E5         0.2213
     89 H44        16.1399 -138.2161   11.6619 H         1 3E5         0.0465
     90 H45        18.4135 -139.1343   11.4805 H         1 3E5         0.0462
     91 H46        19.3896 -142.5633   12.6507 H         1 3E5         0.0362
     92 H47        20.0258 -140.8900   12.7990 H         1 3E5         0.0362
     93 H48        19.6225 -141.5575   11.1808 H         1 3E5         0.0362
     94 H49        17.1875 -142.8125   13.2977 H         1 3E5         0.0457
     95 H50        13.6446 -141.7807   13.7528 H         1 3E5         0.0361
     96 H51        14.9504 -142.5294   14.7331 H         1 3E5         0.0361
     97 H52        14.5488 -143.1952   13.1138 H         1 3E5         0.0361
@<TRIPOS>BOND
     1    1    2 2  
     2    2    3 1  
     3    2   11 am 
     4    3    4 1  
     5    4    5 1  
     6    5    6 ar 
     7    5   10 ar 
     8    6    7 ar 
     9    7    8 ar 
    10    8    9 ar 
    11    9   10 ar 
    12   11   12 1  
    13   12   13 1  
    14   12   15 1  
    15   13   14 2  
    16   13   19 am 
    17   15   16 1  
    18   16   17 1  
    19   16   18 1  
    20   19   20 1  
    21   20   21 1  
    22   20   23 1  
    23   21   22 2  
    24   21   27 am 
    25   23   24 1  
    26   24   25 1  
    27   24   26 1  
    28   27   28 1  
    29   28   29 1  
    30   28   33 1  
    31   29   30 1  
    32   30   31 1  
    33   30   32 1  
    34   33   34 1  
    35   33   35 1  
    36   35   36 2  
    37   35   37 am 
    38   37   38 1  
    39   38   39 ar 
    40   38   44 ar 
    41   39   40 ar 
    42   40   41 ar 
    43   41   42 1  
    44   41   43 ar 
    45   43   44 ar 
    46   44   45 1  
    47    4   46 1  
    48    4   47 1  
    49    6   48 1  
    50    7   49 1  
    51    8   50 1  
    52    9   51 1  
    53   10   52 1  
    54   11   53 1  
    55   12   54 1  
    56   15   55 1  
    57   15   56 1  
    58   16   57 1  
    59   17   58 1  
    60   17   59 1  
    61   17   60 1  
    62   18   61 1  
    63   18   62 1  
    64   18   63 1  
    65   19   64 1  
    66   20   65 1  
    67   23   66 1  
    68   23   67 1  
    69   24   68 1  
    70   25   69 1  
    71   25   70 1  
    72   25   71 1  
    73   26   72 1  
    74   26   73 1  
    75   26   74 1  
    76   27   75 1  
    77   28   76 1  
    78   29   77 1  
    79   29   78 1  
    80   30   79 1  
    81   31   80 1  
    82   31   81 1  
    83   31   82 1  
    84   32   83 1  
    85   32   84 1  
    86   32   85 1  
    87   33   86 1  
    88   34   87 1  
    89   37   88 1  
    90   39   89 1  
    91   40   90 1  
    92   42   91 1  
    93   42   92 1  
    94   42   93 1  
    95   43   94 1  
    96   45   95 1  
    97   45   96 1  
    98   45   97 1  
@<TRIPOS>SUBSTRUCTURE
     1 3E5         1

