### 
### Created by X-TOOL on Mon Sep 10 21:13:28 2018
### 

@<TRIPOS>MOLECULE
4r06_ligand
   58    62     1     0     0
SMALL
GAST_HUCK


@<TRIPOS>ATOM
      1 C01        21.1410   32.0800   20.4700 C.ar      1 3E7        -0.0685
      2 C02        21.4230   32.8190   19.3250 C.ar      1 3E7        -0.0687
      3 C03        20.7870   32.5370   18.1280 C.ar      1 3E7        -0.0685
      4 C04        19.8690   31.5120   18.0850 C.ar      1 3E7        -0.0581
      5 C05        19.5920   30.7700   19.2170 C.ar      1 3E7        -0.0181
      6 C06        20.2230   31.0630   20.4240 C.ar      1 3E7        -0.0581
      7 C07        18.5490   29.6750   19.1200 C.3       1 3E7         0.0746
      8 C08        18.5270   28.5730   20.1090 C.3       1 3E7        -0.0228
      9 C09        17.1930   28.2750   20.6030 C.3       1 3E7        -0.0614
     10 N10        18.4370   29.2390   17.6910 N.am      1 3E7        -0.2737
     11 C11        19.2210   28.2400   16.9490 C.2       1 3E7         0.1966
     12 C12        18.7270   28.1610   15.5090 C.ar      1 3E7         0.0293
     13 O13        20.1700   27.6080   17.4370 O.2       1 3E7        -0.3899
     14 C14        19.5560   28.1720   14.3760 C.ar      1 3E7        -0.0605
     15 C15        18.9590   28.1570   13.0490 C.ar      1 3E7        -0.0374
     16 C16        17.5790   28.1450   12.8990 C.ar      1 3E7         0.1031
     17 C17        16.7540   28.1440   14.0470 C.ar      1 3E7        -0.0255
     18 C18        17.3350   28.1640   15.3390 C.ar      1 3E7        -0.0587
     19 N19        16.7580   28.1080   11.7750 N.am      1 3E7        -0.1206
     20 C20        15.4610   28.1070   12.1580 C.2       1 3E7         0.0580
     21 C21        15.4000   28.1220   13.5830 C.2       1 3E7        -0.0673
     22 S22        17.2380   28.1300   10.1950 S.o2      1 3E7         0.1194
     23 O23        16.0410   27.9220    9.4130 O.2       1 3E7        -0.1356
     24 O24        18.2760   27.1180    9.8810 O.2       1 3E7        -0.1356
     25 C25        17.9470   29.8060    9.9910 C.ar      1 3E7         0.1310
     26 C26        19.3770   29.8660    9.9420 C.ar      1 3E7        -0.0331
     27 C27        20.0390   31.1280    9.7770 C.ar      1 3E7        -0.0593
     28 C28        19.2800   32.2970    9.6830 C.ar      1 3E7        -0.0539
     29 C29        17.8070   32.2510    9.7420 C.ar      1 3E7        -0.0160
     30 C30        17.1510   31.0230    9.8950 C.ar      1 3E7         0.0101
     31 C31        17.0840   33.4630    9.6380 C.ar      1 3E7        -0.0540
     32 C32        15.7220   33.4560    9.6900 C.ar      1 3E7        -0.0612
     33 C33        15.0260   32.1990    9.8520 C.ar      1 3E7        -0.0611
     34 C34        15.7150   31.0330    9.9510 C.ar      1 3E7        -0.0521
     35 H1         21.6483   32.3091   21.4002 H         1 3E7         0.0599
     36 H2         22.1480   33.6236   19.3708 H         1 3E7         0.0559
     37 H3         21.0086   33.1147   17.2379 H         1 3E7         0.0599
     38 H4         19.3594   31.2853   17.1555 H         1 3E7         0.0557
     39 H5         19.9907   30.4933   21.3165 H         1 3E7         0.0557
     40 H6         17.6042   30.1989   19.3269 H         1 3E7         0.0718
     41 H7         19.1608   28.8560   20.9623 H         1 3E7         0.0307
     42 H8         18.9342   27.6683   19.6339 H         1 3E7         0.0307
     43 H9         17.2468   27.4514   21.3302 H         1 3E7         0.0232
     44 H10        16.5480   27.9801   19.7622 H         1 3E7         0.0232
     45 H11        16.7746   29.1678   21.0906 H         1 3E7         0.0232
     46 H12        17.7217   29.6959   17.1622 H         1 3E7         0.1871
     47 H13        20.6339   28.1915   14.4890 H         1 3E7         0.0550
     48 H14        19.5960   28.1552   12.1719 H         1 3E7         0.0543
     49 H15        16.6921   28.1819   16.2116 H         1 3E7         0.0587
     50 H16        14.6029   28.0965   11.4876 H         1 3E7         0.0944
     51 H17        14.5006   28.1176   14.1970 H         1 3E7         0.0219
     52 H18        19.9601   28.9564   10.0297 H         1 3E7         0.0638
     53 H19        21.1208   31.1741    9.7256 H         1 3E7         0.0618
     54 H20        19.7806   33.2512    9.5651 H         1 3E7         0.0624
     55 H21        17.6151   34.4001    9.5166 H         1 3E7         0.0624
     56 H22        15.1663   34.3833    9.6107 H         1 3E7         0.0618
     57 H23        13.9429   32.1873    9.8949 H         1 3E7         0.0618
     58 H24        15.1764   30.1003   10.0735 H         1 3E7         0.0624
@<TRIPOS>BOND
     1    1    2 ar 
     2    1    6 ar 
     3    2    3 ar 
     4    3    4 ar 
     5    4    5 ar 
     6    5    6 ar 
     7    5    7 1  
     8    7    8 1  
     9    7   10 1  
    10    8    9 1  
    11   10   11 am 
    12   11   12 1  
    13   11   13 2  
    14   12   14 ar 
    15   12   18 ar 
    16   14   15 ar 
    17   15   16 ar 
    18   16   17 ar 
    19   16   19 1  
    20   17   18 ar 
    21   17   21 1  
    22   19   20 1  
    23   19   22 am 
    24   20   21 2  
    25   22   23 2  
    26   22   24 2  
    27   22   25 1  
    28   25   26 ar 
    29   25   30 ar 
    30   26   27 ar 
    31   27   28 ar 
    32   28   29 ar 
    33   29   30 ar 
    34   29   31 ar 
    35   30   34 ar 
    36   31   32 ar 
    37   32   33 ar 
    38   33   34 ar 
    39    1   35 1  
    40    2   36 1  
    41    3   37 1  
    42    4   38 1  
    43    6   39 1  
    44    7   40 1  
    45    8   41 1  
    46    8   42 1  
    47    9   43 1  
    48    9   44 1  
    49    9   45 1  
    50   10   46 1  
    51   14   47 1  
    52   15   48 1  
    53   18   49 1  
    54   20   50 1  
    55   21   51 1  
    56   26   52 1  
    57   27   53 1  
    58   28   54 1  
    59   31   55 1  
    60   32   56 1  
    61   33   57 1  
    62   34   58 1  
@<TRIPOS>SUBSTRUCTURE
     1 3E7         1

