### 
### Created by X-TOOL on Mon Sep 10 21:13:24 2018
### 

@<TRIPOS>MOLECULE
4r0a_ligand
   29    30     1     0     0
SMALL
GAST_HUCK


@<TRIPOS>ATOM
      1 N1        -17.8700   58.9700  -34.4890 N.am      1 URI        -0.1592
      2 C2        -16.9670   57.9530  -34.7590 C.2       1 URI         0.3328
      3 N3        -15.6510   58.3290  -34.7010 N.am      1 URI        -0.1865
      4 C4        -15.1470   59.5520  -34.3160 C.2       1 URI         0.1822
      5 C5        -16.1370   60.5150  -33.9520 C.2       1 URI         0.0062
      6 C6        -17.4350   60.2010  -34.0600 C.2       1 URI         0.0591
      7 O2        -17.3030   56.8250  -35.0900 O.2       1 URI        -0.3815
      8 O4        -13.9260   59.7180  -34.2780 O.2       1 URI        -0.4124
      9 C1'       -19.3120   58.6730  -34.4990 C.3       1 URI         0.2058
     10 C2'       -19.8160   58.0510  -35.8000 C.3       1 URI         0.1387
     11 C3'       -21.0110   57.2270  -35.3290 C.3       1 URI         0.1145
     12 C4'       -20.7000   56.9120  -33.8660 C.3       1 URI         0.1135
     13 O2'       -20.2040   59.0680  -36.6940 O.3       1 URI        -0.3836
     14 O3'       -22.2310   57.9720  -35.4640 O.3       1 URI        -0.3864
     15 O4'       -19.5890   57.7400  -33.4700 O.3       1 URI        -0.3367
     16 C5'       -20.4120   55.4640  -33.5330 C.3       1 URI         0.0730
     17 O5'       -19.3250   54.9800  -34.3010 O.3       1 URI        -0.3924
     18 H1        -14.9801   57.6373  -34.9684 H         1 URI         0.2259
     19 H2        -15.8389   61.4976  -33.5892 H         1 URI         0.0258
     20 H3        -18.1770   60.9533  -33.7966 H         1 URI         0.1178
     21 H4        -19.8614   59.6083  -34.3163 H         1 URI         0.0997
     22 H5        -19.0517   57.4137  -36.2687 H         1 URI         0.0676
     23 H6        -21.0918   56.2974  -35.9114 H         1 URI         0.0648
     24 H7        -21.5812   57.2036  -33.2757 H         1 URI         0.0647
     25 H8        -20.8178   59.6504  -36.2622 H         1 URI         0.2101
     26 H9        -22.1539   58.7922  -34.9908 H         1 URI         0.2100
     27 H10       -21.3048   54.8592  -33.7499 H         1 URI         0.0584
     28 H11       -20.1640   55.3817  -32.4645 H         1 URI         0.0584
     29 H12       -18.5511   55.4983  -34.1141 H         1 URI         0.2095
@<TRIPOS>BOND
     1    1    2 am 
     2    1    6 1  
     3    1    9 1  
     4    2    3 am 
     5    2    7 2  
     6    3    4 am 
     7    4    5 1  
     8    4    8 2  
     9    5    6 2  
    10    9   10 1  
    11    9   15 1  
    12   10   11 1  
    13   10   13 1  
    14   11   12 1  
    15   11   14 1  
    16   12   15 1  
    17   12   16 1  
    18   16   17 1  
    19    3   18 1  
    20    5   19 1  
    21    6   20 1  
    22    9   21 1  
    23   10   22 1  
    24   11   23 1  
    25   12   24 1  
    26   13   25 1  
    27   14   26 1  
    28   16   27 1  
    29   16   28 1  
    30   17   29 1  
@<TRIPOS>SUBSTRUCTURE
     1 URI         1

