### 
### Created by X-TOOL on Mon Sep 10 21:13:25 2018
### 

@<TRIPOS>MOLECULE
4r0i_ligand
   72    75     1     0     0
SMALL
GAST_HUCK


@<TRIPOS>ATOM
      1 N1         15.1450    7.1660   28.1250 N.am      1 3KM        -0.2228
      2 N3         13.1490   13.7230   25.6980 N.pl3     1 3KM        -0.2723
      3 C4         20.1130    5.5960   28.1660 C.ar      1 3KM        -0.0178
      4 C5         19.7500    6.5760   29.1070 C.ar      1 3KM        -0.0160
      5 C6         20.7800    7.3410   29.7160 C.ar      1 3KM        -0.0540
      6 C7         19.1120    4.8300   27.5710 C.ar      1 3KM        -0.0522
      7 C8         17.7630    5.0210   27.9030 C.ar      1 3KM        -0.0345
      8 C10        18.3890    6.7800   29.4290 C.ar      1 3KM        -0.0274
      9 C13        13.5680    7.1150   26.3790 C.3       1 3KM         0.1070
     10 C15        15.9800    5.8320   24.0110 C.3       1 3KM         0.0342
     11 C17        18.2860    5.2260   23.3980 C.3       1 3KM        -0.0326
     12 C20        13.4320   10.0530   25.5850 C.ar      1 3KM        -0.0279
     13 C21        13.7620   11.3740   25.2590 C.ar      1 3KM         0.0171
     14 C22        14.5050   11.6420   24.0840 C.ar      1 3KM        -0.0677
     15 C24        14.6000    9.2970   23.6020 C.ar      1 3KM        -0.0331
     16 C26        19.3730    4.1390   23.4180 C.3       1 3KM        -0.0097
     17 C1         22.1470    7.1460   29.3850 C.ar      1 3KM        -0.0612
     18 O1         13.5070    7.7230   25.0870 O.3       1 3KM        -0.3137
     19 S1         15.7630    6.1930   29.2110 S.o2      1 3KM         0.0705
     20 C2         22.4990    6.1610   28.4400 C.ar      1 3KM        -0.0612
     21 N2         16.5580    6.9520   24.7470 N.am      1 3KM        -0.2716
     22 O2         16.7720    8.3600   26.4770 O.2       1 3KM        -0.3947
     23 C3         21.4780    5.3890   27.8390 C.ar      1 3KM        -0.0540
     24 O3         15.5850    6.8380   30.5460 O.2       1 3KM        -0.1501
     25 N4         12.7360   12.1800   27.3340 N.pl3     1 3KM        -0.2723
     26 O4         14.9720    4.9240   29.0900 O.2       1 3KM        -0.1501
     27 N5         18.6970    3.3130   21.2210 N.4       1 3KM         0.2185
     28 C9         17.3620    5.9940   28.8440 C.ar      1 3KM         0.1089
     29 C11        15.0110    6.7520   26.7500 C.3       1 3KM         0.1539
     30 C12        16.1670    7.4060   25.9590 C.2       1 3KM         0.2029
     31 C14        13.8540    9.0130   24.7720 C.ar      1 3KM         0.0914
     32 C16        17.0250    4.7180   24.0900 C.3       1 3KM        -0.0294
     33 C18        18.7480    6.5070   24.1050 C.3       1 3KM        -0.0294
     34 C19        17.6690    7.5800   24.0230 C.3       1 3KM         0.0342
     35 C23        14.9410   10.6130   23.2560 C.ar      1 3KM        -0.0707
     36 C25        13.2220   12.4580   26.1440 C.cat     1 3KM         0.2330
     37 C27        18.9580    2.9120   22.5980 C.3       1 3KM        -0.0351
     38 H1         14.8435    8.0800   28.3964 H         1 3KM         0.1707
     39 H2         12.7775   14.4640   26.3094 H         1 3KM         0.3181
     40 H3         13.4646   13.9520   24.7446 H         1 3KM         0.3181
     41 H4         20.5161    8.0922   30.4516 H         1 3KM         0.0624
     42 H5         19.3803    4.0753   26.8406 H         1 3KM         0.0624
     43 H6         17.0091    4.4060   27.4250 H         1 3KM         0.0637
     44 H7         18.1233    7.5547   30.1392 H         1 3KM         0.0643
     45 H8         12.9571    6.2003   26.3750 H         1 3KM         0.0659
     46 H9         13.1709    7.8179   27.1261 H         1 3KM         0.0659
     47 H10        15.7945    6.1132   22.9639 H         1 3KM         0.0522
     48 H11        15.0370    5.5099   24.4768 H         1 3KM         0.0522
     49 H12        18.0510    5.4649   22.3503 H         1 3KM         0.0304
     50 H13        12.8466    9.8438   26.4730 H         1 3KM         0.0542
     51 H14        14.7384   12.6684   23.8248 H         1 3KM         0.0522
     52 H15        14.9137    8.4810   22.9610 H         1 3KM         0.0542
     53 H16        19.5498    3.8298   24.4587 H         1 3KM         0.0319
     54 H17        20.3004    4.5535   22.9960 H         1 3KM         0.0319
     55 H18        22.9143    7.7501   29.8555 H         1 3KM         0.0618
     56 H19        23.5380    5.9976   28.1777 H         1 3KM         0.0618
     57 H20        21.7428    4.6259   27.1160 H         1 3KM         0.0624
     58 H21        12.7810   11.2170   27.6966 H         1 3KM         0.3181
     59 H22        12.3104   12.9253   27.9034 H         1 3KM         0.3181
     60 H23        18.4242    2.5061   20.6821 H         1 3KM         0.1994
     61 H24        19.5317    3.7154   20.8243 H         1 3KM         0.1994
     62 H25        17.9547    3.9947   21.2045 H         1 3KM         0.1994
     63 H26        15.1232    5.6612   26.6631 H         1 3KM         0.0781
     64 H27        16.6534    3.8169   23.5802 H         1 3KM         0.0287
     65 H28        17.2429    4.4807   25.1417 H         1 3KM         0.0287
     66 H29        19.6641    6.8771   23.6216 H         1 3KM         0.0287
     67 H30        18.9559    6.2826   25.1616 H         1 3KM         0.0287
     68 H31        17.9917    8.5096   24.5147 H         1 3KM         0.0522
     69 H32        17.3960    7.7931   22.9790 H         1 3KM         0.0522
     70 H33        15.5275   10.8220   22.3687 H         1 3KM         0.0589
     71 H34        18.0471    2.4728   23.0308 H         1 3KM         0.0813
     72 H35        19.7680    2.1680   22.6159 H         1 3KM         0.0813
@<TRIPOS>BOND
     1    1   19 am 
     2   29    1 1  
     3   36    2 ar 
     4    4    3 ar 
     5    6    3 ar 
     6    3   23 ar 
     7    4    5 ar 
     8    8    4 ar 
     9    5   17 ar 
    10    7    6 ar 
    11   28    7 ar 
    12   28    8 ar 
    13    9   18 1  
    14   29    9 1  
    15   21   10 1  
    16   10   32 1  
    17   11   16 1  
    18   32   11 1  
    19   11   33 1  
    20   12   13 ar 
    21   31   12 ar 
    22   13   14 ar 
    23   13   36 1  
    24   35   14 ar 
    25   31   15 ar 
    26   15   35 ar 
    27   16   37 1  
    28   17   20 ar 
    29   18   31 1  
    30   19   24 2  
    31   19   26 2  
    32   19   28 1  
    33   23   20 ar 
    34   30   21 am 
    35   21   34 1  
    36   30   22 2  
    37   36   25 ar 
    38   37   27 1  
    39   29   30 1  
    40   33   34 1  
    41    1   38 1  
    42    2   39 1  
    43    2   40 1  
    44    5   41 1  
    45    6   42 1  
    46    7   43 1  
    47    8   44 1  
    48    9   45 1  
    49    9   46 1  
    50   10   47 1  
    51   10   48 1  
    52   11   49 1  
    53   12   50 1  
    54   14   51 1  
    55   15   52 1  
    56   16   53 1  
    57   16   54 1  
    58   17   55 1  
    59   20   56 1  
    60   23   57 1  
    61   25   58 1  
    62   25   59 1  
    63   27   60 1  
    64   27   61 1  
    65   27   62 1  
    66   29   63 1  
    67   32   64 1  
    68   32   65 1  
    69   33   66 1  
    70   33   67 1  
    71   34   68 1  
    72   34   69 1  
    73   35   70 1  
    74   37   71 1  
    75   37   72 1  
@<TRIPOS>SUBSTRUCTURE
     1 3KM         1

