### 
### Created by X-TOOL on Mon Sep 10 21:13:18 2018
### 

@<TRIPOS>MOLECULE
4r17_ligand
   14    14     1     0     0
SMALL
GAST_HUCK


@<TRIPOS>ATOM
      1 C5         11.1290 -140.4130    9.9970 C.3       1 3K4         0.0368
      2 C7         12.3950 -139.7770   10.2820 C.3       1 3K4        -0.0139
      3 O          12.3640 -141.0120    7.3940 O.2       1 3K4        -0.3687
      4 C          11.2240 -140.5690    7.5390 C.2       1 3K4         0.1522
      5 C2         10.4410 -140.8060    8.8470 C.3       1 3K4         0.0920
      6 N6         10.9430 -141.7960    9.7440 N.4       1 3K4         0.2572
      7 H1         10.4659 -139.9749   10.7575 H         1 3K4         0.0933
      8 H2         12.5133 -139.6670   11.3701 H         1 3K4         0.0288
      9 H3         12.4217 -138.7847    9.8082 H         1 3K4         0.0288
     10 H4         13.2136 -140.3952    9.8848 H         1 3K4         0.0288
     11 H5         10.7620 -140.0018    6.7323 H         1 3K4         0.1411
     12 H6          9.3609 -140.6433    8.7172 H         1 3K4         0.1148
     13 H7         10.3077 -142.3344   10.3120 H         1 3K4         0.2044
     14 H8         11.7256 -142.3723    9.4766 H         1 3K4         0.2044
@<TRIPOS>BOND
     1    1    2 1  
     2    5    1 1  
     3    1    6 1  
     4    4    3 2  
     5    4    5 1  
     6    5    6 1  
     7    1    7 1  
     8    2    8 1  
     9    2    9 1  
    10    2   10 1  
    11    4   11 1  
    12    5   12 1  
    13    6   13 1  
    14    6   14 1  
@<TRIPOS>SUBSTRUCTURE
     1 3K4         1

