### 
### Created by X-TOOL on Mon Sep 10 21:13:17 2018
### 

@<TRIPOS>MOLECULE
4r18_ligand
   16    15     1     0     0
SMALL
GAST_HUCK


@<TRIPOS>ATOM
      1 N          11.0290 -141.0030    9.9800 N.4       1 ABA         0.2373
      2 CA         10.5980 -139.8950    9.0710 C.3       1 ABA         0.0462
      3 C          11.4410 -139.8430    7.7940 C.2       1 ABA         0.1466
      4 O          12.6170 -140.2160    7.7980 O.2       1 ABA        -0.3690
      5 CB         10.5840 -138.5240    9.8100 C.3       1 ABA         0.0038
      6 CG         11.3750 -137.4240    9.0660 C.3       1 ABA        -0.0579
      7 H1         11.0273 -141.8739    9.4724 H         1 ABA         0.2015
      8 H2         10.3915 -141.0664   10.7582 H         1 ABA         0.2015
      9 H3         11.9585 -140.8151   10.3216 H         1 ABA         0.2015
     10 H4          9.5631 -140.1099    8.7663 H         1 ABA         0.1089
     11 H5         10.9973 -139.4723    6.8711 H         1 ABA         0.1409
     12 H6         11.0275 -138.6597   10.8074 H         1 ABA         0.0344
     13 H7          9.5400 -138.1938    9.9148 H         1 ABA         0.0344
     14 H8         11.3254 -136.4860    9.6384 H         1 ABA         0.0233
     15 H9         10.9375 -137.2686    8.0688 H         1 ABA         0.0233
     16 H10        12.4250 -137.7345    8.9614 H         1 ABA         0.0233
@<TRIPOS>BOND
     1    1    2 1  
     2    2    3 1  
     3    2    5 1  
     4    3    4 2  
     5    5    6 1  
     6    1    7 1  
     7    1    8 1  
     8    1    9 1  
     9    2   10 1  
    10    3   11 1  
    11    5   12 1  
    12    5   13 1  
    13    6   14 1  
    14    6   15 1  
    15    6   16 1  
@<TRIPOS>SUBSTRUCTURE
     1 ABA         1

