### 
### Created by X-TOOL on Mon Sep 10 21:13:20 2018
### 

@<TRIPOS>MOLECULE
4r1v_ligand
   68    72     1     0     0
SMALL
GAST_HUCK


@<TRIPOS>ATOM
      1 C1        108.0060   17.6260  141.3860 C.ar      1 3E8         0.0035
      2 C2        108.2360   16.3920  141.9820 C.ar      1 3E8        -0.0216
      3 C3        108.8860   18.0990  140.4110 C.ar      1 3E8        -0.0484
      4 C4        109.3530   15.6400  141.6140 C.ar      1 3E8         0.0930
      5 C5        110.0010   17.3440  140.0650 C.ar      1 3E8        -0.0539
      6 C6        110.2380   16.1030  140.6540 C.ar      1 3E8        -0.0304
      7 C7        106.8160   18.4270  141.7240 C.2       1 3E8         0.0558
      8 C8        106.0690   18.2680  142.9920 C.2       1 3E8        -0.0552
      9 C12       104.5450   19.9990  142.2540 C.2       1 3E8         0.2072
     10 C15       105.5140   23.3500  140.8170 C.ar      1 3E8        -0.0563
     11 C16       107.2350   22.1690  139.6720 C.ar      1 3E8        -0.0458
     12 C17       106.3670   24.4330  140.9770 C.ar      1 3E8        -0.0655
     13 C18       108.0870   23.2520  139.8220 C.ar      1 3E8         0.0081
     14 C19       107.6520   24.3810  140.5040 C.ar      1 3E8        -0.0558
     15 N22       109.9180   21.8990  138.9240 N.ar      1 3E8        -0.2683
     16 C23       111.6690   24.0070  139.3390 C.ar      1 3E8         0.0576
     17 C24       111.2550   21.7460  138.6700 C.ar      1 3E8         0.0576
     18 O26       113.4400   22.5520  138.5760 O.3       1 3E8        -0.3036
     19 C30       116.0950   21.6850  138.2320 C.3       1 3E8        -0.0070
     20 C31       115.7160   21.8270  140.6810 C.3       1 3E8        -0.0070
     21 C32       117.5060   21.1260  138.5150 C.3       1 3E8        -0.0318
     22 C33       117.1230   21.2570  140.9760 C.3       1 3E8        -0.0318
     23 C35       118.9180   19.8850  140.0450 C.3       1 3E8        -0.0431
     24 C36       109.5530   14.3660  142.2190 C.1       1 3E8         0.0999
     25 N37       109.6440   13.3030  142.6720 N.1       1 3E8        -0.3282
     26 N9        106.4050   19.2870  140.8360 N.pl3     1 3E8        -0.2284
     27 N11       105.2700   20.0570  141.0880 N.am      1 3E8        -0.1659
     28 O27       103.5700   20.7110  142.4050 O.2       1 3E8        -0.3924
     29 C10       104.9850   19.0200  143.2430 C.3       1 3E8         0.0537
     30 C13       105.0010   21.0170  140.0130 C.3       1 3E8         0.0918
     31 C14       105.9330   22.2090  140.1610 C.ar      1 3E8        -0.0159
     32 C20       109.4770   23.1220  139.4020 C.ar      1 3E8         0.1160
     33 C25       112.1270   22.7820  138.8740 C.ar      1 3E8         0.1446
     34 N21       110.3350   24.1650  139.6230 N.ar      1 3E8        -0.2683
     35 C28       114.4610   23.3780  139.1070 C.3       1 3E8         0.0767
     36 C29       115.7710   22.6320  139.3750 C.3       1 3E8        -0.0032
     37 N34       117.5620   20.4320  139.8260 N.4       1 3E8         0.2331
     38 H1        107.5495   16.0142  142.7310 H         1 3E8         0.0701
     39 H2        108.7008   19.0506  139.9259 H         1 3E8         0.0665
     40 H3        110.6963   17.7260  139.3263 H         1 3E8         0.0631
     41 H4        111.0992   15.5110  140.3661 H         1 3E8         0.0688
     42 H5        106.4009   17.5359  143.7267 H         1 3E8         0.0401
     43 H6        104.5058   23.4002  141.2120 H         1 3E8         0.0575
     44 H7        107.5883   21.2777  139.1662 H         1 3E8         0.0580
     45 H8        106.0142   25.3263  141.4797 H         1 3E8         0.0605
     46 H9        108.3250   25.2161  140.6612 H         1 3E8         0.0586
     47 H10       112.3586   24.8319  139.4768 H         1 3E8         0.0868
     48 H11       111.6266   20.7957  138.3040 H         1 3E8         0.0868
     49 H12       115.3614   20.8661  138.1970 H         1 3E8         0.0320
     50 H13       116.0855   22.2269  137.2748 H         1 3E8         0.0320
     51 H14       115.4025   22.4830  141.5064 H         1 3E8         0.0320
     52 H15       114.9972   21.0010  140.5759 H         1 3E8         0.0320
     53 H16       118.2259   21.9577  138.5196 H         1 3E8         0.0814
     54 H17       117.7742   20.4132  137.7213 H         1 3E8         0.0814
     55 H18       117.0861   20.6353  141.8827 H         1 3E8         0.0814
     56 H19       117.8316   22.0846  141.1275 H         1 3E8         0.0814
     57 H20       119.2137   19.2791  139.1758 H         1 3E8         0.0777
     58 H21       118.9184   19.2561  140.9475 H         1 3E8         0.0777
     59 H22       119.6308   20.7127  140.1745 H         1 3E8         0.0777
     60 H23       106.9174   19.3980  139.9494 H         1 3E8         0.2009
     61 H24       105.1872   19.5727  144.1723 H         1 3E8         0.0611
     62 H25       104.1454   18.3277  143.4033 H         1 3E8         0.0611
     63 H26       103.9567   21.3567  140.0762 H         1 3E8         0.0709
     64 H27       105.1717   20.5356  139.0388 H         1 3E8         0.0709
     65 H28       114.1043   23.8071  140.0550 H         1 3E8         0.0621
     66 H29       114.6618   24.1880  138.3904 H         1 3E8         0.0621
     67 H30       116.5772   23.3758  139.4571 H         1 3E8         0.0331
     68 H31       116.9256   19.6522  139.7717 H         1 3E8         0.2030
@<TRIPOS>BOND
     1    1    2 ar 
     2    1    3 ar 
     3    7    1 1  
     4    2    4 ar 
     5    3    5 ar 
     6    4    6 ar 
     7    4   24 1  
     8    5    6 ar 
     9    7    8 2  
    10   26    7 1  
    11   29    8 1  
    12   27    9 am 
    13    9   28 2  
    14    9   29 1  
    15   12   10 ar 
    16   31   10 ar 
    17   13   11 ar 
    18   11   31 ar 
    19   14   12 ar 
    20   13   14 ar 
    21   32   13 1  
    22   17   15 ar 
    23   15   32 ar 
    24   33   16 ar 
    25   16   34 ar 
    26   33   17 ar 
    27   18   33 1  
    28   35   18 1  
    29   19   21 1  
    30   36   19 1  
    31   20   22 1  
    32   36   20 1  
    33   21   37 1  
    34   22   37 1  
    35   37   23 1  
    36   24   25 3  
    37   27   26 1  
    38   30   27 1  
    39   31   30 1  
    40   34   32 ar 
    41   35   36 1  
    42    2   38 1  
    43    3   39 1  
    44    5   40 1  
    45    6   41 1  
    46    8   42 1  
    47   10   43 1  
    48   11   44 1  
    49   12   45 1  
    50   14   46 1  
    51   16   47 1  
    52   17   48 1  
    53   19   49 1  
    54   19   50 1  
    55   20   51 1  
    56   20   52 1  
    57   21   53 1  
    58   21   54 1  
    59   22   55 1  
    60   22   56 1  
    61   23   57 1  
    62   23   58 1  
    63   23   59 1  
    64   26   60 1  
    65   29   61 1  
    66   29   62 1  
    67   30   63 1  
    68   30   64 1  
    69   35   65 1  
    70   35   66 1  
    71   36   67 1  
    72   37   68 1  
@<TRIPOS>SUBSTRUCTURE
     1 3E8         1

