### 
### Created by X-TOOL on Mon Sep 10 21:13:23 2018
### 

@<TRIPOS>MOLECULE
4r1y_ligand
   71    73     1     0     0
SMALL
GAST_HUCK


@<TRIPOS>ATOM
      1 C1        -20.1620   26.3890   99.1530 C.ar      1 3EH        -0.0278
      2 C2        -21.1390   25.6080   98.5380 C.ar      1 3EH        -0.0736
      3 C3        -20.4800   27.6920   99.5100 C.ar      1 3EH        -0.0344
      4 C4        -22.4090   26.1390   98.2930 C.ar      1 3EH        -0.0405
      5 C5        -21.7480   28.2220   99.2820 C.ar      1 3EH         0.1193
      6 C6        -22.7170   27.4470   98.6590 C.ar      1 3EH         0.1201
      7 C7        -16.4680   24.1890  100.0150 C.2       1 3EH         0.2836
      8 N10       -18.3380   24.9160   98.6320 N.2       1 3EH        -0.2007
      9 C11       -17.9410   26.4230  100.5330 C.3       1 3EH         0.0571
     10 C12       -18.8000   25.8610   99.4080 C.2       1 3EH         0.0473
     11 C15       -19.6010   20.7230   97.2880 C.ar      1 3EH         0.0613
     12 C16       -17.7370   19.6570   98.3620 C.ar      1 3EH        -0.0819
     13 C17       -18.8830   21.8990   97.2510 C.ar      1 3EH        -0.0382
     14 C18       -17.0280   20.8420   98.3060 C.ar      1 3EH        -0.0732
     15 C19       -17.5960   21.9720   97.7550 C.ar      1 3EH        -0.0276
     16 C24       -21.2510   30.4430  100.2980 C.3       1 3EH         0.0568
     17 O28       -23.0930   20.1370   96.2100 O.3       1 3EH        -0.2588
     18 C30       -25.4120   19.9860   97.0220 C.3       1 3EH         0.0153
     19 C31       -25.9670   21.0030   96.0240 C.3       1 3EH        -0.0295
     20 C33       -26.3960   23.3850   95.7500 C.3       1 3EH        -0.0348
     21 C34       -27.3830   23.2130   94.5820 C.3       1 3EH        -0.0245
     22 C35       -27.5930   22.1240   97.5060 C.3       1 3EH        -0.0348
     23 C36       -27.6970   23.1950   98.5990 C.3       1 3EH        -0.0245
     24 O27       -21.6530   18.6810   97.0830 O.2       1 3EH        -0.3669
     25 C26       -21.8710   19.8040   96.7110 C.2       1 3EH         0.3500
     26 C29       -24.2040   19.2690   96.4230 C.3       1 3EH         0.0826
     27 N32       -26.3410   22.2600   96.7200 N.4       1 3EH         0.2349
     28 N20       -20.9200   20.8000   96.7750 N.am      1 3EH        -0.2105
     29 C14       -19.0300   19.5920   97.8680 C.ar      1 3EH        -0.0482
     30 C13       -16.8590   23.3020   97.6660 C.3       1 3EH         0.0996
     31 N8        -17.0810   24.2780   98.7810 N.am      1 3EH        -0.1485
     32 S9        -17.0850   25.0880  101.3790 S.3       1 3EH        -0.0115
     33 O21       -15.5250   23.4390  100.1380 O.2       1 3EH        -0.3711
     34 O22       -22.0910   29.4980   99.6360 O.3       1 3EH        -0.3251
     35 O23       -23.9550   28.0100   98.4580 O.3       1 3EH        -0.3243
     36 C25       -24.8120   27.7610   97.3480 C.3       1 3EH         0.0572
     37 H1        -20.9139   24.5877   98.2493 H         1 3EH         0.0497
     38 H2        -19.7236   28.3121   99.9774 H         1 3EH         0.0497
     39 H3        -23.1626   25.5255   97.8126 H         1 3EH         0.0514
     40 H4        -18.5828   26.9560  101.2499 H         1 3EH         0.0560
     41 H5        -17.2019   27.1211  100.1130 H         1 3EH         0.0560
     42 H6        -17.2796   18.7744   98.7943 H         1 3EH         0.0561
     43 H7        -19.3352   22.7842   96.8186 H         1 3EH         0.0437
     44 H8        -16.0182   20.8838   98.6979 H         1 3EH         0.0431
     45 H9        -21.8035   31.3821  100.4489 H         1 3EH         0.0573
     46 H10       -20.3603   30.6365   99.6822 H         1 3EH         0.0573
     47 H11       -20.9418   30.0388  101.2732 H         1 3EH         0.0573
     48 H12       -26.1917   19.2478   97.2609 H         1 3EH         0.0343
     49 H13       -25.1067   20.5074   97.9412 H         1 3EH         0.0343
     50 H14       -26.8570   20.5815   95.5340 H         1 3EH         0.0815
     51 H15       -25.2006   21.2226   95.2662 H         1 3EH         0.0815
     52 H16       -26.6806   24.2930   96.3018 H         1 3EH         0.0812
     53 H17       -25.3895   23.5143   95.3254 H         1 3EH         0.0812
     54 H18       -27.3399   24.0994   93.9320 H         1 3EH         0.0281
     55 H19       -28.4029   23.0977   94.9777 H         1 3EH         0.0281
     56 H20       -27.1117   22.3190   94.0013 H         1 3EH         0.0281
     57 H21       -28.4526   22.2234   96.8268 H         1 3EH         0.0812
     58 H22       -27.6113   21.1305   97.9778 H         1 3EH         0.0812
     59 H23       -28.6355   23.0598   99.1566 H         1 3EH         0.0281
     60 H24       -27.6857   24.1931   98.1367 H         1 3EH         0.0281
     61 H25       -26.8445   23.1002   99.2876 H         1 3EH         0.0281
     62 H26       -23.8960   18.4667   97.1097 H         1 3EH         0.0613
     63 H27       -24.4984   18.8323   95.4573 H         1 3EH         0.0613
     64 H28       -25.6058   22.4679   97.3775 H         1 3EH         0.2033
     65 H29       -21.1960   21.6905   96.4133 H         1 3EH         0.2274
     66 H30       -19.5932   18.6680   97.9323 H         1 3EH         0.0447
     67 H31       -17.1682   23.7909   96.7304 H         1 3EH         0.0766
     68 H32       -15.7818   23.0826   97.6265 H         1 3EH         0.0766
     69 H33       -25.7341   28.3507   97.4572 H         1 3EH         0.0574
     70 H34       -25.0634   26.6907   97.3117 H         1 3EH         0.0574
     71 H35       -24.3005   28.0493   96.4179 H         1 3EH         0.0574
@<TRIPOS>BOND
     1    1    2 ar 
     2    1    3 ar 
     3   10    1 1  
     4    2    4 ar 
     5    3    5 ar 
     6    4    6 ar 
     7    5    6 ar 
     8    5   34 1  
     9    6   35 1  
    10   31    7 am 
    11    7   32 1  
    12    7   33 2  
    13    8   10 2  
    14   31    8 1  
    15   10    9 1  
    16   32    9 1  
    17   13   11 ar 
    18   11   28 1  
    19   11   29 ar 
    20   14   12 ar 
    21   12   29 ar 
    22   15   13 ar 
    23   15   14 ar 
    24   30   15 1  
    25   34   16 1  
    26   25   17 1  
    27   17   26 1  
    28   18   19 1  
    29   26   18 1  
    30   19   27 1  
    31   20   21 1  
    32   27   20 1  
    33   22   23 1  
    34   27   22 1  
    35   25   24 2  
    36   28   25 am 
    37   30   31 1  
    38   35   36 1  
    39    2   37 1  
    40    3   38 1  
    41    4   39 1  
    42    9   40 1  
    43    9   41 1  
    44   12   42 1  
    45   13   43 1  
    46   14   44 1  
    47   16   45 1  
    48   16   46 1  
    49   16   47 1  
    50   18   48 1  
    51   18   49 1  
    52   19   50 1  
    53   19   51 1  
    54   20   52 1  
    55   20   53 1  
    56   21   54 1  
    57   21   55 1  
    58   21   56 1  
    59   22   57 1  
    60   22   58 1  
    61   23   59 1  
    62   23   60 1  
    63   23   61 1  
    64   26   62 1  
    65   26   63 1  
    66   27   64 1  
    67   28   65 1  
    68   29   66 1  
    69   30   67 1  
    70   30   68 1  
    71   36   69 1  
    72   36   70 1  
    73   36   71 1  
@<TRIPOS>SUBSTRUCTURE
     1 3EH         1

