### 
### Created by X-TOOL on Mon Sep 10 21:13:20 2018
### 

@<TRIPOS>MOLECULE
4r3b_ligand
   36    35     1     0     0
SMALL
GAST_HUCK


@<TRIPOS>ATOM
      1 OAC         9.1870   34.1860    6.2020 O.3       1 3GE        -0.3945
      2 CAI         8.3060   33.8400    5.4150 C.3       1 3GE         0.0540
      3 CAN         7.6660   34.9380    4.6740 C.3       1 3GE         0.0453
      4 CAK         6.4330   34.6170    3.8710 C.3       1 3GE         0.0540
      5 OAG         5.3840   34.7360    4.8190 O.3       1 3GE        -0.3945
      6 CAJ         8.1470   36.2020    4.7600 C.3       1 3GE        -0.0249
      7 N           7.6180   37.1780    4.1470 N.4       1 3GE         0.2428
      8 CA          8.1390   38.5450    4.2500 C.3       1 3GE         0.0547
      9 C           9.4180   38.7420    3.4710 C.2       1 3GE         0.0867
     10 O           9.6480   38.0150    2.4810 O.co2     1 3GE        -0.5642
     11 OXT        10.2150   39.6290    3.8560 O.co2     1 3GE        -0.5642
     12 CB          7.0680   39.6510    4.0060 C.3       1 3GE         0.1333
     13 CG1         7.4550   40.6260    2.9010 C.3       1 3GE        -0.0335
     14 CG2         6.9720   40.4200    5.3150 C.3       1 3GE        -0.0335
     15 SAP         5.5340   39.0910    3.6240 S.o2      1 3GE        -0.0292
     16 OAE         5.0650   38.1570    4.6100 O.2       1 3GE        -0.1763
     17 OAF         5.5150   38.4610    2.3260 O.2       1 3GE        -0.1763
     18 H1          9.5433   33.4186    6.6341 H         1 3GE         0.2094
     19 H2          7.5265   33.3140    5.9856 H         1 3GE         0.0562
     20 H3          8.7535   33.1507    4.6839 H         1 3GE         0.0562
     21 H4          8.3056   34.7480    3.7995 H         1 3GE         0.0397
     22 H5          6.4825   33.5960    3.4646 H         1 3GE         0.0562
     23 H6          6.3021   35.3337    3.0469 H         1 3GE         0.0562
     24 H7          5.5270   34.1188    5.5270 H         1 3GE         0.2094
     25 H8          9.1906   36.1552    4.4155 H         1 3GE         0.0818
     26 H9          8.1248   36.4647    5.8279 H         1 3GE         0.0818
     27 H10         6.6601   37.2187    4.4581 H         1 3GE         0.2031
     28 H11         7.6435   36.9412    3.1676 H         1 3GE         0.2031
     29 H12         8.4272   38.6618    5.3051 H         1 3GE         0.1047
     30 H13         6.6606   41.3772    2.7801 H         1 3GE         0.0254
     31 H14         7.5871   40.0768    1.9571 H         1 3GE         0.0254
     32 H15         8.3966   41.1280    3.1681 H         1 3GE         0.0254
     33 H16         6.6930   39.7307    6.1256 H         1 3GE         0.0254
     34 H17         6.2082   41.2063    5.2232 H         1 3GE         0.0254
     35 H18         7.9453   40.8790    5.5429 H         1 3GE         0.0254
     36 H19         4.9071   39.8801    3.6059 H         1 3GE         0.2100
@<TRIPOS>BOND
     1    1    2 1  
     2    2    3 1  
     3    3    4 1  
     4    3    6 1  
     5    4    5 1  
     6    6    7 1  
     7    7    8 1  
     8    8    9 1  
     9    8   12 1  
    10    9   10 ar 
    11    9   11 ar 
    12   12   13 1  
    13   12   14 1  
    14   12   15 1  
    15   15   16 2  
    16   15   17 2  
    17    1   18 1  
    18    2   19 1  
    19    2   20 1  
    20    3   21 1  
    21    4   22 1  
    22    4   23 1  
    23    5   24 1  
    24    6   25 1  
    25    6   26 1  
    26    7   27 1  
    27    7   28 1  
    28    8   29 1  
    29   13   30 1  
    30   13   31 1  
    31   13   32 1  
    32   14   33 1  
    33   14   34 1  
    34   14   35 1  
    35   15   36 1  
@<TRIPOS>SUBSTRUCTURE
     1 3GE         1

