### 
### Created by X-TOOL on Mon Sep 10 21:13:23 2018
### 

@<TRIPOS>MOLECULE
4r3c_ligand
   53    57     1     0     0
SMALL
GAST_HUCK


@<TRIPOS>ATOM
      1 C29        68.4330   80.1880   25.9880 C.3       1 3GF        -0.0429
      2 N26        67.9910   79.3120   24.8900 N.4       1 3GF         0.2360
      3 C27        67.1760   78.2600   25.5120 C.3       1 3GF        -0.0105
      4 C28        66.4740   77.3430   24.5140 C.3       1 3GF         0.0746
      5 N18        66.1090   78.0090   23.2490 N.pl3     1 3GF        -0.2727
      6 C24        66.7720   79.2270   22.7690 C.3       1 3GF         0.0746
      7 C25        67.1620   80.0820   23.9620 C.3       1 3GF        -0.0105
      8 C14        65.1270   77.3960   22.4250 C.ar      1 3GF         0.1280
      9 C15        64.6210   76.1110   22.6580 C.ar      1 3GF         0.0265
     10 C16        63.6560   75.5680   21.8060 C.ar      1 3GF         0.0507
     11 C17        63.2170   74.1800   22.1230 C.ar      1 3GF         0.0195
     12 C19        63.2510   73.2000   21.1380 C.ar      1 3GF        -0.0219
     13 C20        62.8950   71.8960   21.4570 C.ar      1 3GF         0.0136
     14 N21        62.5520   71.5710   22.7160 N.ar      1 3GF        -0.2954
     15 C22        62.5140   72.4970   23.6870 C.ar      1 3GF         0.0136
     16 C23        62.8790   73.8110   23.4250 C.ar      1 3GF        -0.0219
     17 C11        63.2190   76.3050   20.6990 C.ar      1 3GF         0.0778
     18 N12        63.7320   77.5180   20.4860 N.ar      1 3GF        -0.2675
     19 N13        64.6850   78.0470   21.3460 N.ar      1 3GF        -0.2680
     20 C8         62.2240   75.8170   19.7140 C.ar      1 3GF         0.0161
     21 C7         62.6010   75.7750   18.3820 C.ar      1 3GF        -0.0343
     22 C6         61.7040   75.3340   17.4290 C.ar      1 3GF        -0.0098
     23 C5         62.0520   75.2630   16.0830 C.ar      1 3GF        -0.0508
     24 C4         61.1340   74.7900   15.1520 C.ar      1 3GF        -0.0589
     25 C3         59.8580   74.3820   15.5480 C.ar      1 3GF        -0.0591
     26 C2         59.4630   74.4400   16.8810 C.ar      1 3GF        -0.0516
     27 C1         60.3510   74.9000   17.8450 C.ar      1 3GF        -0.0142
     28 C10        60.0040   74.9670   19.1760 C.ar      1 3GF        -0.0504
     29 C9         60.9420   75.4260   20.1060 C.ar      1 3GF        -0.0459
     30 H1         69.0566   79.6124   26.6878 H         1 3GF         0.0778
     31 H2         67.5541   80.5821   26.5191 H         1 3GF         0.0778
     32 H3         69.0185   81.0237   25.5773 H         1 3GF         0.0778
     33 H4         68.7811   78.9156   24.4056 H         1 3GF         0.2032
     34 H5         66.4095   78.7412   26.1372 H         1 3GF         0.0835
     35 H6         67.8317   77.6440   26.1449 H         1 3GF         0.0835
     36 H7         65.5552   76.9597   24.9819 H         1 3GF         0.0584
     37 H8         67.1456   76.5031   24.2826 H         1 3GF         0.0584
     38 H9         66.0842   79.7902   22.1211 H         1 3GF         0.0584
     39 H10        67.6732   78.9561   22.1994 H         1 3GF         0.0584
     40 H11        67.7277   80.9577   23.6112 H         1 3GF         0.0835
     41 H12        66.2519   80.4172   24.4810 H         1 3GF         0.0835
     42 H13        64.9798   75.5350   23.5033 H         1 3GF         0.0856
     43 H14        63.5533   73.4517   20.1279 H         1 3GF         0.0740
     44 H15        62.8936   71.1346   20.6854 H         1 3GF         0.0828
     45 H16        62.1956   72.2166   24.6845 H         1 3GF         0.0828
     46 H17        62.9010   74.5427   24.2245 H         1 3GF         0.0740
     47 H18        63.5967   76.0872   18.0885 H         1 3GF         0.0711
     48 H19        63.0384   75.5764   15.7608 H         1 3GF         0.0642
     49 H20        61.4120   74.7372   14.1056 H         1 3GF         0.0624
     50 H21        59.1624   74.0133   14.8028 H         1 3GF         0.0635
     51 H22        58.4651   74.1271   17.1663 H         1 3GF         0.0629
     52 H23        59.0138   74.6670   19.4995 H         1 3GF         0.0629
     53 H24        60.6682   75.4794   21.1535 H         1 3GF         0.0652
@<TRIPOS>BOND
     1    1    2 1  
     2    2    3 1  
     3    2    7 1  
     4    3    4 1  
     5    4    5 1  
     6    5    6 1  
     7    5    8 1  
     8    6    7 1  
     9    8    9 ar 
    10    8   19 ar 
    11    9   10 ar 
    12   10   11 1  
    13   10   17 ar 
    14   11   12 ar 
    15   11   16 ar 
    16   12   13 ar 
    17   13   14 ar 
    18   14   15 ar 
    19   15   16 ar 
    20   17   18 ar 
    21   17   20 1  
    22   18   19 ar 
    23   20   21 ar 
    24   20   29 ar 
    25   21   22 ar 
    26   22   23 ar 
    27   22   27 ar 
    28   23   24 ar 
    29   24   25 ar 
    30   25   26 ar 
    31   26   27 ar 
    32   27   28 ar 
    33   28   29 ar 
    34    1   30 1  
    35    1   31 1  
    36    1   32 1  
    37    2   33 1  
    38    3   34 1  
    39    3   35 1  
    40    4   36 1  
    41    4   37 1  
    42    6   38 1  
    43    6   39 1  
    44    7   40 1  
    45    7   41 1  
    46    9   42 1  
    47   12   43 1  
    48   13   44 1  
    49   15   45 1  
    50   16   46 1  
    51   21   47 1  
    52   23   48 1  
    53   24   49 1  
    54   25   50 1  
    55   26   51 1  
    56   28   52 1  
    57   29   53 1  
@<TRIPOS>SUBSTRUCTURE
     1 3GF         1

