### 
### Created by X-TOOL on Mon Sep 10 21:13:16 2018
### 

@<TRIPOS>MOLECULE
4r4c_ligand
   57    61     1     0     0
SMALL
GAST_HUCK


@<TRIPOS>ATOM
      1 C10         4.4690    9.3950   22.7120 C.ar      1 3HS         0.0473
      2 C13         3.9000   11.1190   24.2780 C.ar      1 3HS        -0.0243
      3 C15         7.0910   13.3490   24.9900 C.ar      1 3HS         0.0062
      4 C17         9.4650   13.5730   25.3010 C.ar      1 3HS        -0.0570
      5 C21        12.3030   10.9670   24.2680 C.2       1 3HS         0.2044
      6 C22        13.4310   11.2630   23.3200 C.ar      1 3HS         0.0602
      7 C24        15.5840   10.6890   22.4100 C.ar      1 3HS        -0.0492
      8 C26        16.5910   12.1280   20.6110 C.2       1 3HS         0.1275
      9 C28        18.4450   12.2060   19.3390 C.2       1 3HS        -0.0431
     10 O01         3.6680   17.7180   24.7280 O.co2     1 3HS        -0.5608
     11 C02         3.2420   16.6410   24.2390 C.2       1 3HS         0.0683
     12 C03         4.0960   15.4260   24.2680 C.2       1 3HS         0.0697
     13 N04         3.7630   14.2380   23.7870 N.2       1 3HS        -0.1868
     14 N05         4.7420   13.3790   23.9730 N.pl3     1 3HS        -0.1543
     15 C06         4.6570   12.0200   23.5460 C.ar      1 3HS         0.1132
     16 C07         5.3160   11.6140   22.3940 C.ar      1 3HS        -0.0106
     17 C08         5.2250   10.2990   21.9770 C.ar      1 3HS         0.0508
     18 CL1         6.0510    9.8050   20.5370 Cl        1 3HS        -0.0717
     19 CL2         4.3380    7.7470   22.2090 Cl        1 3HS        -0.0761
     20 C12         3.8080    9.8030   23.8610 C.ar      1 3HS        -0.0511
     21 C14         5.7750   13.9620   24.5820 C.2       1 3HS         0.1055
     22 C16         8.2450   14.1150   24.9160 C.ar      1 3HS        -0.0574
     23 C18         9.5290   12.2650   25.7670 C.ar      1 3HS        -0.0201
     24 C19        10.8610   11.6960   26.1850 C.3       1 3HS         0.0643
     25 N20        11.9570   11.9390   25.2730 N.am      1 3HS        -0.2752
     26 C23        14.5380   10.4280   23.2850 C.ar      1 3HS        -0.0443
     27 C25        15.5080   11.7920   21.5730 C.ar      1 3HS         0.0153
     28 C27        17.7830   11.4390   20.3590 C.2       1 3HS        -0.0469
     29 C29        17.5840   13.2790   19.0780 C.2       1 3HS         0.1511
     30 C30        17.7620   14.3910   18.1070 C.2       1 3HS         0.0941
     31 O31        18.7560   14.4200   17.3310 O.co2     1 3HS        -0.5604
     32 O32        16.8860   15.2920   18.0840 O.co2     1 3HS        -0.5604
     33 O33        16.5330   13.1800   19.8390 O.3       1 3HS        -0.2471
     34 C34        14.4050   12.6260   21.6020 C.ar      1 3HS        -0.0353
     35 C35        13.3600   12.3700   22.4720 C.ar      1 3HS         0.0579
     36 CL3        12.0030   13.4510   22.4660 Cl        1 3HS        -0.0658
     37 O37        11.6700    9.9240   24.1820 O.2       1 3HS        -0.3864
     38 C38         8.3770   11.4970   25.8460 C.ar      1 3HS        -0.0570
     39 C39         7.1550   12.0420   25.4650 C.ar      1 3HS        -0.0574
     40 C40         5.4060   15.3170   24.8100 C.2       1 3HS        -0.0255
     41 O41         2.1010   16.5800   23.7150 O.co2     1 3HS        -0.5608
     42 H           3.3823   11.4439   25.1733 H         1 3HS         0.0591
     43 H          10.3673   14.1704   25.2379 H         1 3HS         0.0561
     44 H          16.4502   10.0379   22.3815 H         1 3HS         0.0614
     45 H          19.4062   11.9979   18.8714 H         1 3HS         0.0424
     46 H           5.9005   12.3261   21.8227 H         1 3HS         0.0595
     47 H           3.2206    9.0924   24.4311 H         1 3HS         0.0607
     48 H           8.1950   15.1368   24.5577 H         1 3HS         0.0608
     49 H          10.7454   10.6075   26.2931 H         1 3HS         0.0687
     50 H          11.1265   12.1350   27.1580 H         1 3HS         0.0687
     51 H          12.4791   12.7892   25.3408 H         1 3HS         0.1870
     52 H          14.5867    9.5682   23.9434 H         1 3HS         0.0659
     53 H          18.1325   10.5225   20.8321 H         1 3HS         0.0411
     54 H          14.3591   13.4836   20.9405 H         1 3HS         0.0619
     55 H           8.4285   10.4750   26.2036 H         1 3HS         0.0561
     56 H           6.2512   11.4480   25.5381 H         1 3HS         0.0608
     57 H           5.9949   16.0961   25.2917 H         1 3HS         0.0384
@<TRIPOS>BOND
     1   17    1 ar 
     2    1   19 1  
     3   20    1 ar 
     4   15    2 ar 
     5    2   20 ar 
     6    3   21 1  
     7   22    3 ar 
     8    3   39 ar 
     9    4   22 ar 
    10   23    4 ar 
    11    5    6 1  
    12   25    5 am 
    13    5   37 2  
    14    6   26 ar 
    15    6   35 ar 
    16   26    7 ar 
    17    7   27 ar 
    18   27    8 1  
    19    8   28 2  
    20    8   33 1  
    21   28    9 1  
    22    9   29 2  
    23   11   10 ar 
    24   12   11 1  
    25   11   41 ar 
    26   12   13 2  
    27   40   12 1  
    28   14   13 1  
    29   14   15 1  
    30   21   14 1  
    31   15   16 ar 
    32   16   17 ar 
    33   17   18 1  
    34   21   40 2  
    35   24   23 1  
    36   23   38 ar 
    37   24   25 1  
    38   27   34 ar 
    39   29   30 1  
    40   29   33 1  
    41   30   31 ar 
    42   30   32 ar 
    43   34   35 ar 
    44   35   36 1  
    45   38   39 ar 
    46    2   42 1  
    47    4   43 1  
    48    7   44 1  
    49    9   45 1  
    50   16   46 1  
    51   20   47 1  
    52   22   48 1  
    53   24   49 1  
    54   24   50 1  
    55   25   51 1  
    56   26   52 1  
    57   28   53 1  
    58   34   54 1  
    59   38   55 1  
    60   39   56 1  
    61   40   57 1  
@<TRIPOS>SUBSTRUCTURE
     1 3HS         1

