### 
### Created by X-TOOL on Mon Sep 10 21:13:17 2018
### 

@<TRIPOS>MOLECULE
4r4i_ligand
   59    64     1     0     0
SMALL
GAST_HUCK


@<TRIPOS>ATOM
      1 C10        17.1210   13.3210   19.4170 C.2       1 3HV         0.1512
      2 C15        14.9350   10.6420   22.5100 C.ar      1 3HV        -0.0566
      3 C17        12.3990   13.7410   23.8510 C.2       1 3HV        -0.0388
      4 C20        10.2800   12.0230   26.3740 C.3       1 3HV         0.1042
      5 C21         8.9530   12.5620   25.9000 C.ar      1 3HV        -0.0086
      6 C22         8.2710   11.8710   24.9270 C.ar      1 3HV        -0.0560
      7 C24         8.4160   13.7310   26.4390 C.ar      1 3HV        -0.0560
      8 C26         6.4830   13.5250   25.0130 C.ar      1 3HV         0.0062
      9 C28         4.6690   15.4030   24.6630 C.2       1 3HV        -0.0255
     10 S01        12.0280    9.6310   25.4990 S.2       1 3HV        -0.2948
     11 C02        12.1260   11.1860   24.9120 C.2       1 3HV         0.1011
     12 C03        13.1140   11.4330   23.9250 C.ar      1 3HV         0.0235
     13 C04        13.2520   12.7040   23.3920 C.ar      1 3HV        -0.0323
     14 C05        14.2320   12.9530   22.4100 C.ar      1 3HV        -0.0545
     15 C06        15.0600   11.9180   21.9810 C.ar      1 3HV         0.0066
     16 C07        16.1050   12.1990   20.9280 C.2       1 3HV         0.1258
     17 C08        17.1840   11.3900   20.5290 C.2       1 3HV        -0.0469
     18 C09        17.8670   12.1370   19.5010 C.2       1 3HV        -0.0429
     19 C11        17.3310   14.4850   18.5270 C.2       1 3HV         0.0942
     20 O12        18.3520   14.5810   17.8010 O.co2     1 3HV        -0.5603
     21 O13        16.4270   15.3520   18.5580 O.co2     1 3HV        -0.5603
     22 O14        16.1110   13.3040   20.2420 O.3       1 3HV        -0.2471
     23 C16        13.9650   10.3880   23.4740 C.ar      1 3HV        -0.0535
     24 C18        11.4520   13.4250   24.8270 C.2       1 3HV         0.0648
     25 N19        11.3110   12.1880   25.3420 N.am      1 3HV        -0.2138
     26 C23         7.0550   12.3570   24.4900 C.ar      1 3HV        -0.0573
     27 C25         7.1840   14.2170   25.9960 C.ar      1 3HV        -0.0573
     28 C27         5.1460   14.0610   24.5270 C.2       1 3HV         0.1055
     29 C29         3.3780   15.4170   24.0510 C.2       1 3HV         0.0697
     30 C30         2.4380   16.5800   23.9170 C.2       1 3HV         0.0683
     31 O31         1.3180   16.3950   23.3790 O.co2     1 3HV        -0.5608
     32 O32         2.7540   17.7300   24.3320 O.co2     1 3HV        -0.5608
     33 N33         3.1450   14.1930   23.5980 N.2       1 3HV        -0.1868
     34 N34         4.1710   13.4070   23.8860 N.pl3     1 3HV        -0.1543
     35 C35         4.2300   12.0080   23.5340 C.ar      1 3HV         0.1132
     36 C36         3.6990   11.0460   24.3730 C.ar      1 3HV        -0.0243
     37 C37         3.7850    9.7080   24.0210 C.ar      1 3HV        -0.0511
     38 C38         4.4070    9.3400   22.8380 C.ar      1 3HV         0.0473
     39 CL3         4.4650    7.6560   22.4730 Cl        1 3HV        -0.0761
     40 C40         4.9590   10.3140   22.0050 C.ar      1 3HV         0.0508
     41 CL4         5.7630    9.9800   20.5100 Cl        1 3HV        -0.0717
     42 C42         4.8530   11.6420   22.3570 C.ar      1 3HV        -0.0106
     43 H          15.5901    9.8465   22.1738 H         1 3HV         0.0554
     44 H          12.4805   14.7519   23.4543 H         1 3HV         0.0352
     45 H          10.1718   10.9535   26.6072 H         1 3HV         0.0824
     46 H          10.5868   12.5666   27.2797 H         1 3HV         0.0824
     47 H           8.6815   10.9588   24.5094 H         1 3HV         0.0562
     48 H           8.9597   14.2670   27.2085 H         1 3HV         0.0562
     49 H           5.1828   16.2394   25.1346 H         1 3HV         0.0384
     50 H          14.3410   13.9464   21.9900 H         1 3HV         0.0535
     51 H          17.4483   10.4066   20.9149 H         1 3HV         0.0413
     52 H          18.7483   11.8506   18.9290 H         1 3HV         0.0424
     53 H          13.8578    9.3897   23.8826 H         1 3HV         0.0638
     54 H          10.7964   14.2156   25.1891 H         1 3HV         0.1183
     55 H           6.5238   11.8163   23.7151 H         1 3HV         0.0608
     56 H           6.7756   15.1291   26.4159 H         1 3HV         0.0608
     57 H           3.2184   11.3362   25.3003 H         1 3HV         0.0591
     58 H           3.3656    8.9489   24.6713 H         1 3HV         0.0607
     59 H           5.2618   12.4054   21.7050 H         1 3HV         0.0595
@<TRIPOS>BOND
     1    1   18 2  
     2    1   19 1  
     3   22    1 1  
     4   15    2 ar 
     5    2   23 ar 
     6   13    3 1  
     7    3   24 2  
     8    4    5 1  
     9   25    4 1  
    10    5    6 ar 
    11    5    7 ar 
    12    6   26 ar 
    13    7   27 ar 
    14   26    8 ar 
    15   27    8 ar 
    16    8   28 1  
    17   28    9 2  
    18    9   29 1  
    19   11   10 2  
    20   12   11 1  
    21   11   25 am 
    22   13   12 ar 
    23   23   12 ar 
    24   14   13 ar 
    25   15   14 ar 
    26   16   15 1  
    27   16   17 2  
    28   16   22 1  
    29   17   18 1  
    30   19   20 ar 
    31   19   21 ar 
    32   24   25 1  
    33   28   34 1  
    34   29   30 1  
    35   29   33 2  
    36   30   31 ar 
    37   30   32 ar 
    38   33   34 1  
    39   34   35 1  
    40   35   36 ar 
    41   35   42 ar 
    42   36   37 ar 
    43   37   38 ar 
    44   38   39 1  
    45   38   40 ar 
    46   40   41 1  
    47   40   42 ar 
    48    2   43 1  
    49    3   44 1  
    50    4   45 1  
    51    4   46 1  
    52    6   47 1  
    53    7   48 1  
    54    9   49 1  
    55   14   50 1  
    56   17   51 1  
    57   18   52 1  
    58   23   53 1  
    59   24   54 1  
    60   26   55 1  
    61   27   56 1  
    62   36   57 1  
    63   37   58 1  
    64   42   59 1  
@<TRIPOS>SUBSTRUCTURE
     1 3HV         1

