### 
### Created by X-TOOL on Mon Sep 10 21:13:16 2018
### 

@<TRIPOS>MOLECULE
4r4o_ligand
   57    61     1     0     0
SMALL
GAST_HUCK


@<TRIPOS>ATOM
      1 C10        -4.8660    9.3380    3.6980 C.ar      1 3HW         0.0474
      2 C13        -5.2760   10.9820    2.0140 C.ar      1 3HW        -0.0240
      3 C15        -1.8990   11.2930   -0.0260 C.ar      1 3HW         0.0165
      4 C17         0.4890   11.0600   -0.1060 C.ar      1 3HW        -0.0437
      5 C21         4.1600   12.1530    2.0340 C.3       1 3HW         0.0684
      6 C22         4.9360   10.9010    1.7940 C.ar      1 3HW        -0.0196
      7 C24         6.8060    9.5320    2.4160 C.ar      1 3HW        -0.0594
      8 C26         7.3140    7.4240    1.2190 C.2       1 3HW         0.1204
      9 C28         8.8360    5.7740    1.3890 C.2       1 3HW        -0.0473
     10 O01        -6.9160   11.2890   -3.4150 O.co2     1 3HW        -0.5607
     11 C02        -5.6930   11.5890   -3.4390 C.2       1 3HW         0.0693
     12 C03        -4.8710   11.3550   -2.2230 C.2       1 3HW         0.0742
     13 N04        -5.3250   10.8360   -1.0950 N.2       1 3HW        -0.1820
     14 N05        -4.3510   10.7520   -0.2120 N.pl3     1 3HW        -0.1507
     15 C06        -4.5220   10.2500    1.1120 C.ar      1 3HW         0.1143
     16 C07        -3.9280    9.0620    1.5020 C.ar      1 3HW        -0.0103
     17 C08        -4.1050    8.6120    2.7980 C.ar      1 3HW         0.0509
     18 CL0        -3.3750    7.1240    3.2740 Cl        1 3HW        -0.0716
     19 CL1        -5.1030    8.7860    5.3140 Cl        1 3HW        -0.0760
     20 C12        -5.4510   10.5260    3.3080 C.ar      1 3HW        -0.0509
     21 C14        -3.2150   11.2300   -0.7130 C.2       1 3HW         0.1131
     22 C16        -0.7440   11.0070   -0.7380 C.ar      1 3HW        -0.0462
     23 C18         0.5580   11.3960    1.2380 C.ar      1 3HW         0.0252
     24 C19         1.8660   11.4500    1.9390 C.2       1 3HW         0.0808
     25 N20         2.8590   12.3650    1.4660 N.am      1 3HW        -0.2879
     26 C23         6.0370   10.6660    2.6000 C.ar      1 3HW        -0.0586
     27 C25         6.4690    8.6240    1.4270 C.ar      1 3HW         0.0056
     28 C27         8.2900    6.9060    2.0780 C.2       1 3HW        -0.0514
     29 C29         8.1320    5.7130    0.1820 C.2       1 3HW         0.1473
     30 C30         8.2790    4.7490   -0.9330 C.2       1 3HW         0.0915
     31 O31         9.2390    3.9340   -0.9710 O.co2     1 3HW        -0.5613
     32 O32         7.4150    4.7820   -1.8480 O.co2     1 3HW        -0.5613
     33 O33         7.2820    6.6970    0.1390 O.3       1 3HW        -0.2508
     34 C34         5.3800    8.8610    0.6000 C.ar      1 3HW        -0.0594
     35 C35         4.6070   10.0010    0.7840 C.ar      1 3HW        -0.0586
     36 S36         1.9450   10.7890    3.4650 S.2       1 3HW        -0.2545
     37 C37        -0.5930   11.6740    1.9500 C.ar      1 3HW        -0.0437
     38 C38        -1.8200   11.6320    1.3170 C.ar      1 3HW        -0.0462
     39 C39        -3.4880   11.6360   -2.0490 C.2       1 3HW        -0.0207
     40 O40        -5.1620   12.0660   -4.4740 O.co2     1 3HW        -0.5607
     41 H          -5.7308   11.9161    1.7046 H         1 3HW         0.0592
     42 H           1.3946   10.8399   -0.6596 H         1 3HW         0.0671
     43 H           4.7907   12.9793    1.6743 H         1 3HW         0.0709
     44 H           4.0363   12.2338    3.1240 H         1 3HW         0.0709
     45 H           7.6709    9.3543    3.0448 H         1 3HW         0.0593
     46 H           9.6263    5.1071    1.7306 H         1 3HW         0.0413
     47 H          -3.3311    8.4910    0.8000 H         1 3HW         0.0596
     48 H          -6.0442   11.0983    4.0120 H         1 3HW         0.0607
     49 H          -0.8050   10.7423   -1.7874 H         1 3HW         0.0631
     50 H           2.6645   13.0859    0.8008 H         1 3HW         0.1996
     51 H           6.2971   11.3741    3.3785 H         1 3HW         0.0557
     52 H           8.5738    7.2824    3.0597 H         1 3HW         0.0378
     53 H           5.1330    8.1584   -0.1877 H         1 3HW         0.0593
     54 H           3.7522   10.1886    0.1444 H         1 3HW         0.0557
     55 H          -0.5332   11.9245    3.0030 H         1 3HW         0.0671
     56 H          -2.7227   11.8643    1.8705 H         1 3HW         0.0631
     57 H          -2.7960   12.0641   -2.7728 H         1 3HW         0.0419
@<TRIPOS>BOND
     1   17    1 ar 
     2    1   19 1  
     3   20    1 ar 
     4   15    2 ar 
     5    2   20 ar 
     6    3   21 1  
     7   22    3 ar 
     8    3   38 ar 
     9    4   22 ar 
    10   23    4 ar 
    11    5    6 1  
    12   25    5 1  
    13    6   26 ar 
    14    6   35 ar 
    15   26    7 ar 
    16    7   27 ar 
    17   27    8 1  
    18    8   28 2  
    19    8   33 1  
    20   28    9 1  
    21    9   29 2  
    22   11   10 ar 
    23   12   11 1  
    24   11   40 ar 
    25   12   13 2  
    26   39   12 1  
    27   14   13 1  
    28   14   15 1  
    29   21   14 1  
    30   15   16 ar 
    31   16   17 ar 
    32   17   18 1  
    33   21   39 2  
    34   24   23 1  
    35   23   37 ar 
    36   24   25 am 
    37   24   36 2  
    38   27   34 ar 
    39   29   30 1  
    40   29   33 1  
    41   30   31 ar 
    42   30   32 ar 
    43   34   35 ar 
    44   37   38 ar 
    45    2   41 1  
    46    4   42 1  
    47    5   43 1  
    48    5   44 1  
    49    7   45 1  
    50    9   46 1  
    51   16   47 1  
    52   20   48 1  
    53   22   49 1  
    54   25   50 1  
    55   26   51 1  
    56   28   52 1  
    57   34   53 1  
    58   35   54 1  
    59   37   55 1  
    60   38   56 1  
    61   39   57 1  
@<TRIPOS>SUBSTRUCTURE
     1 3HW         1

