### 
### Created by X-TOOL on Mon Sep 10 21:13:16 2018
### 

@<TRIPOS>MOLECULE
4r4q_ligand
   63    67     1     0     0
SMALL
GAST_HUCK


@<TRIPOS>ATOM
      1 C10         5.0400    9.2080   22.9420 C.ar      1 3HZ         0.0473
      2 C13         4.6120   10.8940   24.6580 C.ar      1 3HZ        -0.0243
      3 C15         7.8200   13.3990   24.8010 C.ar      1 3HZ         0.0062
      4 C17        10.2450   13.6490   24.6220 C.ar      1 3HZ        -0.0570
      5 C21        12.5310    9.5450   25.7730 C.2       1 3HZ         0.1791
      6 C22        12.7010    9.8340   27.2580 C.3       1 3HZ         0.0261
      7 C24        11.9520   10.3320   23.5370 C.3       1 3HZ         0.0694
      8 C26        14.2490    9.9380   22.8150 C.ar      1 3HZ        -0.0588
      9 C28        15.3760   11.4250   21.2310 C.ar      1 3HZ         0.0056
     10 O01         3.9780   17.3990   24.9870 O.co2     1 3HZ        -0.5608
     11 C02         3.6640   16.3130   24.5880 C.2       1 3HZ         0.0683
     12 C03         4.6420   15.1950   24.5460 C.2       1 3HZ         0.0697
     13 N04         4.3220   13.9940   24.1560 N.2       1 3HZ        -0.1868
     14 N05         5.3580   13.2170   24.2140 N.pl3     1 3HZ        -0.1543
     15 C06         5.2930   11.8750   23.8040 C.ar      1 3HZ         0.1132
     16 C07         5.7970   11.5140   22.6370 C.ar      1 3HZ        -0.0106
     17 C08         5.6520   10.1050   22.1820 C.ar      1 3HZ         0.0508
     18 CL0         6.3440    9.6450   20.6590 Cl        1 3HZ        -0.0717
     19 CL1         4.8620    7.5470   22.4980 Cl        1 3HZ        -0.0761
     20 C12         4.5080    9.6350   24.2490 C.ar      1 3HZ        -0.0511
     21 C14         6.4330   13.9320   24.6070 C.2       1 3HZ         0.1055
     22 C16         8.8660   14.1560   24.4500 C.ar      1 3HZ        -0.0574
     23 C18        10.4490   12.4000   25.1270 C.ar      1 3HZ        -0.0196
     24 C19        11.8850   11.9070   25.3350 C.3       1 3HZ         0.0701
     25 N20        12.1070   10.5800   24.8890 N.am      1 3HZ        -0.2507
     26 O23        12.7340    8.4500   25.3100 O.2       1 3HZ        -0.3969
     27 C25        13.1530   10.7100   22.7610 C.ar      1 3HZ        -0.0212
     28 C27        15.4260   10.3110   21.9740 C.ar      1 3HZ        -0.0594
     29 C29        16.4840   11.8410   20.3640 C.2       1 3HZ         0.1204
     30 C30        17.6730   11.2120   20.0780 C.2       1 3HZ        -0.0514
     31 C31        18.3310   11.9870   19.1590 C.2       1 3HZ        -0.0473
     32 C32        17.5100   13.0320   18.9130 C.2       1 3HZ         0.1473
     33 C33        17.7170   14.1670   17.9910 C.2       1 3HZ         0.0915
     34 O34        18.6740   14.1700   17.2800 O.co2     1 3HZ        -0.5613
     35 O35        16.8280   15.0110   18.0420 O.co2     1 3HZ        -0.5613
     36 O36        16.3740   12.9660   19.6210 O.3       1 3HZ        -0.2508
     37 C37        14.1400   12.2630   21.1600 C.ar      1 3HZ        -0.0594
     38 C38        13.1060   11.9190   21.8860 C.ar      1 3HZ        -0.0588
     39 C39         9.2880   11.5600   25.5110 C.ar      1 3HZ        -0.0570
     40 C40         8.0330   12.0150   25.3340 C.ar      1 3HZ        -0.0574
     41 C41         6.0230   15.2070   24.8630 C.2       1 3HZ        -0.0255
     42 O42         2.5520   16.0830   24.1790 O.co2     1 3HZ        -0.5608
     43 H           4.1979   11.1947   25.6136 H         1 3HZ         0.0591
     44 H          11.0905   14.2691   24.3472 H         1 3HZ         0.0561
     45 H          13.0313    8.9203   27.7739 H         1 3HZ         0.0467
     46 H          11.7407   10.1661   27.6792 H         1 3HZ         0.0467
     47 H          13.4540   10.6243   27.3939 H         1 3HZ         0.0467
     48 H          11.0934   10.9111   23.1662 H         1 3HZ         0.0688
     49 H          11.7600    9.2585   23.3930 H         1 3HZ         0.0688
     50 H          14.2798    9.0633   23.4545 H         1 3HZ         0.0557
     51 H           6.3118   12.2385   22.0164 H         1 3HZ         0.0595
     52 H           4.0224    8.9069   24.8886 H         1 3HZ         0.0607
     53 H           8.7022   15.1451   24.0378 H         1 3HZ         0.0608
     54 H          12.1152   11.9542   26.4096 H         1 3HZ         0.0692
     55 H          12.5637   12.5753   24.7849 H         1 3HZ         0.0692
     56 H          16.3120    9.6865   21.9649 H         1 3HZ         0.0593
     57 H          18.0258   10.2733   20.5025 H         1 3HZ         0.0378
     58 H          19.3096   11.8001   18.7194 H         1 3HZ         0.0413
     59 H          14.1006   13.1375   20.5206 H         1 3HZ         0.0593
     60 H          12.2043   12.5197   21.8513 H         1 3HZ         0.0557
     61 H           9.4506   10.5760   25.9358 H         1 3HZ         0.0561
     62 H           7.1842   11.3854   25.5751 H         1 3HZ         0.0608
     63 H           6.6195   16.0421   25.2272 H         1 3HZ         0.0384
@<TRIPOS>BOND
     1   17    1 ar 
     2    1   19 1  
     3   20    1 ar 
     4   15    2 ar 
     5    2   20 ar 
     6    3   21 1  
     7   22    3 ar 
     8    3   40 ar 
     9    4   22 ar 
    10   23    4 ar 
    11    5    6 1  
    12   25    5 am 
    13    5   26 2  
    14   25    7 1  
    15    7   27 1  
    16   27    8 ar 
    17    8   28 ar 
    18   28    9 ar 
    19    9   29 1  
    20    9   37 ar 
    21   11   10 ar 
    22   12   11 1  
    23   11   42 ar 
    24   12   13 2  
    25   41   12 1  
    26   14   13 1  
    27   14   15 1  
    28   21   14 1  
    29   15   16 ar 
    30   16   17 ar 
    31   17   18 1  
    32   21   41 2  
    33   24   23 1  
    34   23   39 ar 
    35   24   25 1  
    36   27   38 ar 
    37   29   30 2  
    38   29   36 1  
    39   30   31 1  
    40   31   32 2  
    41   32   33 1  
    42   32   36 1  
    43   33   34 ar 
    44   33   35 ar 
    45   37   38 ar 
    46   39   40 ar 
    47    2   43 1  
    48    4   44 1  
    49    6   45 1  
    50    6   46 1  
    51    6   47 1  
    52    7   48 1  
    53    7   49 1  
    54    8   50 1  
    55   16   51 1  
    56   20   52 1  
    57   22   53 1  
    58   24   54 1  
    59   24   55 1  
    60   28   56 1  
    61   30   57 1  
    62   31   58 1  
    63   37   59 1  
    64   38   60 1  
    65   39   61 1  
    66   40   62 1  
    67   41   63 1  
@<TRIPOS>SUBSTRUCTURE
     1 3HZ         1

