### 
### Created by X-TOOL on Mon Sep 10 21:13:16 2018
### 

@<TRIPOS>MOLECULE
4r4t_ligand
   57    61     1     0     0
SMALL
GAST_HUCK


@<TRIPOS>ATOM
      1 C10         4.9200    8.3670    0.6200 C.ar      1 3J0        -0.0484
      2 C13         4.9030    9.7340    3.0510 C.ar      1 3J0        -0.0457
      3 C15         2.7990   10.9510    2.4060 C.2       1 3J0         0.0791
      4 C20        -1.1320   12.2840    1.8140 C.ar      1 3J0        -0.0568
      5 C21        -2.3600   11.8780    1.2800 C.ar      1 3J0        -0.0574
      6 C22        -2.4110   11.4000   -0.0370 C.ar      1 3J0         0.0062
      7 C24        -0.0250   11.7640   -0.3040 C.ar      1 3J0        -0.0568
      8 C26        -4.0940   11.1820   -1.9700 C.2       1 3J0        -0.0255
      9 O01         9.1490    3.9270   -1.0270 O.co2     1 3J0        -0.5602
     10 C02         8.1470    4.6650   -0.9890 C.2       1 3J0         0.0945
     11 C03         7.9520    5.6310    0.1460 C.2       1 3J0         0.1517
     12 O04         7.2470    4.6480   -1.8730 O.co2     1 3J0        -0.5602
     13 C05         8.7790    5.8270    1.2660 C.2       1 3J0        -0.0424
     14 C06         8.1180    6.8700    2.0300 C.2       1 3J0        -0.0462
     15 C07         6.9640    7.1830    1.2670 C.2       1 3J0         0.1283
     16 O08         6.9010    6.4290    0.2010 O.3       1 3J0        -0.2466
     17 C09         5.9040    8.1640    1.5600 C.ar      1 3J0         0.0157
     18 C11         3.9000    9.2880    0.8940 C.ar      1 3J0        -0.0457
     19 C12         3.9130    9.9540    2.0980 C.ar      1 3J0         0.0232
     20 C14         5.9010    8.8280    2.7850 C.ar      1 3J0        -0.0484
     21 N16         2.4700   11.8420    1.3390 N.am      1 3J0        -0.2880
     22 S17         1.8890   10.7520    3.7850 S.2       1 3J0        -0.2567
     23 C18         1.2830   12.6860    1.6370 C.3       1 3J0         0.0691
     24 C19         0.0210   12.2380    1.0320 C.ar      1 3J0        -0.0179
     25 C23        -1.2530   11.3550   -0.8390 C.ar      1 3J0        -0.0574
     26 C25        -3.7400   10.9780   -0.6330 C.2       1 3J0         0.1055
     27 C27        -5.4060   10.6600   -2.0620 C.2       1 3J0         0.0697
     28 N28        -5.7520   10.2300   -0.8860 N.2       1 3J0        -0.1868
     29 N29        -4.7790   10.4280   -0.0320 N.pl3     1 3J0        -0.1543
     30 C30        -4.8680   10.0520    1.3180 C.ar      1 3J0         0.1132
     31 C31        -4.1960    8.9120    1.7330 C.ar      1 3J0        -0.0106
     32 C32        -4.2810    8.5200    3.0550 C.ar      1 3J0         0.0508
     33 C33        -5.0380    9.2560    3.9650 C.ar      1 3J0         0.0473
     34 C34        -5.7140   10.4050    3.5380 C.ar      1 3J0        -0.0511
     35 C35        -5.6330   10.8030    2.2150 C.ar      1 3J0        -0.0243
     36 CL6        -5.1350    8.7590    5.6080 Cl        1 3J0        -0.0761
     37 CL7        -3.4450    7.0840    3.5630 Cl        1 3J0        -0.0717
     38 C38        -6.2950   10.5890   -3.3060 C.2       1 3J0         0.0683
     39 O39        -5.8660   11.0280   -4.4340 O.co2     1 3J0        -0.5608
     40 O40        -7.4460   10.0650   -3.1680 O.co2     1 3J0        -0.5608
     41 H           4.9336    7.8232   -0.3176 H         1 3J0         0.0615
     42 H           4.8869   10.2713    3.9923 H         1 3J0         0.0666
     43 H          -1.0772   12.6351    2.8381 H         1 3J0         0.0561
     44 H          -3.2623   11.9325    1.8783 H         1 3J0         0.0608
     45 H           0.8776   11.7189   -0.9026 H         1 3J0         0.0561
     46 H          -3.4974   11.6377   -2.7589 H         1 3J0         0.0384
     47 H           9.7077    5.3118    1.5067 H         1 3J0         0.0426
     48 H           8.4358    7.3112    2.9735 H         1 3J0         0.0417
     49 H           3.1145    9.4725    0.1701 H         1 3J0         0.0666
     50 H           6.6753    8.6324    3.5180 H         1 3J0         0.0615
     51 H           2.9836   11.8926    0.4825 H         1 3J0         0.1995
     52 H           1.4906   13.7034    1.2739 H         1 3J0         0.0712
     53 H           1.1471   12.7068    2.7284 H         1 3J0         0.0712
     54 H          -1.3124   11.0060   -1.8636 H         1 3J0         0.0608
     55 H          -3.6100    8.3344    1.0272 H         1 3J0         0.0595
     56 H          -6.3006   10.9827    4.2432 H         1 3J0         0.0607
     57 H          -6.1581   11.6892    1.8774 H         1 3J0         0.0591
@<TRIPOS>BOND
     1    1   17 ar 
     2   18    1 ar 
     3   19    2 ar 
     4    2   20 ar 
     5    3   19 1  
     6   21    3 am 
     7    3   22 2  
     8    4    5 ar 
     9   24    4 ar 
    10    5    6 ar 
    11   25    6 ar 
    12    6   26 1  
    13   24    7 ar 
    14    7   25 ar 
    15   26    8 2  
    16    8   27 1  
    17   10    9 ar 
    18   11   10 1  
    19   10   12 ar 
    20   11   13 2  
    21   16   11 1  
    22   14   13 1  
    23   15   14 2  
    24   15   16 1  
    25   17   15 1  
    26   20   17 ar 
    27   19   18 ar 
    28   23   21 1  
    29   23   24 1  
    30   26   29 1  
    31   27   28 2  
    32   27   38 1  
    33   28   29 1  
    34   29   30 1  
    35   30   31 ar 
    36   30   35 ar 
    37   31   32 ar 
    38   32   33 ar 
    39   32   37 1  
    40   33   34 ar 
    41   33   36 1  
    42   34   35 ar 
    43   38   39 ar 
    44   38   40 ar 
    45    1   41 1  
    46    2   42 1  
    47    4   43 1  
    48    5   44 1  
    49    7   45 1  
    50    8   46 1  
    51   13   47 1  
    52   14   48 1  
    53   18   49 1  
    54   20   50 1  
    55   21   51 1  
    56   23   52 1  
    57   23   53 1  
    58   25   54 1  
    59   31   55 1  
    60   34   56 1  
    61   35   57 1  
@<TRIPOS>SUBSTRUCTURE
     1 3J0         1

