### 
### Created by X-TOOL on Mon Sep 10 21:13:16 2018
### 

@<TRIPOS>MOLECULE
4r59_ligand
   47    48     1     0     0
SMALL
GAST_HUCK


@<TRIPOS>ATOM
      1 O2         -1.9580    7.3500   82.0560 O.3       1 3J3        -0.3848
      2 C2         -1.4160    8.6970   81.9830 C.3       1 3J3         0.1313
      3 C3         -0.9330    9.1690   80.7160 C.3       1 3J3         0.1134
      4 O3         -2.0420    9.6090   79.9230 O.3       1 3J3        -0.3864
      5 C4          0.0690   10.2700   80.6640 C.3       1 3J3         0.1118
      6 O4         -0.3040   11.4020   79.9550 O.3       1 3J3        -0.3865
      7 C5          0.9750   10.5010   81.8920 C.3       1 3J3         0.1124
      8 C6          1.2860   11.7760   82.3430 C.3       1 3J3         0.0730
      9 O6          2.4260   11.3750   83.0700 O.3       1 3J3        -0.3924
     10 O5          0.7080    9.6530   83.0900 O.3       1 3J3        -0.3430
     11 C1         -0.5520    8.9760   83.1280 C.3       1 3J3         0.2222
     12 SAY        -0.3490    7.6330   84.1870 S.o2      1 3J3         0.0711
     13 OAD        -1.3240    8.2220   85.1070 O.2       1 3J3        -0.1527
     14 OAE         0.9470    7.7120   84.7580 O.2       1 3J3        -0.1527
     15 NAW        -0.7630    6.2740   83.9150 N.am      1 3J3        -0.2359
     16 CAN        -2.0260    5.7680   84.3150 C.3       1 3J3         0.0318
     17 CAL        -2.1170    4.4860   85.1410 C.3       1 3J3        -0.0071
     18 CAM         0.2530    5.2950   83.7720 C.3       1 3J3         0.0318
     19 CAK         0.1900    4.0330   84.5930 C.3       1 3J3        -0.0071
     20 CAQ        -0.8950    3.9640   85.5120 C.3       1 3J3         0.0920
     21 OAP        -0.7830    2.6580   86.2400 O.3       1 3J3        -0.2194
     22 SAX        -1.5740    1.5650   86.7070 S.o2      1 3J3         0.1599
     23 OAB        -1.5210    1.4330   87.9430 O.2       1 3J3        -0.1270
     24 OAC        -2.8940    1.7080   86.3350 O.2       1 3J3        -0.1270
     25 NAA        -1.0660    0.3630   86.0300 N.am      1 3J3        -0.2415
     26 H          -2.2381    7.1703   82.9458 H         1 3J3         0.2101
     27 H          -2.2960    9.3343   82.1545 H         1 3J3         0.0664
     28 H          -0.4699    8.2999   80.2259 H         1 3J3         0.0647
     29 H          -2.6399    8.8835   79.7866 H         1 3J3         0.2100
     30 H           0.7993    9.8309   79.9685 H         1 3J3         0.0647
     31 H          -1.0856   11.7754   80.3452 H         1 3J3         0.2100
     32 H           1.9408   10.1317   81.5167 H         1 3J3         0.0646
     33 H           0.5011   12.2089   82.9805 H         1 3J3         0.0584
     34 H           1.5217   12.4743   81.5264 H         1 3J3         0.0584
     35 H           2.1711   10.7462   83.7349 H         1 3J3         0.2095
     36 H          -1.1781    9.6833   83.6917 H         1 3J3         0.0889
     37 H          -2.6019    5.5923   83.3945 H         1 3J3         0.0479
     38 H          -2.5109    6.5593   84.9055 H         1 3J3         0.0479
     39 H          -2.6489    3.7292   84.5458 H         1 3J3         0.0306
     40 H          -2.6904    4.7039   86.0540 H         1 3J3         0.0306
     41 H           1.2069    5.7865   84.0140 H         1 3J3         0.0479
     42 H           0.2558    4.9891   82.7154 H         1 3J3         0.0479
     43 H           1.1263    3.9511   85.1645 H         1 3J3         0.0306
     44 H           0.1062    3.1810   83.9024 H         1 3J3         0.0306
     45 H          -0.6040    4.6881   86.2872 H         1 3J3         0.0621
     46 H          -1.4822   -0.5276   86.2132 H         1 3J3         0.1654
     47 H          -0.3042    0.4360   85.3863 H         1 3J3         0.1654
@<TRIPOS>BOND
     1    1    2 1  
     2    2    3 1  
     3    2   11 1  
     4    3    4 1  
     5    3    5 1  
     6    5    6 1  
     7    5    7 1  
     8    7    8 1  
     9    7   10 1  
    10    8    9 1  
    11   10   11 1  
    12   11   12 1  
    13   12   13 2  
    14   12   14 2  
    15   12   15 am 
    16   15   16 1  
    17   15   18 1  
    18   16   17 1  
    19   17   20 1  
    20   18   19 1  
    21   19   20 1  
    22   20   21 1  
    23   21   22 1  
    24   22   23 2  
    25   22   24 2  
    26   22   25 am 
    27    1   26 1  
    28    2   27 1  
    29    3   28 1  
    30    4   29 1  
    31    5   30 1  
    32    6   31 1  
    33    7   32 1  
    34    8   33 1  
    35    8   34 1  
    36    9   35 1  
    37   11   36 1  
    38   16   37 1  
    39   16   38 1  
    40   17   39 1  
    41   17   40 1  
    42   18   41 1  
    43   18   42 1  
    44   19   43 1  
    45   19   44 1  
    46   20   45 1  
    47   25   46 1  
    48   25   47 1  
@<TRIPOS>SUBSTRUCTURE
     1 3J3         1

