### 
### Created by X-TOOL on Mon Sep 10 21:13:16 2018
### 

@<TRIPOS>MOLECULE
4r5a_ligand
   44    45     1     0     0
SMALL
GAST_HUCK


@<TRIPOS>ATOM
      1 C4          3.6920    3.7830   80.3310 C.3       1 3J4         0.1118
      2 C5          2.8710    4.3290   81.4880 C.3       1 3J4         0.1124
      3 C6          3.6230    5.1350   82.4920 C.3       1 3J4         0.0730
      4 OAO        -1.6290    2.4760   86.0200 O.3       1 3J4        -0.2178
      5 SAW        -1.8890    1.4100   87.1140 S.o2      1 3J4         0.1600
      6 OAB        -3.2940    1.3800   87.2560 O.2       1 3J4        -0.1270
      7 OAC        -1.1510    1.6920   88.2380 O.2       1 3J4        -0.1270
      8 NAA        -1.2330    0.0890   86.6830 N.am      1 3J4        -0.2415
      9 O2          1.6340    0.8350   79.6060 O.3       1 3J4        -0.3848
     10 C2          2.2930    1.7100   80.4660 C.3       1 3J4         0.1313
     11 C3          3.4900    2.4220   79.9520 C.3       1 3J4         0.1134
     12 O3          3.8330    2.1900   78.5770 O.3       1 3J4        -0.3864
     13 O4          5.1080    4.0120   80.4740 O.3       1 3J4        -0.3865
     14 O6          3.0790    5.3460   83.7720 O.3       1 3J4        -0.3924
     15 O5          1.7130    3.6320   81.9430 O.3       1 3J4        -0.3430
     16 C1          1.4730    2.3040   81.6150 C.3       1 3J4         0.2222
     17 SAX        -0.3370    2.1700   81.6460 S.o2      1 3J4         0.0711
     18 OAD        -0.5650    0.8610   81.3610 O.2       1 3J4        -0.1527
     19 OAE        -0.9260    3.1670   80.8460 O.2       1 3J4        -0.1527
     20 NAV        -0.6320    2.4820   82.9760 N.am      1 3J4        -0.2334
     21 CAM        -0.2270    1.8140   83.9120 C.3       1 3J4         0.0579
     22 CAL        -0.7560    3.8420   83.4670 C.3       1 3J4         0.0319
     23 CAK        -0.2450    3.8410   84.8910 C.3       1 3J4        -0.0056
     24 CAP        -0.3680    2.6610   85.2820 C.3       1 3J4         0.1075
     25 H           3.3705    4.3775   79.4631 H         1 3J4         0.0647
     26 H           2.3626    5.1460   80.9550 H         1 3J4         0.0646
     27 H           3.7831    6.1281   82.0470 H         1 3J4         0.0584
     28 H           4.5932    4.6374   82.6370 H         1 3J4         0.0584
     29 H          -1.2987   -0.7171   87.2711 H         1 3J4         0.1654
     30 H          -0.7404    0.0354   85.8144 H         1 3J4         0.1654
     31 H           0.8918    0.4492   80.0563 H         1 3J4         0.2101
     32 H           2.8310    0.9550   81.0580 H         1 3J4         0.0664
     33 H           4.2979    1.9069   80.4923 H         1 3J4         0.0647
     34 H           4.6090    2.6916   78.3564 H         1 3J4         0.2100
     35 H           5.5410    3.8374   79.6467 H         1 3J4         0.2100
     36 H           3.6778    5.8748   84.2861 H         1 3J4         0.2095
     37 H           1.8153    1.7161   82.4794 H         1 3J4         0.0889
     38 H           0.8297    1.5561   83.7479 H         1 3J4         0.0504
     39 H          -0.8219    0.8919   83.9886 H         1 3J4         0.0504
     40 H          -1.8091    4.1588   83.4429 H         1 3J4         0.0479
     41 H          -0.1536    4.5241   82.8491 H         1 3J4         0.0479
     42 H          -0.8442    4.5190   85.5164 H         1 3J4         0.0307
     43 H           0.8103    4.1498   84.9224 H         1 3J4         0.0307
     44 H           0.4575    2.3965   85.9591 H         1 3J4         0.0637
@<TRIPOS>BOND
     1    2    1 1  
     2   11    1 1  
     3    1   13 1  
     4    2    3 1  
     5   15    2 1  
     6    3   14 1  
     7    4    5 1  
     8   24    4 1  
     9    5    6 2  
    10    5    7 2  
    11    5    8 am 
    12   10    9 1  
    13   10   11 1  
    14   16   10 1  
    15   11   12 1  
    16   16   15 1  
    17   17   16 1  
    18   17   18 2  
    19   17   19 2  
    20   20   17 am 
    21   21   20 1  
    22   20   22 1  
    23   21   24 1  
    24   22   23 1  
    25   23   24 1  
    26    1   25 1  
    27    2   26 1  
    28    3   27 1  
    29    3   28 1  
    30    8   29 1  
    31    8   30 1  
    32    9   31 1  
    33   10   32 1  
    34   11   33 1  
    35   12   34 1  
    36   13   35 1  
    37   14   36 1  
    38   16   37 1  
    39   21   38 1  
    40   21   39 1  
    41   22   40 1  
    42   22   41 1  
    43   23   42 1  
    44   23   43 1  
    45   24   44 1  
@<TRIPOS>SUBSTRUCTURE
     1 3J4         1

