### 
### Created by X-TOOL on Mon Sep 10 21:13:16 2018
### 

@<TRIPOS>MOLECULE
4r5b_ligand
   44    45     1     0     0
SMALL
GAST_HUCK


@<TRIPOS>ATOM
      1 C4          0.5970    4.9310   79.4600 C.3       1 3J4         0.1118
      2 C5          1.1910    4.1560   80.6380 C.3       1 3J4         0.1124
      3 C6          1.7750    2.8240   80.3690 C.3       1 3J4         0.0730
      4 OAO        -1.7750    1.8660   86.2140 O.3       1 3J4        -0.2178
      5 SAW        -2.6310    0.8540   86.9230 S.o2      1 3J4         0.1600
      6 OAB        -4.0360    1.0350   86.7800 O.2       1 3J4        -0.1270
      7 OAC        -2.2720    0.9640   88.2530 O.2       1 3J4        -0.1270
      8 NAA        -2.0970   -0.5310   86.3830 N.am      1 3J4        -0.2415
      9 O2         -2.7410    6.3600   80.6300 O.3       1 3J4        -0.3848
     10 C2         -1.6260    5.3680   80.6410 C.3       1 3J4         0.1313
     11 C3         -0.7640    5.4400   79.4360 C.3       1 3J4         0.1134
     12 O3         -0.8380    6.7680   78.8820 O.3       1 3J4        -0.3864
     13 O4          0.7680    4.1520   78.2460 O.3       1 3J4        -0.3865
     14 O6          1.8530    1.9300   81.4580 O.3       1 3J4        -0.3924
     15 O5          0.4460    4.2650   81.8810 O.3       1 3J4        -0.3430
     16 C1         -0.9320    4.7350   81.9060 C.3       1 3J4         0.2222
     17 SAX        -1.0530    5.3930   83.5870 S.o2      1 3J4         0.0711
     18 OAD        -2.2900    6.0820   83.6210 O.2       1 3J4        -0.1527
     19 OAE         0.1110    6.0650   84.0010 O.2       1 3J4        -0.1527
     20 NAV        -1.1460    4.3000   84.4440 N.am      1 3J4        -0.2334
     21 CAM        -2.1370    3.5420   84.4390 C.3       1 3J4         0.0579
     22 CAL         0.0180    3.4220   84.5460 C.3       1 3J4         0.0319
     23 CAK        -0.5120    2.0080   84.3520 C.3       1 3J4        -0.0056
     24 CAP        -1.6660    2.0360   84.7490 C.3       1 3J4         0.1075
     25 H           1.2318    5.8254   79.3758 H         1 3J4         0.0647
     26 H           2.0914    4.7483   80.8580 H         1 3J4         0.0646
     27 H           2.7968    2.9789   79.9923 H         1 3J4         0.0584
     28 H           1.1652    2.3450   79.5888 H         1 3J4         0.0584
     29 H          -2.5068   -1.3846   86.7046 H         1 3J4         0.1654
     30 H          -1.3491   -0.5542   85.7196 H         1 3J4         0.1654
     31 H          -2.3815    7.2383   80.5870 H         1 3J4         0.2101
     32 H          -2.2305    4.4884   80.3749 H         1 3J4         0.0664
     33 H          -1.2680    4.7856   78.7095 H         1 3J4         0.0647
     34 H          -1.7373    6.9611   78.6443 H         1 3J4         0.2100
     35 H           0.6272    4.7103   77.4904 H         1 3J4         0.2100
     36 H           0.9798    1.7647   81.7938 H         1 3J4         0.2095
     37 H          -1.5137    3.8036   81.9695 H         1 3J4         0.0889
     38 H          -2.6207    3.5783   83.4517 H         1 3J4         0.0504
     39 H          -2.8512    3.8681   85.2095 H         1 3J4         0.0504
     40 H           0.4884    3.5225   85.5353 H         1 3J4         0.0479
     41 H           0.7522    3.6666   83.7643 H         1 3J4         0.0479
     42 H           0.0798    1.2913   84.9403 H         1 3J4         0.0307
     43 H          -0.4777    1.7268   83.2891 H         1 3J4         0.0307
     44 H          -2.2808    1.2880   84.2270 H         1 3J4         0.0637
@<TRIPOS>BOND
     1    2    1 1  
     2   11    1 1  
     3    1   13 1  
     4    2    3 1  
     5   15    2 1  
     6    3   14 1  
     7    4    5 1  
     8   24    4 1  
     9    5    6 2  
    10    5    7 2  
    11    5    8 am 
    12   10    9 1  
    13   10   11 1  
    14   16   10 1  
    15   11   12 1  
    16   16   15 1  
    17   17   16 1  
    18   17   18 2  
    19   17   19 2  
    20   20   17 am 
    21   21   20 1  
    22   20   22 1  
    23   21   24 1  
    24   22   23 1  
    25   23   24 1  
    26    1   25 1  
    27    2   26 1  
    28    3   27 1  
    29    3   28 1  
    30    8   29 1  
    31    8   30 1  
    32    9   31 1  
    33   10   32 1  
    34   11   33 1  
    35   12   34 1  
    36   13   35 1  
    37   14   36 1  
    38   16   37 1  
    39   21   38 1  
    40   21   39 1  
    41   22   40 1  
    42   22   41 1  
    43   23   42 1  
    44   23   43 1  
    45   24   44 1  
@<TRIPOS>SUBSTRUCTURE
     1 3J4         1

