### 
### Created by X-TOOL on Mon Sep 10 21:13:20 2018
### 

@<TRIPOS>MOLECULE
4r5g_ligand
   47    50     1     0     0
SMALL
GAST_HUCK


@<TRIPOS>ATOM
      1 C27       -17.7940   50.1110   -0.5940 C.ar      1 3JE        -0.0510
      2 C26       -18.0730   49.0780    0.2880 C.ar      1 3JE        -0.0644
      3 C25       -17.3750   48.9860    1.4860 C.ar      1 3JE        -0.0653
      4 C24       -16.4030   49.9240    1.8010 C.ar      1 3JE        -0.0644
      5 C23       -16.1210   50.9620    0.9220 C.ar      1 3JE        -0.0510
      6 C22       -16.8260   51.0490   -0.2800 C.ar      1 3JE         0.0173
      7 C21       -16.5740   52.0070   -1.0890 C.1       1 3JE        -0.0670
      8 C20       -16.2610   52.9280   -1.7540 C.1       1 3JE        -0.0370
      9 P7        -15.9680   54.1380   -2.8150 P.3       1 3JE         0.0527
     10 C6        -15.7990   53.4740   -4.4150 C.ar      1 3JE         0.0148
     11 C5        -15.4470   52.1350   -4.5710 C.ar      1 3JE        -0.0522
     12 C4        -15.3020   51.5920   -5.8390 C.ar      1 3JE        -0.0658
     13 C3        -15.5010   52.3840   -6.9650 C.ar      1 3JE        -0.0669
     14 C2        -15.8470   53.7220   -6.8070 C.ar      1 3JE        -0.0658
     15 C1        -15.9920   54.2670   -5.5400 C.ar      1 3JE        -0.0522
     16 C14       -17.2930   55.2750   -2.6900 C.ar      1 3JE         0.0148
     17 C19       -17.2350   56.5140   -3.3140 C.ar      1 3JE        -0.0522
     18 C18       -18.3110   57.3860   -3.1860 C.ar      1 3JE        -0.0658
     19 C17       -19.4210   57.0180   -2.4360 C.ar      1 3JE        -0.0669
     20 C16       -19.4720   55.7810   -1.8100 C.ar      1 3JE        -0.0658
     21 C15       -18.4000   54.9080   -1.9380 C.ar      1 3JE        -0.0522
     22 C8        -14.4640   54.8860   -2.3480 C.ar      1 3JE         0.0148
     23 C13       -13.7190   55.5880   -3.2890 C.ar      1 3JE        -0.0522
     24 C12       -12.5160   56.1820   -2.9260 C.ar      1 3JE        -0.0658
     25 C11       -12.0530   56.0780   -1.6200 C.ar      1 3JE        -0.0669
     26 C10       -12.7960   55.3760   -0.6760 C.ar      1 3JE        -0.0658
     27 C9        -14.0000   54.7790   -1.0410 C.ar      1 3JE        -0.0522
     28 H         -18.3348   50.1839   -1.5306 H         1 3JE         0.0603
     29 H         -18.8331   48.3447    0.0437 H         1 3JE         0.0607
     30 H         -17.5908   48.1787    2.1765 H         1 3JE         0.0587
     31 H         -15.8613   49.8468    2.7368 H         1 3JE         0.0607
     32 H         -15.3620   51.6963    1.1666 H         1 3JE         0.0603
     33 H         -15.2856   51.5145   -3.6969 H         1 3JE         0.0602
     34 H         -15.0330   50.5481   -5.9527 H         1 3JE         0.0601
     35 H         -15.3874   51.9622   -7.9571 H         1 3JE         0.0574
     36 H         -16.0045   54.3436   -7.6810 H         1 3JE         0.0601
     37 H         -16.2561   55.3123   -5.4270 H         1 3JE         0.0602
     38 H         -16.3634   56.7977   -3.8928 H         1 3JE         0.0602
     39 H         -18.2834   58.3544   -3.6723 H         1 3JE         0.0601
     40 H         -20.2549   57.7037   -2.3390 H         1 3JE         0.0574
     41 H         -20.3407   55.4987   -1.2264 H         1 3JE         0.0601
     42 H         -18.4278   53.9401   -1.4507 H         1 3JE         0.0602
     43 H         -14.0774   55.6723   -4.3086 H         1 3JE         0.0602
     44 H         -11.9379   56.7274   -3.6631 H         1 3JE         0.0601
     45 H         -11.1153   56.5426   -1.3373 H         1 3JE         0.0574
     46 H         -12.4376   55.2938    0.3437 H         1 3JE         0.0601
     47 H         -14.5766   54.2300   -0.3054 H         1 3JE         0.0602
@<TRIPOS>BOND
     1    1    2 ar 
     2    1    6 ar 
     3    2    3 ar 
     4    3    4 ar 
     5    4    5 ar 
     6    5    6 ar 
     7    6    7 1  
     8    7    8 3  
     9    8    9 1  
    10    9   10 1  
    11    9   16 1  
    12    9   22 1  
    13   10   11 ar 
    14   10   15 ar 
    15   11   12 ar 
    16   12   13 ar 
    17   13   14 ar 
    18   14   15 ar 
    19   16   17 ar 
    20   16   21 ar 
    21   17   18 ar 
    22   18   19 ar 
    23   19   20 ar 
    24   20   21 ar 
    25   22   23 ar 
    26   22   27 ar 
    27   23   24 ar 
    28   24   25 ar 
    29   25   26 ar 
    30   26   27 ar 
    31    1   28 1  
    32    2   29 1  
    33    3   30 1  
    34    4   31 1  
    35    5   32 1  
    36   11   33 1  
    37   12   34 1  
    38   13   35 1  
    39   14   36 1  
    40   15   37 1  
    41   17   38 1  
    42   18   39 1  
    43   19   40 1  
    44   20   41 1  
    45   21   42 1  
    46   23   43 1  
    47   24   44 1  
    48   25   45 1  
    49   26   46 1  
    50   27   47 1  
@<TRIPOS>SUBSTRUCTURE
     1 3JE         1

