### 
### Created by X-TOOL on Mon Sep 10 21:13:18 2018
### 

@<TRIPOS>MOLECULE
4r5n_ligand
   48    52     1     0     0
SMALL
GAST_HUCK


@<TRIPOS>ATOM
      1 C1         27.9230   14.6570    9.3270 C.ar      1 3J9        -0.0327
      2 C2         27.0990   15.7800    9.6160 C.ar      1 3J9         0.0077
      3 C3         25.6990   15.6870    9.3920 C.ar      1 3J9        -0.0349
      4 C4         25.1090   14.4900    8.9140 C.ar      1 3J9         0.0323
      5 C5         25.9360   13.3700    8.6350 C.ar      1 3J9         0.1306
      6 C6         27.3370   13.4570    8.8440 C.ar      1 3J9         0.0023
      7 C7         27.6460   17.0180   10.0540 C.ar      1 3J9         0.0484
      8 O8         25.4060   12.1840    8.1680 O.3       1 3J9        -0.2828
      9 C9         24.1330   12.2020    7.5060 C.3       1 3J9         0.1211
     10 C10        23.1380   12.9930    8.3920 C.3       1 3J9         0.1142
     11 C11        23.5930   14.4400    8.6780 C.3       1 3J9         0.1478
     12 C12        23.1780   15.4890    7.6180 C.3       1 3J9         0.0699
     13 O13        22.2940   16.3950    8.2940 O.3       1 3J9        -0.3277
     14 C14        22.1490   15.9730    9.5770 C.cat     1 3J9         0.3440
     15 N15        22.8280   14.8560    9.8340 N.pl3     1 3J9        -0.2681
     16 N16        21.1990   16.5620   10.3070 N.pl3     1 3J9        -0.2513
     17 O17        21.8090   12.9390    7.8610 O.3       1 3J9        -0.3786
     18 C18        21.2450   11.6200    7.7820 C.3       1 3J9         0.0473
     19 C19        22.1530   10.6890    6.9240 C.3       1 3J9        -0.0263
     20 C20        23.6410   10.7450    7.3740 C.3       1 3J9        -0.0140
     21 C21        24.3100   12.8570    6.1130 C.3       1 3J9        -0.0278
     22 C22        27.2210   17.7180   11.2140 C.ar      1 3J9         0.2206
     23 N23        27.7220   18.9150   11.6010 N.ar      1 3J9        -0.2659
     24 C24        28.6860   19.4900   10.8490 C.ar      1 3J9         0.0038
     25 C25        29.1770   18.8830    9.6650 C.ar      1 3J9        -0.0423
     26 C26        28.6420   17.6360    9.2510 C.ar      1 3J9        -0.0401
     27 F27        26.2810   17.1960   12.0080 F         1 3J9        -0.1522
     28 H          28.9952   14.7171    9.4750 H         1 3J9         0.0835
     29 H          25.0703   16.5475    9.5903 H         1 3J9         0.0801
     30 H          27.9657   12.5995    8.6330 H         1 3J9         0.0633
     31 H          23.1105   12.4798    9.3646 H         1 3J9         0.0562
     32 H          22.6598   15.0020    6.7788 H         1 3J9         0.0488
     33 H          24.0620   16.0247    7.2419 H         1 3J9         0.0488
     34 H          22.8108   14.3558   10.7342 H         1 3J9         0.3107
     35 H          21.0502   16.2767   11.2854 H         1 3J9         0.3201
     36 H          20.6148   17.3018    9.8918 H         1 3J9         0.3201
     37 H          20.2484   11.6794    7.3202 H         1 3J9         0.0559
     38 H          21.1550   11.2034    8.7961 H         1 3J9         0.0559
     39 H          22.0888   11.0028    5.8717 H         1 3J9         0.0288
     40 H          21.7921    9.6544    7.0208 H         1 3J9         0.0288
     41 H          23.7397   10.2439    8.3482 H         1 3J9         0.0299
     42 H          24.2603   10.2238    6.6292 H         1 3J9         0.0299
     43 H          23.3414   12.8783    5.5921 H         1 3J9         0.0263
     44 H          25.0312   12.2732    5.5222 H         1 3J9         0.0263
     45 H          24.6830   13.8845    6.2357 H         1 3J9         0.0263
     46 H          29.0965   20.4439   11.1599 H         1 3J9         0.0788
     47 H          29.9528   19.3667    9.0826 H         1 3J9         0.0646
     48 H          28.9869   17.1632    8.3385 H         1 3J9         0.0710
@<TRIPOS>BOND
     1    1    2 ar 
     2    1    6 ar 
     3    2    3 ar 
     4    2    7 1  
     5    3    4 ar 
     6    4    5 ar 
     7    4   11 1  
     8    5    6 ar 
     9    5    8 1  
    10    7   22 ar 
    11    7   26 ar 
    12    8    9 1  
    13    9   10 1  
    14    9   20 1  
    15    9   21 1  
    16   10   11 1  
    17   10   17 1  
    18   11   12 1  
    19   11   15 1  
    20   12   13 1  
    21   13   14 1  
    22   14   15 ar 
    23   14   16 ar 
    24   17   18 1  
    25   18   19 1  
    26   19   20 1  
    27   22   23 ar 
    28   22   27 1  
    29   23   24 ar 
    30   24   25 ar 
    31   25   26 ar 
    32    1   28 1  
    33    3   29 1  
    34    6   30 1  
    35   10   31 1  
    36   12   32 1  
    37   12   33 1  
    38   15   34 1  
    39   16   35 1  
    40   16   36 1  
    41   18   37 1  
    42   18   38 1  
    43   19   39 1  
    44   19   40 1  
    45   20   41 1  
    46   20   42 1  
    47   21   43 1  
    48   21   44 1  
    49   21   45 1  
    50   24   46 1  
    51   25   47 1  
    52   26   48 1  
@<TRIPOS>SUBSTRUCTURE
     1 3J9         1

