### 
### Created by X-TOOL on Mon Sep 10 21:13:18 2018
### 

@<TRIPOS>MOLECULE
4r5t_ligand
   44    45     1     0     0
SMALL
GAST_HUCK


@<TRIPOS>ATOM
      1 CAA        15.6660    7.8450    8.5610 C.3       1 R5T        -0.0320
      2 CAX        16.3970    8.9100    9.3960 C.3       1 R5T         0.0905
      3 CAB        16.6820   10.1230    8.5020 C.3       1 R5T        -0.0320
      4 CAC        17.7160    8.3020    9.9090 C.3       1 R5T        -0.0320
      5 OAQ        15.5390    9.2980   10.5070 O.3       1 R5T        -0.2579
      6 CAR        15.9850   10.2920   11.3530 C.2       1 R5T         0.3240
      7 OAD        17.1490   10.6880   11.3340 O.2       1 R5T        -0.3773
      8 N          15.1270   10.8510   12.2190 N.am      1 R5T        -0.2313
      9 CA         13.7220   10.4130   12.2900 C.3       1 R5T         0.1649
     10 C          12.8410   11.2050   11.3010 C.2       1 R5T         0.2352
     11 O          11.8210   10.7080   10.8380 O.2       1 R5T        -0.3916
     12 NAO        13.2790   12.4120   10.9420 N.am      1 R5T        -0.1608
     13 OAF        12.3520   13.2020    9.9300 O.3       1 R5T        -0.2715
     14 CAT        13.2460   10.5090   13.5980 C.ar      1 R5T        -0.0050
     15 CAJ        13.4890    9.4530   14.4710 C.ar      1 R5T        -0.0588
     16 CAL        13.0330    9.5130   15.7840 C.ar      1 R5T        -0.0305
     17 CAI        12.5400   11.6280   14.0380 C.ar      1 R5T        -0.0588
     18 CAK        12.0780   11.6920   15.3550 C.ar      1 R5T        -0.0305
     19 CAU        12.3310   10.6330   16.2260 C.ar      1 R5T         0.1062
     20 NAW        11.8900   10.6700   17.4780 N.pl3     1 R5T        -0.1678
     21 NAN        11.2810   11.5790   17.9910 N.2       1 R5T        -0.2075
     22 CAH        10.9890   11.2730   19.2570 C.2       1 R5T        -0.0061
     23 CAG        11.4710   10.0590   19.4930 C.2       1 R5T        -0.0478
     24 CAM        12.0430    9.6770   18.3590 C.2       1 R5T         0.0630
     25 H          16.3020    7.5410    7.7166 H         1 R5T         0.0260
     26 H          14.7232    8.2627    8.1781 H         1 R5T         0.0260
     27 H          15.4501    6.9696    9.1911 H         1 R5T         0.0260
     28 H          17.2053   10.8942    9.0863 H         1 R5T         0.0260
     29 H          15.7330   10.5307    8.1236 H         1 R5T         0.0260
     30 H          17.3122    9.8142    7.6549 H         1 R5T         0.0260
     31 H          17.4956    7.4341   10.5479 H         1 R5T         0.0260
     32 H          18.2652    9.0562   10.4917 H         1 R5T         0.0260
     33 H          18.3291    7.9814    9.0538 H         1 R5T         0.0260
     34 H          15.4464   11.5778   12.8271 H         1 R5T         0.1923
     35 H          13.6833    9.3538   11.9959 H         1 R5T         0.0947
     36 H          14.1360   12.7931   11.2888 H         1 R5T         0.2219
     37 H          12.7444   14.0448    9.7347 H         1 R5T         0.2490
     38 H          14.0348    8.5818   14.1273 H         1 R5T         0.0547
     39 H          13.2235    8.6895   16.4626 H         1 R5T         0.0575
     40 H          12.3493   12.4496   13.3571 H         1 R5T         0.0547
     41 H          11.5261   12.5598   15.6976 H         1 R5T         0.0575
     42 H          10.4539   11.9033   19.9657 H         1 R5T         0.0654
     43 H          11.4097    9.4950   20.4226 H         1 R5T         0.0343
     44 H          12.5454    8.7278   18.1788 H         1 R5T         0.0991
@<TRIPOS>BOND
     1    1    2 1  
     2    2    3 1  
     3    2    4 1  
     4    2    5 1  
     5    5    6 1  
     6    6    7 2  
     7    6    8 am 
     8    8    9 1  
     9    9   10 1  
    10    9   14 1  
    11   10   11 2  
    12   10   12 am 
    13   12   13 1  
    14   14   15 ar 
    15   14   17 ar 
    16   15   16 ar 
    17   16   19 ar 
    18   17   18 ar 
    19   18   19 ar 
    20   19   20 1  
    21   20   21 1  
    22   20   24 1  
    23   21   22 2  
    24   22   23 1  
    25   23   24 2  
    26    1   25 1  
    27    1   26 1  
    28    1   27 1  
    29    3   28 1  
    30    3   29 1  
    31    3   30 1  
    32    4   31 1  
    33    4   32 1  
    34    4   33 1  
    35    8   34 1  
    36    9   35 1  
    37   12   36 1  
    38   13   37 1  
    39   15   38 1  
    40   16   39 1  
    41   17   40 1  
    42   18   41 1  
    43   22   42 1  
    44   23   43 1  
    45   24   44 1  
@<TRIPOS>SUBSTRUCTURE
     1 R5T         1

