### 
### Created by X-TOOL on Mon Sep 10 21:13:18 2018
### 

@<TRIPOS>MOLECULE
4r5v_ligand
   43    44     1     0     0
SMALL
GAST_HUCK


@<TRIPOS>ATOM
      1 CAA        18.3390    8.9020   10.0550 C.3       1 R5V        -0.0534
      2 CAB        16.8180    8.7630   10.0800 C.3       1 R5V         0.0432
      3 CAC        16.4400    7.3810   10.5970 C.3       1 R5V        -0.0534
      4 CAD        16.2750    8.9450    8.6600 C.3       1 R5V        -0.0534
      5 CAE        16.2240    9.8520   10.9720 C.2       1 R5V         0.2049
      6 OAF        16.9470   10.6710   11.5330 O.2       1 R5V        -0.3440
      7 N          14.8900    9.8560   11.0820 N.am      1 R5V        -0.2548
      8 CA         14.2300   10.9300   11.8410 C.3       1 R5V         0.1633
      9 C          13.1110   11.5210   10.9780 C.2       1 R5V         0.2354
     10 O          12.1000   10.8760   10.7040 O.2       1 R5V        -0.3916
     11 NAK        13.3740   12.7560   10.5260 N.am      1 R5V        -0.1607
     12 OAL        12.3930   13.3860    9.6990 O.3       1 R5V        -0.2715
     13 CAM        13.8110   10.6130   13.1430 C.ar      1 R5V        -0.0048
     14 CAW        13.0420   11.5550   13.8130 C.ar      1 R5V        -0.0588
     15 CAV        12.6060   11.3380   15.1110 C.ar      1 R5V        -0.0305
     16 CAN        14.1740    9.4390   13.7980 C.ar      1 R5V        -0.0588
     17 CAO        13.7360    9.2160   15.1050 C.ar      1 R5V        -0.0305
     18 CAP        12.9520   10.1630   15.7620 C.ar      1 R5V         0.1062
     19 NAQ        12.5370    9.9800   17.0150 N.pl3     1 R5V        -0.1678
     20 NAU        11.7580   10.7020   17.6020 N.2       1 R5V        -0.2075
     21 CAT        11.5650   10.2570   18.8420 C.2       1 R5V        -0.0061
     22 CAS        12.3170    9.1750   18.9910 C.2       1 R5V        -0.0478
     23 CAR        12.9400    9.0070   17.8310 C.2       1 R5V         0.0630
     24 H          18.7683    8.1186    9.4131 H         1 R5V         0.0221
     25 H          18.7337    8.7963   11.0763 H         1 R5V         0.0221
     26 H          18.6103    9.8911    9.6575 H         1 R5V         0.0221
     27 H          15.3445    7.2830   10.6142 H         1 R5V         0.0221
     28 H          16.8359    7.2493   11.6148 H         1 R5V         0.0221
     29 H          16.8665    6.6127    9.9354 H         1 R5V         0.0221
     30 H          16.5487    9.9433    8.2880 H         1 R5V         0.0221
     31 H          15.1796    8.8453    8.6707 H         1 R5V         0.0221
     32 H          16.7066    8.1772    8.0011 H         1 R5V         0.0221
     33 H          14.3465    9.1351   10.6520 H         1 R5V         0.1913
     34 H          14.9843   11.7208   11.9662 H         1 R5V         0.0950
     35 H          14.2281   13.2207   10.7598 H         1 R5V         0.2219
     36 H          12.6992   14.2496    9.4483 H         1 R5V         0.2490
     37 H          12.7772   12.4786   13.3112 H         1 R5V         0.0547
     38 H          11.9986   12.0818   15.6139 H         1 R5V         0.0575
     39 H          14.7924    8.7032   13.2967 H         1 R5V         0.0547
     40 H          14.0081    8.2981   15.6134 H         1 R5V         0.0575
     41 H          10.9119   10.6989   19.5931 H         1 R5V         0.0654
     42 H          12.4052    8.5531   19.8806 H         1 R5V         0.0343
     43 H          13.6508    8.2179   17.5903 H         1 R5V         0.0991
@<TRIPOS>BOND
     1    1    2 1  
     2    2    3 1  
     3    2    4 1  
     4    2    5 1  
     5    5    6 2  
     6    5    7 am 
     7    7    8 1  
     8    8    9 1  
     9    8   13 1  
    10    9   10 2  
    11    9   11 am 
    12   11   12 1  
    13   13   14 ar 
    14   13   16 ar 
    15   14   15 ar 
    16   15   18 ar 
    17   16   17 ar 
    18   17   18 ar 
    19   18   19 1  
    20   19   20 1  
    21   19   23 1  
    22   20   21 2  
    23   21   22 1  
    24   22   23 2  
    25    1   24 1  
    26    1   25 1  
    27    1   26 1  
    28    3   27 1  
    29    3   28 1  
    30    3   29 1  
    31    4   30 1  
    32    4   31 1  
    33    4   32 1  
    34    7   33 1  
    35    8   34 1  
    36   11   35 1  
    37   12   36 1  
    38   14   37 1  
    39   15   38 1  
    40   16   39 1  
    41   17   40 1  
    42   21   41 1  
    43   22   42 1  
    44   23   43 1  
@<TRIPOS>SUBSTRUCTURE
     1 R5V         1

