### 
### Created by X-TOOL on Mon Sep 10 21:13:24 2018
### 

@<TRIPOS>MOLECULE
4r5w_ligand
   32    34     1     0     0
SMALL
GAST_HUCK


@<TRIPOS>ATOM
      1 N1        -21.5810   -7.7740  -18.1020 N.2       1 XAV        -0.2378
      2 C2        -21.1000   -6.5710  -18.4400 C.2       1 XAV         0.1209
      3 N3        -21.4190   -5.4510  -17.7230 N.2       1 XAV        -0.2602
      4 C4        -22.2000   -5.5310  -16.6910 C.2       1 XAV         0.0714
      5 C5        -22.7480   -6.8040  -16.2730 C.3       1 XAV         0.1230
      6 C6        -22.4020   -7.9020  -17.0250 C.2       1 XAV         0.1922
      7 O6        -22.8880   -9.0600  -16.6390 O.2       1 XAV        -0.3829
      8 FAB       -17.6480   -3.7960  -22.6980 F         1 XAV        -0.2211
      9 FAC       -16.4090   -5.7180  -22.5120 F         1 XAV        -0.2211
     10 FAD       -18.3050   -5.5390  -23.9200 F         1 XAV        -0.2211
     11 CAE       -20.6780   -6.5570  -20.8110 C.ar      1 XAV        -0.0145
     12 CAF       -19.0380   -5.6530  -19.2360 C.ar      1 XAV        -0.0145
     13 CAG       -19.8330   -6.2040  -21.8760 C.ar      1 XAV        -0.0265
     14 CAH       -18.2120   -5.2940  -20.3060 C.ar      1 XAV        -0.0265
     15 CAI       -23.6440   -4.2650  -15.1900 C.3       1 XAV         0.0154
     16 CAJ       -22.4290   -4.1800  -16.0730 C.3       1 XAV         0.0345
     17 CAK       -23.6370   -7.0130  -15.1210 C.3       1 XAV         0.0342
     18 SAN       -23.3410   -5.6330  -14.0250 S.3       1 XAV        -0.1500
     19 CAP       -20.2860   -6.2950  -19.5000 C.ar      1 XAV         0.0524
     20 CAQ       -18.6070   -5.5800  -21.6110 C.ar      1 XAV         0.0506
     21 CAU       -17.6720   -5.1630  -22.7510 C.3       1 XAV         0.3775
     22 H1        -21.8796   -6.9530  -15.6144 H         1 XAV         0.0875
     23 H2        -21.6322   -7.0318  -21.0085 H         1 XAV         0.0761
     24 H3        -18.7339   -5.4460  -18.2163 H         1 XAV         0.0761
     25 H4        -20.1280   -6.4133  -22.8979 H         1 XAV         0.0856
     26 H5        -17.2677   -4.7950  -20.1206 H         1 XAV         0.0856
     27 H6        -24.5395   -4.4717  -15.7944 H         1 XAV         0.0417
     28 H7        -23.7818   -3.3218  -14.6411 H         1 XAV         0.0417
     29 H8        -22.5948   -3.4327  -16.8630 H         1 XAV         0.0602
     30 H9        -21.5529   -3.8917  -15.4736 H         1 XAV         0.0602
     31 H10       -23.3961   -7.9610  -14.6177 H         1 XAV         0.0447
     32 H11       -24.6881   -7.0267  -15.4451 H         1 XAV         0.0447
@<TRIPOS>BOND
     1    2    1 2  
     2    1    6 1  
     3    2    3 1  
     4   19    2 1  
     5    3    4 2  
     6    4    5 1  
     7    4   16 1  
     8    6    5 1  
     9    5   17 1  
    10    6    7 2  
    11   21    8 1  
    12   21    9 1  
    13   21   10 1  
    14   13   11 ar 
    15   11   19 ar 
    16   14   12 ar 
    17   12   19 ar 
    18   20   13 ar 
    19   20   14 ar 
    20   16   15 1  
    21   15   18 1  
    22   17   18 1  
    23   20   21 1  
    24    5   22 1  
    25   11   23 1  
    26   12   24 1  
    27   13   25 1  
    28   14   26 1  
    29   15   27 1  
    30   15   28 1  
    31   16   29 1  
    32   16   30 1  
    33   17   31 1  
    34   17   32 1  
@<TRIPOS>SUBSTRUCTURE
     1 XAV         1

