### 
### Created by X-TOOL on Mon Sep 10 21:13:17 2018
### 

@<TRIPOS>MOLECULE
4r5x_ligand
   43    45     1     0     0
SMALL
GAST_HUCK


@<TRIPOS>ATOM
      1 C10        11.9100    9.9770   18.9980 C.2       1 R5X        -0.0478
      2 C21        17.4740    8.0140   10.0110 C.ar      1 R5X        -0.0250
      3 C22        18.2460    6.8760    9.7480 C.ar      1 R5X         0.0407
      4 C24        18.6640    6.6160   12.1010 C.ar      1 R5X        -0.0680
      5 C01        13.6280    9.5960   15.2880 C.ar      1 R5X        -0.0305
      6 C02        14.1300    9.6470   13.9850 C.ar      1 R5X        -0.0588
      7 C03        13.9010   10.7690   13.1920 C.ar      1 R5X        -0.0050
      8 C04        13.1840   11.8350   13.7100 C.ar      1 R5X        -0.0588
      9 C05        12.6770   11.7920   15.0070 C.ar      1 R5X        -0.0305
     10 C06        12.9050   10.6770   15.7970 C.ar      1 R5X         0.1062
     11 N07        12.4070   10.6510   17.0290 N.pl3     1 R5X        -0.1678
     12 N08        11.7600   11.5140   17.5200 N.2       1 R5X        -0.2075
     13 C09        11.4020   11.1790   18.7600 C.2       1 R5X        -0.0061
     14 C11        12.5550    9.6400   17.8880 C.2       1 R5X         0.0630
     15 C12        14.4120   10.8460   11.8950 C.3       1 R5X         0.1628
     16 N13        15.1530    9.5930   11.5440 N.am      1 R5X        -0.2553
     17 C14        13.3600   11.3610   10.8600 C.2       1 R5X         0.2352
     18 O15        12.4230   10.6950   10.4000 O.2       1 R5X        -0.3916
     19 N16        13.5920   12.6100   10.4550 N.am      1 R5X        -0.1608
     20 O17        12.6790   13.1350    9.5200 O.3       1 R5X        -0.2715
     21 C18        16.5160    9.6110   11.6200 C.2       1 R5X         0.2057
     22 C19        17.2670    8.4530   11.3210 C.ar      1 R5X         0.0384
     23 O20        17.1260   10.6190   11.9500 O.2       1 R5X        -0.3844
     24 C23        18.8450    6.1720   10.7940 C.ar      1 R5X        -0.0404
     25 C25        17.8900    7.7500   12.3530 C.ar      1 R5X        -0.0553
     26 N26        18.4140    6.4630    8.4930 N.pl3     1 R5X        -0.3362
     27 H          11.8174    9.3907   19.9110 H         1 R5X         0.0343
     28 H          17.0310    8.5618    9.1871 H         1 R5X         0.0565
     29 H          19.1244    6.0807   12.9235 H         1 R5X         0.0594
     30 H          13.7993    8.7195   15.9023 H         1 R5X         0.0575
     31 H          14.6984    8.8124   13.5908 H         1 R5X         0.0547
     32 H          13.0152   12.7139   13.0984 H         1 R5X         0.0547
     33 H          12.1065   12.6275   15.3964 H         1 R5X         0.0575
     34 H          10.8059   11.7782   19.4467 H         1 R5X         0.0654
     35 H          13.1012    8.7145   17.7116 H         1 R5X         0.0991
     36 H          15.1807   11.6323   11.9223 H         1 R5X         0.0947
     37 H          14.6640    8.7675   11.2623 H         1 R5X         0.1901
     38 H          14.3676   13.1420   10.7947 H         1 R5X         0.2219
     39 H          12.9309   14.0236    9.2976 H         1 R5X         0.2490
     40 H          19.4433    5.2911   10.5912 H         1 R5X         0.0550
     41 H          17.7701    8.0926   13.3744 H         1 R5X         0.0557
     42 H          17.9741    6.9791    7.7177 H         1 R5X         0.1718
     43 H          18.9839    5.6275    8.2977 H         1 R5X         0.1718
@<TRIPOS>BOND
     1    1   13 1  
     2   14    1 2  
     3    2    3 ar 
     4   22    2 ar 
     5    3   24 ar 
     6    3   26 1  
     7   24    4 ar 
     8    4   25 ar 
     9    6    5 ar 
    10    5   10 ar 
    11    7    6 ar 
    12    7    8 ar 
    13   15    7 1  
    14    8    9 ar 
    15    9   10 ar 
    16   10   11 1  
    17   11   12 1  
    18   11   14 1  
    19   12   13 2  
    20   16   15 1  
    21   15   17 1  
    22   21   16 am 
    23   17   18 2  
    24   17   19 am 
    25   19   20 1  
    26   21   22 1  
    27   21   23 2  
    28   22   25 ar 
    29    1   27 1  
    30    2   28 1  
    31    4   29 1  
    32    5   30 1  
    33    6   31 1  
    34    8   32 1  
    35    9   33 1  
    36   13   34 1  
    37   14   35 1  
    38   15   36 1  
    39   16   37 1  
    40   19   38 1  
    41   20   39 1  
    42   24   40 1  
    43   25   41 1  
    44   26   42 1  
    45   26   43 1  
@<TRIPOS>SUBSTRUCTURE
     1 R5X         1

