### 
### Created by X-TOOL on Mon Sep 10 21:13:29 2018
### 

@<TRIPOS>MOLECULE
4r5y_ligand
   52    58     1     0     0
SMALL
GAST_HUCK


@<TRIPOS>ATOM
      1 F2         24.8590   13.2970  -18.4600 F         1 3K3        -0.2291
      2 C19        24.0660   12.2460  -18.5740 C.3       1 3K3         0.3645
      3 F          24.3900   11.5650  -19.6670 F         1 3K3        -0.2291
      4 F1         24.2600   11.4660  -17.5250 F         1 3K3        -0.2291
      5 C18        22.6120   12.6640  -18.6070 C.ar      1 3K3         0.0290
      6 C17        22.1320   13.7160  -19.3950 C.ar      1 3K3        -0.0481
      7 C16        20.7750   14.0570  -19.3890 C.ar      1 3K3        -0.0141
      8 C20        21.7160   11.9560  -17.8200 C.ar      1 3K3        -0.0298
      9 C21        20.3670   12.2940  -17.8120 C.ar      1 3K3         0.0556
     10 C15        19.8820   13.3390  -18.5910 C.ar      1 3K3         0.1092
     11 N          18.5360   13.4180  -18.3690 N.pl3     1 3K3        -0.2291
     12 N1         19.3200   11.7740  -17.1530 N.2       1 3K3        -0.3047
     13 C14        18.2030   12.4530  -17.4700 C.2       1 3K3         0.1379
     14 C13        16.8660   12.1090  -16.9120 C.3       1 3K3         0.0890
     15 C9         15.7410   12.7620  -17.7160 C.3       1 3K3         0.1135
     16 O2         14.4870   12.0650  -17.5360 O.3       1 3K3        -0.3193
     17 C10        16.1110   13.2940  -16.3220 C.3       1 3K3         0.0459
     18 C11        15.0170   12.7620  -15.4730 C.ar      1 3K3        -0.0114
     19 C8         14.1210   12.0530  -16.2190 C.ar      1 3K3         0.0838
     20 C7         13.0090   11.4470  -15.6540 C.ar      1 3K3        -0.0467
     21 C6         12.8370   11.5790  -14.2750 C.ar      1 3K3        -0.0436
     22 C12        14.8720   12.8890  -14.0980 C.ar      1 3K3        -0.0343
     23 C5         13.7640   12.2850  -13.4990 C.ar      1 3K3         0.0992
     24 O1         13.5660   12.4110  -12.1450 O.3       1 3K3        -0.2654
     25 C4         13.8100   11.3870  -11.2610 C.ar      1 3K3         0.1215
     26 C22        14.1460   10.1070  -11.6930 C.ar      1 3K3        -0.0240
     27 C23        14.3890    9.1110  -10.7560 C.ar      1 3K3        -0.0235
     28 N2         14.3070    9.3790   -9.4440 N.ar      1 3K3        -0.3073
     29 C24        13.9900   10.6190   -9.0000 C.ar      1 3K3         0.1311
     30 N3         13.9090   10.8880   -7.6750 N.am      1 3K3        -0.2241
     31 C          13.0320   11.7800   -7.2060 C.2       1 3K3         0.2071
     32 O          12.6710   11.7930   -6.0410 O.2       1 3K3        -0.3837
     33 C3         13.7370   11.6320   -9.9020 C.ar      1 3K3         0.0399
     34 C2         13.3870   12.9970   -9.3730 C.3       1 3K3        -0.0017
     35 C1         12.4770   12.8080   -8.1670 C.3       1 3K3         0.0506
     36 H1         22.8208   14.2744  -20.0186 H         1 3K3         0.0721
     37 H2         20.4179   14.8764  -20.0022 H         1 3K3         0.0629
     38 H3         22.0692   11.1343  -17.2075 H         1 3K3         0.0822
     39 H4         17.8882   14.0895  -18.8052 H         1 3K3         0.2415
     40 H5         16.8091   11.0943  -16.4911 H         1 3K3         0.0628
     41 H6         15.8790   13.2808  -18.6761 H         1 3K3         0.0706
     42 H7         16.5408   14.2731  -16.0637 H         1 3K3         0.0504
     43 H8         12.3011   10.8926  -16.2594 H         1 3K3         0.0498
     44 H9         11.9738   11.1286  -13.7984 H         1 3K3         0.0470
     45 H10        15.5958   13.4395  -13.5079 H         1 3K3         0.0465
     46 H11        14.2174    9.8893  -12.7525 H         1 3K3         0.0503
     47 H12        14.6464    8.1113  -11.0867 H         1 3K3         0.0684
     48 H13        14.5150   10.4116   -7.0380 H         1 3K3         0.2281
     49 H14        12.8651   13.5767  -10.1486 H         1 3K3         0.0413
     50 H15        14.3021   13.5279   -9.0719 H         1 3K3         0.0413
     51 H16        12.3759   13.7694   -7.6421 H         1 3K3         0.0526
     52 H17        11.4882   12.4743   -8.5148 H         1 3K3         0.0526
@<TRIPOS>BOND
     1    1    2 1  
     2    2    3 1  
     3    2    4 1  
     4    2    5 1  
     5    5    6 ar 
     6    5    8 ar 
     7    6    7 ar 
     8    7   10 ar 
     9    8    9 ar 
    10    9   10 ar 
    11    9   12 1  
    12   10   11 1  
    13   11   13 1  
    14   12   13 2  
    15   13   14 1  
    16   14   15 1  
    17   14   17 1  
    18   15   16 1  
    19   15   17 1  
    20   16   19 1  
    21   17   18 1  
    22   18   19 ar 
    23   18   22 ar 
    24   19   20 ar 
    25   20   21 ar 
    26   21   23 ar 
    27   22   23 ar 
    28   23   24 1  
    29   24   25 1  
    30   25   26 ar 
    31   25   33 ar 
    32   26   27 ar 
    33   27   28 ar 
    34   28   29 ar 
    35   29   30 1  
    36   29   33 ar 
    37   30   31 am 
    38   31   32 2  
    39   31   35 1  
    40   33   34 1  
    41   34   35 1  
    42    6   36 1  
    43    7   37 1  
    44    8   38 1  
    45   11   39 1  
    46   14   40 1  
    47   15   41 1  
    48   17   42 1  
    49   20   43 1  
    50   21   44 1  
    51   22   45 1  
    52   26   46 1  
    53   27   47 1  
    54   30   48 1  
    55   34   49 1  
    56   34   50 1  
    57   35   51 1  
    58   35   52 1  
@<TRIPOS>SUBSTRUCTURE
     1 3K3         1

