### 
### Created by X-TOOL on Mon Sep 10 21:13:19 2018
### 

@<TRIPOS>MOLECULE
4r6t_ligand
   44    45     1     0     0
SMALL
GAST_HUCK


@<TRIPOS>ATOM
      1 CAA        92.2880   71.4320   30.7300 C.3       1 R5T        -0.0320
      2 CAX        91.5660   70.3580   31.5500 C.3       1 R5T         0.0905
      3 CAB        92.4210   70.0530   32.7780 C.3       1 R5T        -0.0320
      4 CAC        91.4510   69.0500   30.7530 C.3       1 R5T        -0.0320
      5 OAQ        90.2810   70.8360   32.0230 O.3       1 R5T        -0.2579
      6 CAR        89.3050   71.1730   31.1210 C.2       1 R5T         0.3240
      7 OAD        89.4670   70.9960   29.9150 O.2       1 R5T        -0.3773
      8 N          88.1410   71.7070   31.5490 N.am      1 R5T        -0.2313
      9 CA         87.0760   72.0470   30.5810 C.3       1 R5T         0.1649
     10 C          87.1450   73.5090   30.1140 C.2       1 R5T         0.2352
     11 O          86.8680   73.7950   28.9520 O.2       1 R5T        -0.3916
     12 NAO        87.4970   74.4180   31.0310 N.am      1 R5T        -0.1608
     13 OAF        87.5500   75.8140   30.5740 O.3       1 R5T        -0.2715
     14 CAT        85.8060   71.7880   31.0920 C.ar      1 R5T        -0.0050
     15 CAJ        85.1630   70.6300   30.6790 C.ar      1 R5T        -0.0588
     16 CAL        83.8910   70.3340   31.1430 C.ar      1 R5T        -0.0305
     17 CAI        85.1690   72.6650   31.9650 C.ar      1 R5T        -0.0588
     18 CAK        83.8920   72.3680   32.4330 C.ar      1 R5T        -0.0305
     19 CAU        83.2540   71.2000   32.0230 C.ar      1 R5T         0.1062
     20 NAW        82.0310   70.9160   32.4620 N.pl3     1 R5T        -0.1678
     21 NAN        81.4890   71.4020   33.4240 N.2       1 R5T        -0.2075
     22 CAH        80.2670   70.8900   33.5610 C.2       1 R5T        -0.0061
     23 CAG        80.0890   70.0270   32.5730 C.2       1 R5T        -0.0478
     24 CAM        81.2120   70.0450   31.8730 C.2       1 R5T         0.0630
     25 H          93.2569   71.0410   30.3860 H         1 R5T         0.0260
     26 H          92.4529   72.3217   31.3554 H         1 R5T         0.0260
     27 H          91.6727   71.7043   29.8598 H         1 R5T         0.0260
     28 H          91.9258   69.2827   33.3874 H         1 R5T         0.0260
     29 H          92.5455   70.9686   33.3748 H         1 R5T         0.0260
     30 H          93.4076   69.6879   32.4564 H         1 R5T         0.0260
     31 H          90.8404   69.2209   29.8541 H         1 R5T         0.0260
     32 H          90.9754   68.2801   31.3784 H         1 R5T         0.0260
     33 H          92.4548   68.7123   30.4557 H         1 R5T         0.0260
     34 H          87.9985   71.8733   32.5247 H         1 R5T         0.1923
     35 H          87.2219   71.4064   29.6988 H         1 R5T         0.0947
     36 H          87.7118   74.1620   31.9735 H         1 R5T         0.2219
     37 H          88.1835   75.8918   29.8703 H         1 R5T         0.2490
     38 H          85.6574   69.9541   29.9907 H         1 R5T         0.0547
     39 H          83.3933   69.4270   30.8194 H         1 R5T         0.0575
     40 H          85.6654   73.5760   32.2794 H         1 R5T         0.0547
     41 H          83.3941   73.0460   33.1167 H         1 R5T         0.0575
     42 H          79.5478   71.1357   34.3410 H         1 R5T         0.0654
     43 H          79.2020   69.4265   32.3768 H         1 R5T         0.0343
     44 H          81.4269   69.4575   30.9816 H         1 R5T         0.0991
@<TRIPOS>BOND
     1    1    2 1  
     2    2    3 1  
     3    2    4 1  
     4    2    5 1  
     5    5    6 1  
     6    6    7 2  
     7    6    8 am 
     8    8    9 1  
     9    9   10 1  
    10    9   14 1  
    11   10   11 2  
    12   10   12 am 
    13   12   13 1  
    14   14   15 ar 
    15   14   17 ar 
    16   15   16 ar 
    17   16   19 ar 
    18   17   18 ar 
    19   18   19 ar 
    20   19   20 1  
    21   20   21 1  
    22   20   24 1  
    23   21   22 2  
    24   22   23 1  
    25   23   24 2  
    26    1   25 1  
    27    1   26 1  
    28    1   27 1  
    29    3   28 1  
    30    3   29 1  
    31    3   30 1  
    32    4   31 1  
    33    4   32 1  
    34    4   33 1  
    35    8   34 1  
    36    9   35 1  
    37   12   36 1  
    38   13   37 1  
    39   15   38 1  
    40   16   39 1  
    41   17   40 1  
    42   18   41 1  
    43   22   42 1  
    44   23   43 1  
    45   24   44 1  
@<TRIPOS>SUBSTRUCTURE
     1 R5T         1

