### 
### Created by X-TOOL on Mon Sep 10 21:13:17 2018
### 

@<TRIPOS>MOLECULE
4r6v_ligand
   87    91     1     0     0
SMALL
GAST_HUCK


@<TRIPOS>ATOM
      1 CAV       -51.4770  146.1460    2.7180 C.3       1 FI3        -0.0477
      2 CAW       -52.3740  147.3010    2.8150 C.3       1 FI3         0.0400
      3 CBL       -53.6710  146.9610    2.0790 C.2       1 FI3         0.2015
      4 OAF       -53.6060  146.7880    0.8650 O.2       1 FI3        -0.3858
      5 NBF       -54.9320  146.8290    2.8500 N.am      1 FI3        -0.2378
      6 CBO       -56.2050  146.4890    2.3010 C.ar      1 FI3         0.0596
      7 CAO       -57.2890  146.1510    3.1180 C.ar      1 FI3        -0.0473
      8 CAM       -58.4930  145.8230    2.5650 C.ar      1 FI3        -0.0708
      9 CAN       -56.3470  146.4630    0.9610 C.ar      1 FI3        -0.0473
     10 CAL       -57.5390  146.1300    0.4010 C.ar      1 FI3        -0.0708
     11 CBN       -58.5830  145.8130    1.2080 C.ar      1 FI3        -0.0290
     12 CBC       -59.8130  145.4880    0.4260 C.3       1 FI3         0.0890
     13 NCB       -60.9810  144.8520    1.0660 N.am      1 FI3        -0.1710
     14 CBM       -60.9990  143.4250    1.2280 C.2       1 FI3         0.3290
     15 OAG       -60.0610  142.8320    0.9020 O.2       1 FI3        -0.3766
     16 NBG       -62.1470  142.7830    1.7610 N.am      1 FI3        -0.2157
     17 CBX       -62.2350  141.3400    1.9470 C.ar      1 FI3         0.0785
     18 CBU       -62.1170  140.4240    0.9060 C.ar      1 FI3         0.0747
     19 CLI       -61.8200  140.8750   -0.7290 Cl        1 FI3        -0.1012
     20 CBT       -62.4900  140.8940    3.2090 C.ar      1 FI3         0.0747
     21 CLH       -62.6360  142.1340    4.3170 Cl        1 FI3        -0.1012
     22 CBV       -62.6230  139.5620    3.4870 C.ar      1 FI3         0.0840
     23 OBI       -62.8760  139.1440    4.8010 O.3       1 FI3        -0.3264
     24 CAA       -63.5660  137.9940    4.9720 C.3       1 FI3         0.0592
     25 CAU       -62.4750  138.6600    2.4320 C.ar      1 FI3        -0.0187
     26 CBW       -62.2300  139.0830    1.1510 C.ar      1 FI3         0.0840
     27 OBJ       -62.1030  138.1910    0.0580 O.3       1 FI3        -0.3264
     28 CAB       -61.9020  136.8220    0.3360 C.3       1 FI3         0.0592
     29 C4        -62.0920  145.6650    1.4020 C.ar      1 FI3         0.1463
     30 C5        -61.9450  147.0370    1.5070 C.ar      1 FI3         0.0272
     31 N3        -63.2580  145.1320    1.6090 N.ar      1 FI3        -0.2687
     32 C2        -64.2580  145.9480    1.9090 C.ar      1 FI3         0.0543
     33 N1        -64.2140  147.2490    2.0280 N.ar      1 FI3        -0.2703
     34 C6        -63.0700  147.8350    1.8440 C.ar      1 FI3         0.1268
     35 NBH       -62.9480  149.1940    1.9500 N.pl3     1 FI3        -0.2651
     36 CBP       -61.7110  149.7920    2.0540 C.ar      1 FI3         0.0507
     37 CAQ       -60.7440  149.2180    2.8830 C.ar      1 FI3        -0.0492
     38 CAS       -59.4960  149.7950    3.0280 C.ar      1 FI3        -0.0529
     39 CAP       -61.4490  150.9300    1.3910 C.ar      1 FI3        -0.0492
     40 CAR       -60.1950  151.5100    1.5300 C.ar      1 FI3        -0.0529
     41 CBR       -59.2320  150.8960    2.3550 C.ar      1 FI3         0.0296
     42 NCA       -57.9030  151.4480    2.5420 N.pl3     1 FI3        -0.3045
     43 CAZ       -57.5350  152.5930    1.9660 C.3       1 FI3         0.0649
     44 CAX       -56.2240  153.0490    2.1910 C.3       1 FI3        -0.0123
     45 NBZ       -55.3680  152.3750    2.9800 N.4       1 FI3         0.2358
     46 CAC       -54.0840  152.8470    3.1990 C.3       1 FI3        -0.0430
     47 CAY       -55.7510  151.2300    3.5430 C.3       1 FI3        -0.0123
     48 CBA       -57.0590  150.7480    3.3190 C.3       1 FI3         0.0649
     49 H1        -50.5354  146.3681    3.2415 H         1 FI3         0.0254
     50 H2        -51.2666  145.9330    1.6595 H         1 FI3         0.0254
     51 H3        -51.9557  145.2701    3.1802 H         1 FI3         0.0254
     52 H4        -51.9017  148.1794    2.3510 H         1 FI3         0.0504
     53 H5        -52.5909  147.5165    3.8716 H         1 FI3         0.0504
     54 H6        -54.8862  146.9917    3.8356 H         1 FI3         0.2234
     55 H7        -57.1722  146.1496    4.1957 H         1 FI3         0.0487
     56 H8        -59.3476  145.5790    3.1857 H         1 FI3         0.0521
     57 H9        -55.5041  146.7096    0.3256 H         1 FI3         0.0487
     58 H10       -57.6548  146.1176   -0.6767 H         1 FI3         0.0521
     59 H11       -59.4978  144.8156   -0.3854 H         1 FI3         0.0733
     60 H12       -60.1701  146.4365   -0.0016 H         1 FI3         0.0733
     61 H13       -62.9313  143.3463    2.0208 H         1 FI3         0.2269
     62 H14       -63.6870  137.7954    6.0471 H         1 FI3         0.0578
     63 H15       -63.0160  137.1635    4.5054 H         1 FI3         0.0578
     64 H16       -64.5565  138.0874    4.5027 H         1 FI3         0.0578
     65 H17       -62.5559  137.5974    2.6307 H         1 FI3         0.0346
     66 H18       -61.8233  136.2638   -0.6086 H         1 FI3         0.0578
     67 H19       -62.7517  136.4377    0.9193 H         1 FI3         0.0578
     68 H20       -60.9743  136.6975    0.9138 H         1 FI3         0.0578
     69 H21       -60.9796  147.4984    1.3335 H         1 FI3         0.0542
     70 H22       -65.2233  145.4834    2.0747 H         1 FI3         0.1036
     71 H23       -63.7952  149.7797    1.9521 H         1 FI3         0.2116
     72 H24       -60.9758  148.3059    3.4210 H         1 FI3         0.0506
     73 H25       -58.7523  149.3517    3.6802 H         1 FI3         0.0490
     74 H26       -62.2021  151.3871    0.7593 H         1 FI3         0.0506
     75 H27       -59.9585  152.4295    1.0070 H         1 FI3         0.0490
     76 H28       -58.2203  153.3754    2.3241 H         1 FI3         0.0562
     77 H29       -57.6568  152.4678    0.8800 H         1 FI3         0.0562
     78 H30       -56.3164  154.0560    2.6238 H         1 FI3         0.0834
     79 H31       -55.7459  153.1170    1.2027 H         1 FI3         0.0834
     80 H32       -55.6978  152.8887    3.7821 H         1 FI3         0.2032
     81 H33       -53.5486  152.1566    3.8673 H         1 FI3         0.0778
     82 H34       -54.1336  153.8427    3.6639 H         1 FI3         0.0778
     83 H35       -53.5502  152.9164    2.2397 H         1 FI3         0.0778
     84 H36       -55.6379  151.3545    4.6300 H         1 FI3         0.0834
     85 H37       -55.0585  150.4521    3.1889 H         1 FI3         0.0834
     86 H38       -56.9581  149.7518    2.8635 H         1 FI3         0.0562
     87 H39       -57.5373  150.6536    4.3051 H         1 FI3         0.0562
@<TRIPOS>BOND
     1    1    2 1  
     2    2    3 1  
     3    3    4 2  
     4    3    5 am 
     5    5    6 1  
     6    6    7 ar 
     7    6    9 ar 
     8    7    8 ar 
     9    8   11 ar 
    10    9   10 ar 
    11   10   11 ar 
    12   11   12 1  
    13   12   13 1  
    14   13   14 am 
    15   13   29 1  
    16   14   15 2  
    17   14   16 am 
    18   16   17 1  
    19   17   18 ar 
    20   17   20 ar 
    21   18   19 1  
    22   18   26 ar 
    23   20   21 1  
    24   20   22 ar 
    25   22   23 1  
    26   22   25 ar 
    27   23   24 1  
    28   25   26 ar 
    29   26   27 1  
    30   27   28 1  
    31   29   30 ar 
    32   29   31 ar 
    33   30   34 ar 
    34   31   32 ar 
    35   32   33 ar 
    36   33   34 ar 
    37   34   35 1  
    38   35   36 1  
    39   36   37 ar 
    40   36   39 ar 
    41   37   38 ar 
    42   38   41 ar 
    43   39   40 ar 
    44   40   41 ar 
    45   41   42 1  
    46   42   43 1  
    47   42   48 1  
    48   43   44 1  
    49   44   45 1  
    50   45   46 1  
    51   45   47 1  
    52   47   48 1  
    53    1   49 1  
    54    1   50 1  
    55    1   51 1  
    56    2   52 1  
    57    2   53 1  
    58    5   54 1  
    59    7   55 1  
    60    8   56 1  
    61    9   57 1  
    62   10   58 1  
    63   12   59 1  
    64   12   60 1  
    65   16   61 1  
    66   24   62 1  
    67   24   63 1  
    68   24   64 1  
    69   25   65 1  
    70   28   66 1  
    71   28   67 1  
    72   28   68 1  
    73   30   69 1  
    74   32   70 1  
    75   35   71 1  
    76   37   72 1  
    77   38   73 1  
    78   39   74 1  
    79   40   75 1  
    80   43   76 1  
    81   43   77 1  
    82   44   78 1  
    83   44   79 1  
    84   45   80 1  
    85   46   81 1  
    86   46   82 1  
    87   46   83 1  
    88   47   84 1  
    89   47   85 1  
    90   48   86 1  
    91   48   87 1  
@<TRIPOS>SUBSTRUCTURE
     1 FI3         1

