### 
### Created by X-TOOL on Mon Sep 10 21:13:16 2018
### 

@<TRIPOS>MOLECULE
4r6w_ligand
   46    48     1     0     0
SMALL
GAST_HUCK


@<TRIPOS>ATOM
      1 N           8.5560   -0.4480   25.6340 N.4       1 SAH         0.2327
      2 CA          7.5370    0.3600   24.9230 C.3       1 SAH         0.0291
      3 CB          7.4760    1.8100   25.5300 C.3       1 SAH         0.0114
      4 CG          8.7610    2.6190   25.3550 C.3       1 SAH         0.0005
      5 SD          8.6250    4.3260   25.9590 S.3       1 SAH        -0.1578
      6 C           7.7930    0.3540   23.4660 C.2       1 SAH         0.0844
      7 O           8.8720   -0.0360   23.0490 O.co2     1 SAH        -0.5643
      8 OXT         6.9670    0.8240   22.7110 O.co2     1 SAH        -0.5643
      9 C5'         9.4240    4.3730   27.5780 C.3       1 SAH         0.0226
     10 C4'         8.5930    3.9820   28.6680 C.3       1 SAH         0.0995
     11 O4'         9.4090    3.8010   29.8480 O.3       1 SAH        -0.3383
     12 C3'         7.6890    5.1190   28.9540 C.3       1 SAH         0.1132
     13 O3'         6.3590    4.7160   28.7080 O.3       1 SAH        -0.3864
     14 C2'         7.9490    5.4710   30.3590 C.3       1 SAH         0.1385
     15 O2'         6.7640    5.7960   31.0430 O.3       1 SAH        -0.3836
     16 C1'         8.6190    4.2470   30.9100 C.3       1 SAH         0.2009
     17 N9          9.4080    4.5120   32.1710 N.pl3     1 SAH        -0.1919
     18 C8         10.3620    5.4240   32.3600 C.2       1 SAH         0.1123
     19 N7         10.8130    5.3120   33.6070 N.2       1 SAH        -0.2958
     20 C5         10.1450    4.3220   34.2280 C.ar      1 SAH         0.1045
     21 C6         10.2000    3.7820   35.5210 C.ar      1 SAH         0.1298
     22 N6         11.0410    4.2850   36.4820 N.pl3     1 SAH        -0.3152
     23 N1          9.3570    2.7690   35.8060 N.ar      1 SAH        -0.2698
     24 C2          8.5100    2.2780   34.8900 C.ar      1 SAH         0.0533
     25 N3          8.4300    2.7940   33.6330 N.ar      1 SAH        -0.2714
     26 C4          9.2460    3.7960   33.2950 C.ar      1 SAH         0.1613
     27 H           8.3662   -0.4327   26.6238 H         1 SAH         0.2010
     28 H           9.4711   -0.0622   25.4614 H         1 SAH         0.2010
     29 H           8.5237   -1.3986   25.3004 H         1 SAH         0.2010
     30 H           6.5558   -0.1093   25.0871 H         1 SAH         0.1024
     31 H           7.2666    1.7245   26.6065 H         1 SAH         0.0347
     32 H           6.6562    2.3549   25.0391 H         1 SAH         0.0347
     33 H           9.0127    2.6468   24.2846 H         1 SAH         0.0379
     34 H           9.5678    2.1164   25.9085 H         1 SAH         0.0379
     35 H           9.7657    5.4024   27.7608 H         1 SAH         0.0402
     36 H          10.2920    3.6979   27.5506 H         1 SAH         0.0402
     37 H           8.0311    3.0671   28.4288 H         1 SAH         0.0632
     38 H           7.9275    5.9765   28.3076 H         1 SAH         0.0647
     39 H           6.1423    3.9823   29.2712 H         1 SAH         0.2100
     40 H           8.6311    6.3321   30.4158 H         1 SAH         0.0676
     41 H           6.1750    5.0508   31.0254 H         1 SAH         0.2101
     42 H           7.8591    3.4878   31.1467 H         1 SAH         0.0996
     43 H          10.7131    6.1402   31.6186 H         1 SAH         0.1349
     44 H          11.0575    3.8656   37.4226 H         1 SAH         0.1820
     45 H          11.6556    5.0819   36.2626 H         1 SAH         0.1820
     46 H           7.8699    1.4454   35.1584 H         1 SAH         0.0996
@<TRIPOS>BOND
     1    1    2 1  
     2    2    3 1  
     3    2    6 1  
     4    3    4 1  
     5    4    5 1  
     6    5    9 1  
     7    6    7 ar 
     8    6    8 ar 
     9    9   10 1  
    10   10   11 1  
    11   10   12 1  
    12   11   16 1  
    13   12   13 1  
    14   12   14 1  
    15   14   15 1  
    16   14   16 1  
    17   16   17 1  
    18   17   18 1  
    19   17   26 1  
    20   18   19 2  
    21   19   20 1  
    22   20   21 ar 
    23   20   26 ar 
    24   21   22 1  
    25   21   23 ar 
    26   23   24 ar 
    27   24   25 ar 
    28   25   26 ar 
    29    1   27 1  
    30    1   28 1  
    31    1   29 1  
    32    2   30 1  
    33    3   31 1  
    34    3   32 1  
    35    4   33 1  
    36    4   34 1  
    37    9   35 1  
    38    9   36 1  
    39   10   37 1  
    40   12   38 1  
    41   13   39 1  
    42   14   40 1  
    43   15   41 1  
    44   16   42 1  
    45   18   43 1  
    46   22   44 1  
    47   22   45 1  
    48   24   46 1  
@<TRIPOS>SUBSTRUCTURE
     1 SAH         1

