### 
### Created by X-TOOL on Mon Sep 10 21:13:19 2018
### 

@<TRIPOS>MOLECULE
4r6x_ligand
   46    48     1     0     0
SMALL
GAST_HUCK


@<TRIPOS>ATOM
      1 N           8.4590   -0.6280   25.4500 N.4       1 SAH         0.2327
      2 CA          7.6180    0.3390   24.7130 C.3       1 SAH         0.0291
      3 CB          7.7650    1.7920   25.3280 C.3       1 SAH         0.0114
      4 CG          8.9730    2.6150   24.8650 C.3       1 SAH         0.0005
      5 SD          9.0910    4.3420   25.4410 S.3       1 SAH        -0.1578
      6 C           7.9120    0.2400   23.2680 C.2       1 SAH         0.0844
      7 O           9.0350   -0.0540   22.9010 O.co2     1 SAH        -0.5643
      8 OXT         7.0360    0.4280   22.4560 O.co2     1 SAH        -0.5643
      9 C5'         9.7370    4.3590   27.1290 C.3       1 SAH         0.0226
     10 C4'         8.8940    3.9640   28.2010 C.3       1 SAH         0.0995
     11 O4'         9.7230    3.6980   29.3650 O.3       1 SAH        -0.3383
     12 C3'         8.0340    5.1050   28.5740 C.3       1 SAH         0.1132
     13 O3'         6.6830    4.8090   28.3100 O.3       1 SAH        -0.3864
     14 C2'         8.2450    5.3260   30.0020 C.3       1 SAH         0.1385
     15 O2'         7.0250    5.4220   30.6760 O.3       1 SAH        -0.3836
     16 C1'         8.9710    4.1130   30.4580 C.3       1 SAH         0.2009
     17 N9          9.7220    4.3740   31.7430 N.pl3     1 SAH        -0.1919
     18 C8         10.6670    5.2940   31.9850 C.2       1 SAH         0.1123
     19 N7         11.0460    5.1510   33.2590 N.2       1 SAH        -0.2958
     20 C5         10.3510    4.1530   33.8190 C.ar      1 SAH         0.1045
     21 C6         10.3380    3.5830   35.1010 C.ar      1 SAH         0.1298
     22 N6         11.1690    4.0530   36.0830 N.pl3     1 SAH        -0.3152
     23 N1          9.4950    2.5600   35.3460 N.ar      1 SAH        -0.2698
     24 C2          8.6850    2.0930   34.3980 C.ar      1 SAH         0.0533
     25 N3          8.6730    2.6230   33.1530 N.ar      1 SAH        -0.2714
     26 C4          9.4910    3.6450   32.8440 C.ar      1 SAH         0.1613
     27 H           8.2605   -0.5627   26.4361 H         1 SAH         0.2010
     28 H           9.4317   -0.4188   25.2885 H         1 SAH         0.2010
     29 H           8.2581   -1.5618   25.1280 H         1 SAH         0.2010
     30 H           6.5672    0.0432   24.8480 H         1 SAH         0.1024
     31 H           7.8323    1.6865   26.4208 H         1 SAH         0.0347
     32 H           6.8574    2.3572   25.0694 H         1 SAH         0.0347
     33 H           8.9549    2.6357   23.7654 H         1 SAH         0.0379
     34 H           9.8781    2.0917   25.2071 H         1 SAH         0.0379
     35 H          10.0602    5.3894   27.3383 H         1 SAH         0.0402
     36 H          10.6103    3.6904   27.1448 H         1 SAH         0.0402
     37 H           8.2951    3.0839   27.9241 H         1 SAH         0.0632
     38 H           8.3264    6.0007   28.0064 H         1 SAH         0.0647
     39 H           6.4225    4.0470   28.8141 H         1 SAH         0.2100
     40 H           8.8406    6.2344   30.1751 H         1 SAH         0.0676
     41 H           6.5360    4.6159   30.5597 H         1 SAH         0.2101
     42 H           8.2380    3.3229   30.6782 H         1 SAH         0.0996
     43 H          11.0543    6.0231   31.2748 H         1 SAH         0.1349
     44 H          11.1509    3.6269   37.0205 H         1 SAH         0.1820
     45 H          11.8121    4.8326   35.8840 H         1 SAH         0.1820
     46 H           8.0196    1.2690   34.6290 H         1 SAH         0.0996
@<TRIPOS>BOND
     1    1    2 1  
     2    2    3 1  
     3    2    6 1  
     4    3    4 1  
     5    4    5 1  
     6    5    9 1  
     7    6    7 ar 
     8    6    8 ar 
     9    9   10 1  
    10   10   11 1  
    11   10   12 1  
    12   11   16 1  
    13   12   13 1  
    14   12   14 1  
    15   14   15 1  
    16   14   16 1  
    17   16   17 1  
    18   17   18 1  
    19   17   26 1  
    20   18   19 2  
    21   19   20 1  
    22   20   21 ar 
    23   20   26 ar 
    24   21   22 1  
    25   21   23 ar 
    26   23   24 ar 
    27   24   25 ar 
    28   25   26 ar 
    29    1   27 1  
    30    1   28 1  
    31    1   29 1  
    32    2   30 1  
    33    3   31 1  
    34    3   32 1  
    35    4   33 1  
    36    4   34 1  
    37    9   35 1  
    38    9   36 1  
    39   10   37 1  
    40   12   38 1  
    41   13   39 1  
    42   14   40 1  
    43   15   41 1  
    44   16   42 1  
    45   18   43 1  
    46   22   44 1  
    47   22   45 1  
    48   24   46 1  
@<TRIPOS>SUBSTRUCTURE
     1 SAH         1

