### 
### Created by X-TOOL on Mon Sep 10 21:13:19 2018
### 

@<TRIPOS>MOLECULE
4r76_ligand
   43    45     1     0     0
SMALL
GAST_HUCK


@<TRIPOS>ATOM
      1 C10        80.7970   71.4510   33.0880 C.2       1 R5X        -0.0478
      2 C21        91.5320   70.8200   31.9050 C.ar      1 R5X        -0.0250
      3 C22        92.6530   70.2170   31.3420 C.ar      1 R5X         0.0407
      4 C24        92.2700   71.4060   29.2830 C.ar      1 R5X        -0.0680
      5 C01        84.2910   73.3140   32.3850 C.ar      1 R5X        -0.0305
      6 C02        85.5570   73.8120   32.1250 C.ar      1 R5X        -0.0588
      7 C03        86.4430   73.1290   31.2980 C.ar      1 R5X        -0.0050
      8 C04        86.0510   71.9310   30.7100 C.ar      1 R5X        -0.0588
      9 C05        84.7740   71.4290   30.9730 C.ar      1 R5X        -0.0305
     10 C06        83.8950   72.1190   31.8070 C.ar      1 R5X         0.1062
     11 N07        82.6740   71.6600   32.0760 N.pl3     1 R5X        -0.1678
     12 N08        82.0610   70.8230   31.4740 N.2       1 R5X        -0.2075
     13 C09        80.8720   70.6350   32.0470 C.2       1 R5X        -0.0061
     14 C11        81.9480   72.1050   33.1030 C.2       1 R5X         0.0630
     15 C12        87.6900   73.7380   31.1020 C.3       1 R5X         0.1628
     16 N13        88.8460   72.8880   30.7680 N.am      1 R5X        -0.2553
     17 C14        87.5870   74.7910   30.0020 C.2       1 R5X         0.2352
     18 O15        87.2330   74.4910   28.8630 O.2       1 R5X        -0.3916
     19 N16        87.9410   76.0230   30.3840 N.am      1 R5X        -0.1608
     20 O17        87.8810   77.0340   29.4100 O.3       1 R5X        -0.2715
     21 C18        89.6580   72.3440   31.6840 C.2       1 R5X         0.2057
     22 C19        90.7710   71.7050   31.1490 C.ar      1 R5X         0.0384
     23 O20        89.4920   72.4280   32.8990 O.2       1 R5X        -0.3844
     24 C23        93.0230   70.5100   30.0330 C.ar      1 R5X        -0.0404
     25 C25        91.1500   72.0060   29.8450 C.ar      1 R5X        -0.0553
     26 N26        93.3760   69.3570   32.0570 N.pl3     1 R5X        -0.3362
     27 H          79.9659   71.5604   33.7831 H         1 R5X         0.0343
     28 H          91.2531   70.6005   32.9293 H         1 R5X         0.0565
     29 H          92.5557   71.6358   28.2629 H         1 R5X         0.0594
     30 H          83.6147   73.8557   33.0363 H         1 R5X         0.0575
     31 H          85.8628   74.7502   32.5737 H         1 R5X         0.0547
     32 H          86.7279   71.3935   30.0558 H         1 R5X         0.0547
     33 H          84.4631   70.4927   30.5237 H         1 R5X         0.0575
     34 H          80.1025   69.9377   31.7191 H         1 R5X         0.0654
     35 H          82.2472   72.8664   33.8217 H         1 R5X         0.0991
     36 H          87.9335   74.2448   32.0474 H         1 R5X         0.0947
     37 H          89.0352   72.7069   29.8029 H         1 R5X         0.1901
     38 H          88.2350   76.2158   31.3202 H         1 R5X         0.2219
     39 H          88.4596   76.8129   28.6896 H         1 R5X         0.2490
     40 H          93.8978   70.0399   29.5984 H         1 R5X         0.0550
     41 H          90.5683   72.7126   29.2641 H         1 R5X         0.0557
     42 H          93.1052   69.1377   33.0263 H         1 R5X         0.1718
     43 H          94.2060   68.9112   31.6407 H         1 R5X         0.1718
@<TRIPOS>BOND
     1    1   13 1  
     2   14    1 2  
     3    2    3 ar 
     4   22    2 ar 
     5    3   24 ar 
     6    3   26 1  
     7   24    4 ar 
     8    4   25 ar 
     9    6    5 ar 
    10    5   10 ar 
    11    7    6 ar 
    12    7    8 ar 
    13   15    7 1  
    14    8    9 ar 
    15    9   10 ar 
    16   10   11 1  
    17   11   12 1  
    18   11   14 1  
    19   12   13 2  
    20   16   15 1  
    21   15   17 1  
    22   21   16 am 
    23   17   18 2  
    24   17   19 am 
    25   19   20 1  
    26   21   22 1  
    27   21   23 2  
    28   22   25 ar 
    29    1   27 1  
    30    2   28 1  
    31    4   29 1  
    32    5   30 1  
    33    6   31 1  
    34    8   32 1  
    35    9   33 1  
    36   13   34 1  
    37   14   35 1  
    38   15   36 1  
    39   16   37 1  
    40   19   38 1  
    41   20   39 1  
    42   24   40 1  
    43   25   41 1  
    44   26   42 1  
    45   26   43 1  
@<TRIPOS>SUBSTRUCTURE
     1 R5X         1

