### 
### Created by X-TOOL on Mon Sep 10 21:13:20 2018
### 

@<TRIPOS>MOLECULE
4r7m_ligand
   43    45     1     0     0
SMALL
GAST_HUCK


@<TRIPOS>ATOM
      1 C10        80.5240   69.7790   31.7690 C.2       1 3MW        -0.0478
      2 C21        90.5400   71.2070   29.5200 C.ar      1 3MW        -0.0535
      3 C22        91.7370   70.6840   29.0340 C.ar      1 3MW        -0.0384
      4 C24        92.6740   70.7000   31.2520 C.ar      1 3MW        -0.0384
      5 C23        92.8030   70.4310   29.8960 C.ar      1 3MW         0.0407
      6 N26        93.9470   69.9320   29.4310 N.pl3     1 3MW        -0.3340
      7 C25        91.4800   71.2180   31.7350 C.ar      1 3MW        -0.0535
      8 C19        90.4080   71.4600   30.8810 C.ar      1 3MW         0.0364
      9 C18        89.2510   72.0050   31.4300 C.2       1 3MW         0.1990
     10 O20        89.0910   72.0090   32.6480 O.2       1 3MW        -0.3906
     11 N13        88.3890   72.5790   30.5750 N.am      1 3MW        -0.2571
     12 C12        87.2120   73.3140   31.0860 C.3       1 3MW         0.1625
     13 C14        86.9750   74.5810   30.2490 C.2       1 3MW         0.2352
     14 O15        85.8410   75.0330   30.0850 O.2       1 3MW        -0.3916
     15 N16        88.0820   75.1450   29.7530 N.am      1 3MW        -0.1608
     16 O17        87.8970   76.3320   28.9810 O.3       1 3MW        -0.2715
     17 C03        86.0030   72.6260   31.2120 C.ar      1 3MW        -0.0050
     18 C04        85.5550   71.6370   30.3390 C.ar      1 3MW        -0.0588
     19 C05        84.3100   71.0420   30.5650 C.ar      1 3MW        -0.0305
     20 C02        85.2060   73.0260   32.2760 C.ar      1 3MW        -0.0588
     21 C01        83.9740   72.4400   32.5000 C.ar      1 3MW        -0.0305
     22 C06        83.5240   71.4460   31.6470 C.ar      1 3MW         0.1062
     23 N07        82.3310   70.9160   31.9020 N.pl3     1 3MW        -0.1678
     24 N08        81.6610   71.2040   32.8760 N.2       1 3MW        -0.2075
     25 C09        80.5180   70.5280   32.8620 C.2       1 3MW        -0.0061
     26 C11        81.6760   70.0280   31.1580 C.2       1 3MW         0.0630
     27 H          79.7419   69.0970   31.4386 H         1 3MW         0.0343
     28 H          89.7192   71.4147   28.8431 H         1 3MW         0.0636
     29 H          91.8400   70.4720   27.9759 H         1 3MW         0.0530
     30 H          93.4990   70.5071   31.9281 H         1 3MW         0.0530
     31 H          94.0501   69.7299   28.4263 H         1 3MW         0.1738
     32 H          94.7286   69.7482   30.0761 H         1 3MW         0.1738
     33 H          91.3812   71.4370   32.7920 H         1 3MW         0.0636
     34 H          88.5436   72.5091   29.5895 H         1 3MW         0.1896
     35 H          87.4824   73.6349   32.1028 H         1 3MW         0.0947
     36 H          88.9893   74.7567   29.9140 H         1 3MW         0.2219
     37 H          88.7410   76.6471   28.6795 H         1 3MW         0.2490
     38 H          86.1638   71.3327   29.4953 H         1 3MW         0.0547
     39 H          83.9536   70.2649   29.8986 H         1 3MW         0.0575
     40 H          85.5544   73.8085   32.9403 H         1 3MW         0.0547
     41 H          83.3639   72.7566   33.3382 H         1 3MW         0.0575
     42 H          79.7259   70.5795   33.6075 H         1 3MW         0.0654
     43 H          82.0204   69.5881   30.2232 H         1 3MW         0.0991
@<TRIPOS>BOND
     1    1   25 1  
     2   26    1 2  
     3    2    3 ar 
     4    8    2 ar 
     5    3    5 ar 
     6    4    5 ar 
     7    7    4 ar 
     8    5    6 1  
     9    8    7 ar 
    10    9    8 1  
    11    9   10 2  
    12   11    9 am 
    13   12   11 1  
    14   12   13 1  
    15   17   12 1  
    16   13   14 2  
    17   13   15 am 
    18   15   16 1  
    19   18   17 ar 
    20   20   17 ar 
    21   19   18 ar 
    22   22   19 ar 
    23   21   20 ar 
    24   22   21 ar 
    25   23   22 1  
    26   23   24 1  
    27   23   26 1  
    28   24   25 2  
    29    1   27 1  
    30    2   28 1  
    31    3   29 1  
    32    4   30 1  
    33    6   31 1  
    34    6   32 1  
    35    7   33 1  
    36   11   34 1  
    37   12   35 1  
    38   15   36 1  
    39   16   37 1  
    40   18   38 1  
    41   19   39 1  
    42   20   40 1  
    43   21   41 1  
    44   25   42 1  
    45   26   43 1  
@<TRIPOS>SUBSTRUCTURE
     1 3MW         1

