### 
### Created by X-TOOL on Mon Sep 10 21:13:17 2018
### 

@<TRIPOS>MOLECULE
4r8y_ligand
   71    74     1     0     0
SMALL
GAST_HUCK


@<TRIPOS>ATOM
      1 C2         22.1780    9.9800   23.8510 C.cat     1 3KO         0.3302
      2 C3         21.4360   11.8940   22.8770 C.2       1 3KO         0.2516
      3 C4         21.0300   10.7540   21.9740 C.3       1 3KO         0.1892
      4 C7         26.0730   12.7510   20.4320 C.2       1 3KO         0.1787
      5 N1         22.0820   11.3520   23.9660 N.am      1 3KO        -0.2083
      6 C9         21.5700   10.8880   20.5420 C.3       1 3KO         0.0067
      7 C13        27.3680   12.5050   19.7150 C.3       1 3KO         0.0402
      8 C10        23.8540   11.8610   20.8720 C.3       1 3KO         0.0368
      9 C12        19.5070   10.6710   21.9240 C.3       1 3KO         0.0023
     10 C27        15.0300   11.0980   22.4530 C.3       1 3KO        -0.0528
     11 C28        29.4760   10.8680   22.3950 C.3       1 3KO        -0.0527
     12 C29        28.7030    9.6810   21.8840 C.3       1 3KO        -0.0527
     13 C30        14.4790   10.7290   23.8270 C.3       1 3KO        -0.0530
     14 C26        15.3340    9.7220   24.5930 C.3       1 3KO        -0.0528
     15 C25        16.8070   10.1090   24.6030 C.3       1 3KO        -0.0502
     16 C24        16.5120   11.4720   22.5020 C.3       1 3KO        -0.0502
     17 C23        29.0360   12.0870   21.6110 C.3       1 3KO        -0.0481
     18 C22        27.8310   10.1580   20.7440 C.3       1 3KO        -0.0481
     19 C14        24.8530   11.1820   18.8130 C.3       1 3KO         0.0342
     20 C16        23.0720   10.6680   20.3740 C.3       1 3KO        -0.0150
     21 C17        22.5960   12.1620   25.0650 C.3       1 3KO         0.0246
     22 C18        23.4940   10.5290   18.9250 C.3       1 3KO        -0.0278
     23 C19        18.8030   10.7150   23.2830 C.3       1 3KO        -0.0465
     24 C20        28.3340   11.5410   20.3960 C.3       1 3KO        -0.0241
     25 C21        17.3260   10.3730   23.1960 C.3       1 3KO        -0.0410
     26 N5         21.6030    9.6050   22.6650 N.pl3     1 3KO        -0.2320
     27 N6         24.9860   11.9890   20.0100 N.am      1 3KO        -0.2729
     28 N8         22.7160    9.2040   24.7390 N.pl3     1 3KO        -0.2540
     29 O11        21.1810   13.0630   22.6560 O.2       1 3KO        -0.3394
     30 O15        25.9960   13.5920   21.3220 O.2       1 3KO        -0.3969
     31 H          21.3358   11.9023   20.1867 H         1 3KO         0.0305
     32 H          21.0487   10.1501   19.9144 H         1 3KO         0.0305
     33 H          27.8801   13.4720   19.6028 H         1 3KO         0.0505
     34 H          27.1308   12.0982   18.7209 H         1 3KO         0.0505
     35 H          24.1821   11.6951   21.9087 H         1 3KO         0.0525
     36 H          23.2347   12.7689   20.8241 H         1 3KO         0.0525
     37 H          19.2344    9.7263   21.4308 H         1 3KO         0.0301
     38 H          19.1403   11.5170   21.3241 H         1 3KO         0.0301
     39 H          14.4618   11.9553   22.0628 H         1 3KO         0.0265
     40 H          14.9047   10.2377   21.7791 H         1 3KO         0.0265
     41 H          30.5538   10.7012   22.2516 H         1 3KO         0.0265
     42 H          29.2671   11.0170   23.4646 H         1 3KO         0.0265
     43 H          28.0761    9.2676   22.6878 H         1 3KO         0.0265
     44 H          29.3978    8.9070   21.5260 H         1 3KO         0.0265
     45 H          13.4758   10.2983   23.6924 H         1 3KO         0.0265
     46 H          14.4061   11.6475   24.4278 H         1 3KO         0.0265
     47 H          15.2301    8.7352   24.1182 H         1 3KO         0.0265
     48 H          14.9745    9.6691   25.6312 H         1 3KO         0.0265
     49 H          17.3886    9.2894   25.0502 H         1 3KO         0.0268
     50 H          16.9329   11.0198   25.2068 H         1 3KO         0.0268
     51 H          16.6286   12.4136   23.0586 H         1 3KO         0.0268
     52 H          16.8852   11.6041   21.4757 H         1 3KO         0.0268
     53 H          29.9067   12.6905   21.3150 H         1 3KO         0.0269
     54 H          28.3489   12.7034   22.2093 H         1 3KO         0.0269
     55 H          26.7778   10.2007   21.0585 H         1 3KO         0.0269
     56 H          27.9284    9.4855   19.8790 H         1 3KO         0.0269
     57 H          24.9046   11.8138   17.9140 H         1 3KO         0.0522
     58 H          25.6451   10.4199   18.7715 H         1 3KO         0.0522
     59 H          23.3570    9.7651   20.9339 H         1 3KO         0.0321
     60 H          23.0683   11.5080   25.8128 H         1 3KO         0.0484
     61 H          21.7674   12.7144   25.5321 H         1 3KO         0.0484
     62 H          23.3400   12.8743   24.6788 H         1 3KO         0.0484
     63 H          23.5581    9.4665   18.6475 H         1 3KO         0.0288
     64 H          22.7724   11.0367   18.2681 H         1 3KO         0.0288
     65 H          18.9044   11.7287   23.6980 H         1 3KO         0.0268
     66 H          19.2911    9.9933   23.9545 H         1 3KO         0.0268
     67 H          29.1195   11.3817   19.6426 H         1 3KO         0.0325
     68 H          17.2190    9.4515   22.6049 H         1 3KO         0.0301
     69 H          21.5788    8.6389   22.3087 H         1 3KO         0.3214
     70 H          23.1190    9.6057   25.5976 H         1 3KO         0.3199
     71 H          22.7405    8.1857   24.5861 H         1 3KO         0.3199
@<TRIPOS>BOND
     1    1    5 ar 
     2   26    1 ar 
     3    1   28 ar 
     4    3    2 1  
     5    2    5 am 
     6    2   29 2  
     7    3    6 1  
     8    9    3 1  
     9    3   26 1  
    10    4    7 1  
    11   27    4 am 
    12    4   30 2  
    13    5   21 1  
    14    6   20 1  
    15    7   24 1  
    16   20    8 1  
    17    8   27 1  
    18   23    9 1  
    19   10   13 1  
    20   16   10 1  
    21   12   11 1  
    22   17   11 1  
    23   18   12 1  
    24   14   13 1  
    25   15   14 1  
    26   25   15 1  
    27   25   16 1  
    28   24   17 1  
    29   24   18 1  
    30   22   19 1  
    31   19   27 1  
    32   20   22 1  
    33   23   25 1  
    34    6   31 1  
    35    6   32 1  
    36    7   33 1  
    37    7   34 1  
    38    8   35 1  
    39    8   36 1  
    40    9   37 1  
    41    9   38 1  
    42   10   39 1  
    43   10   40 1  
    44   11   41 1  
    45   11   42 1  
    46   12   43 1  
    47   12   44 1  
    48   13   45 1  
    49   13   46 1  
    50   14   47 1  
    51   14   48 1  
    52   15   49 1  
    53   15   50 1  
    54   16   51 1  
    55   16   52 1  
    56   17   53 1  
    57   17   54 1  
    58   18   55 1  
    59   18   56 1  
    60   19   57 1  
    61   19   58 1  
    62   20   59 1  
    63   21   60 1  
    64   21   61 1  
    65   21   62 1  
    66   22   63 1  
    67   22   64 1  
    68   23   65 1  
    69   23   66 1  
    70   24   67 1  
    71   25   68 1  
    72   26   69 1  
    73   28   70 1  
    74   28   71 1  
@<TRIPOS>SUBSTRUCTURE
     1 3KO         1

