### 
### Created by X-TOOL on Mon Sep 10 21:13:18 2018
### 

@<TRIPOS>MOLECULE
4r91_ligand
   73    76     1     0     0
SMALL
GAST_HUCK


@<TRIPOS>ATOM
      1 C12        24.9890   10.9550   20.6120 C.3       1 3KT        -0.0221
      2 C13        22.5380   10.5100   20.4660 C.3       1 3KT        -0.0322
      3 C3         21.1820   11.8200   23.2630 C.2       1 3KT         0.2516
      4 C1         22.0180    9.8910   24.1130 C.cat     1 3KT         0.3302
      5 C4         20.7250   10.6920   22.3600 C.3       1 3KT         0.1892
      6 C7         21.1330   10.9090   20.9060 C.3       1 3KT         0.0050
      7 N2         21.8810   11.2350   24.2880 N.am      1 3KT        -0.2083
      8 C9         19.2100   10.5510   22.3800 C.3       1 3KT         0.0023
      9 C11        22.5810   12.0080   25.3070 C.3       1 3KT         0.0246
     10 N5         22.6900    9.1440   24.9190 N.pl3     1 3KT        -0.2540
     11 N6         21.3420    9.5230   22.9820 N.pl3     1 3KT        -0.2320
     12 O8         20.9090   13.0080   23.1500 O.2       1 3KT        -0.3394
     13 N10        26.0170   11.6560   21.4630 N.4       1 3KT         0.2313
     14 C14        23.6260   11.3260   21.1670 C.3       1 3KT        -0.0069
     15 C15        18.5540   10.6240   23.7540 C.3       1 3KT        -0.0465
     16 C16        27.4260   11.6000   20.9710 C.3       1 3KT        -0.0224
     17 C17        17.0940   10.1950   23.7480 C.3       1 3KT        -0.0410
     18 C18        23.9940   10.5510   18.3860 C.3       1 3KT        -0.0477
     19 C19        25.0620   11.3430   19.1340 C.3       1 3KT        -0.0097
     20 C20        22.6040   10.8020   18.9710 C.3       1 3KT        -0.0498
     21 C21        27.8730   10.1460   20.8780 C.3       1 3KT        -0.0097
     22 C22        28.2620   12.2710   22.0340 C.3       1 3KT        -0.0097
     23 C23        16.1860   11.2190   23.0640 C.3       1 3KT        -0.0502
     24 C24        16.6510    9.9690   25.1890 C.3       1 3KT        -0.0502
     25 C25        15.1850    9.5510   25.2970 C.3       1 3KT        -0.0528
     26 C26        28.9370    9.9160   21.9190 C.3       1 3KT        -0.0478
     27 C27        29.1900   11.2290   22.6030 C.3       1 3KT        -0.0478
     28 C28        14.7400   10.7320   23.1180 C.3       1 3KT        -0.0528
     29 C29        14.2710   10.5090   24.5490 C.3       1 3KT        -0.0530
     30 H          25.1391    9.8684   20.6940 H         1 3KT         0.0851
     31 H          22.7015    9.4399   20.6612 H         1 3KT         0.0303
     32 H          20.4264   10.3396   20.2843 H         1 3KT         0.0304
     33 H          21.0223   11.9832   20.6968 H         1 3KT         0.0304
     34 H          18.9560    9.5770   21.9363 H         1 3KT         0.0301
     35 H          18.7880   11.3569   21.7616 H         1 3KT         0.0301
     36 H          22.2901   13.0660   25.2289 H         1 3KT         0.0484
     37 H          23.6667   11.9143   25.1570 H         1 3KT         0.0484
     38 H          22.3143   11.6271   26.3039 H         1 3KT         0.0484
     39 H          22.7637    8.1319   24.7426 H         1 3KT         0.3199
     40 H          23.1536    9.5588   25.7399 H         1 3KT         0.3199
     41 H          21.2774    8.5605   22.6211 H         1 3KT         0.3214
     42 H          25.9943   11.2383   22.3801 H         1 3KT         0.2019
     43 H          25.7523   12.6264   21.5290 H         1 3KT         0.2019
     44 H          23.4432   12.3976   20.9990 H         1 3KT         0.0322
     45 H          23.6019   11.1147   22.2462 H         1 3KT         0.0322
     46 H          18.6113   11.6620   24.1135 H         1 3KT         0.0268
     47 H          19.1080    9.9670   24.4407 H         1 3KT         0.0268
     48 H          27.5283   12.1039   19.9986 H         1 3KT         0.0850
     49 H          17.0124    9.2458   23.1981 H         1 3KT         0.0301
     50 H          24.2256    9.4783   18.4605 H         1 3KT         0.0267
     51 H          23.9978   10.8544   17.3287 H         1 3KT         0.0267
     52 H          26.0568   11.0996   18.7327 H         1 3KT         0.0320
     53 H          24.8748   12.4211   19.0212 H         1 3KT         0.0320
     54 H          22.3367   11.8561   18.8053 H         1 3KT         0.0268
     55 H          21.8812   10.1546   18.4529 H         1 3KT         0.0268
     56 H          28.2815    9.9448   19.8767 H         1 3KT         0.0320
     57 H          27.0177    9.4802   21.0657 H         1 3KT         0.0320
     58 H          27.6124   12.6691   22.8274 H         1 3KT         0.0320
     59 H          28.8451   13.0919   21.5911 H         1 3KT         0.0320
     60 H          16.4936   11.3390   22.0148 H         1 3KT         0.0268
     61 H          16.2671   12.1856   23.5828 H         1 3KT         0.0268
     62 H          16.7927   10.9037   25.7514 H         1 3KT         0.0268
     63 H          17.2757    9.1779   25.6292 H         1 3KT         0.0268
     64 H          14.8954    9.5372   26.3581 H         1 3KT         0.0265
     65 H          15.0694    8.5430   24.8721 H         1 3KT         0.0265
     66 H          29.8602    9.5581   21.4399 H         1 3KT         0.0267
     67 H          28.5914    9.1715   22.6513 H         1 3KT         0.0267
     68 H          29.0065   11.1229   23.6824 H         1 3KT         0.0267
     69 H          30.2333   11.5353   22.4368 H         1 3KT         0.0267
     70 H          14.6630    9.7835   22.5663 H         1 3KT         0.0265
     71 H          14.0928   11.4851   22.6447 H         1 3KT         0.0265
     72 H          14.2596   11.4750   25.0751 H         1 3KT         0.0265
     73 H          13.2542   10.0899   24.5297 H         1 3KT         0.0265
@<TRIPOS>BOND
     1    1   13 1  
     2   14    1 1  
     3    1   19 1  
     4    6    2 1  
     5    2   14 1  
     6    2   20 1  
     7    5    3 1  
     8    3    7 am 
     9    3   12 2  
    10    7    4 ar 
    11    4   10 ar 
    12    4   11 ar 
    13    5    6 1  
    14    5    8 1  
    15    5   11 1  
    16    7    9 1  
    17    8   15 1  
    18   13   16 1  
    19   15   17 1  
    20   16   21 1  
    21   16   22 1  
    22   17   23 1  
    23   17   24 1  
    24   19   18 1  
    25   18   20 1  
    26   21   26 1  
    27   22   27 1  
    28   23   28 1  
    29   24   25 1  
    30   25   29 1  
    31   26   27 1  
    32   28   29 1  
    33    1   30 1  
    34    2   31 1  
    35    6   32 1  
    36    6   33 1  
    37    8   34 1  
    38    8   35 1  
    39    9   36 1  
    40    9   37 1  
    41    9   38 1  
    42   10   39 1  
    43   10   40 1  
    44   11   41 1  
    45   13   42 1  
    46   13   43 1  
    47   14   44 1  
    48   14   45 1  
    49   15   46 1  
    50   15   47 1  
    51   16   48 1  
    52   17   49 1  
    53   18   50 1  
    54   18   51 1  
    55   19   52 1  
    56   19   53 1  
    57   20   54 1  
    58   20   55 1  
    59   21   56 1  
    60   21   57 1  
    61   22   58 1  
    62   22   59 1  
    63   23   60 1  
    64   23   61 1  
    65   24   62 1  
    66   24   63 1  
    67   25   64 1  
    68   25   65 1  
    69   26   66 1  
    70   26   67 1  
    71   27   68 1  
    72   27   69 1  
    73   28   70 1  
    74   28   71 1  
    75   29   72 1  
    76   29   73 1  
@<TRIPOS>SUBSTRUCTURE
     1 3KT         1

