### 
### Created by X-TOOL on Mon Sep 10 21:13:18 2018
### 

@<TRIPOS>MOLECULE
4r92_ligand
   70    73     1     0     0
SMALL
GAST_HUCK


@<TRIPOS>ATOM
      1 C1         21.3210   11.8320   23.2280 C.2       1 3KU         0.2516
      2 C2         20.9120   10.7230   22.2730 C.3       1 3KU         0.1892
      3 N3         21.4960    9.5480   22.9030 N.pl3     1 3KU        -0.2320
      4 C4         22.1270    9.8900   24.0750 C.cat     1 3KU         0.3302
      5 N5         22.0400   11.2540   24.2480 N.am      1 3KU        -0.2083
      6 O6         20.9910   12.9990   23.1300 O.2       1 3KU        -0.3394
      7 C7         19.3960   10.5560   22.2220 C.3       1 3KU         0.0023
      8 C8         22.9290   11.0380   20.6940 C.3       1 3KU        -0.0352
      9 C9         18.6980   10.5200   23.5880 C.3       1 3KU        -0.0465
     10 C10        17.2440   10.0750   23.5440 C.3       1 3KU        -0.0410
     11 C11        23.3790   12.1880   19.8090 C.3       1 3KU        -0.0270
     12 C12        24.8990   12.1330   19.6430 C.3       1 3KU         0.0420
     13 C13        25.3860   10.7850   19.1240 C.3       1 3KU        -0.0299
     14 C14        24.9360    9.6890   20.0660 C.3       1 3KU        -0.0507
     15 C15        23.4120    9.7060   20.1310 C.3       1 3KU        -0.0500
     16 C16        16.8070    9.7490   24.9690 C.3       1 3KU        -0.0502
     17 C17        15.3400    9.3440   25.0860 C.3       1 3KU        -0.0528
     18 C18        14.4240   10.3670   24.4230 C.3       1 3KU        -0.0530
     19 C19        14.8820   10.7200   23.0120 C.3       1 3KU        -0.0528
     20 C20        16.3460   11.1520   22.9480 C.3       1 3KU        -0.0502
     21 N21        22.7340    9.1050   24.9020 N.pl3     1 3KU        -0.2540
     22 N22        25.3890   13.2070   18.8180 N.am      1 3KU        -0.2813
     23 C23        25.7620   14.3990   19.4200 C.2       1 3KU         0.2153
     24 C24        21.4150   10.9760   20.8540 C.3       1 3KU         0.0049
     25 C25        22.6500   12.0160   25.3330 C.3       1 3KU         0.0246
     26 O26        25.6810   14.6460   20.6200 O.2       1 3KU        -0.3793
     27 C27        26.3040   15.4100   18.5030 C.ar      1 3KU         0.0697
     28 C28        26.4830   16.7050   18.9550 C.ar      1 3KU        -0.0141
     29 C29        27.0000   17.6220   18.0610 C.ar      1 3KU         0.0169
     30 C30        26.6360   15.0760   17.2070 C.ar      1 3KU        -0.0141
     31 C31        27.1570   16.0680   16.4020 C.ar      1 3KU         0.0169
     32 N32        27.3490   17.3360   16.7970 N.ar      1 3KU        -0.2918
     33 H          21.4436    8.5921   22.5229 H         1 3KU         0.3214
     34 H          19.1745    9.6126   21.7014 H         1 3KU         0.0301
     35 H          18.9797   11.3976   21.6489 H         1 3KU         0.0301
     36 H          23.3753   11.1830   21.6889 H         1 3KU         0.0302
     37 H          18.7344   11.5315   24.0188 H         1 3KU         0.0268
     38 H          19.2502    9.8247   24.2374 H         1 3KU         0.0268
     39 H          17.1645    9.1700   22.9238 H         1 3KU         0.0301
     40 H          23.0945   13.1431   20.2745 H         1 3KU         0.0290
     41 H          22.8984   12.1030   18.8232 H         1 3KU         0.0290
     42 H          25.3335   12.2685   20.6444 H         1 3KU         0.0556
     43 H          26.4844   10.7898   19.0653 H         1 3KU         0.0287
     44 H          24.9661   10.6038   18.1236 H         1 3KU         0.0287
     45 H          25.3526    9.8664   21.0685 H         1 3KU         0.0266
     46 H          25.2811    8.7135   19.6929 H         1 3KU         0.0266
     47 H          23.0027    9.5682   19.1193 H         1 3KU         0.0268
     48 H          23.0660    8.8888   20.7810 H         1 3KU         0.0268
     49 H          16.9721   10.6386   25.5945 H         1 3KU         0.0268
     50 H          17.4265    8.9194   25.3405 H         1 3KU         0.0268
     51 H          15.0750    9.2638   26.1506 H         1 3KU         0.0265
     52 H          15.1984    8.3683   24.5983 H         1 3KU         0.0265
     53 H          14.4157   11.2828   25.0323 H         1 3KU         0.0265
     54 H          13.4069    9.9513   24.3718 H         1 3KU         0.0265
     55 H          14.2571   11.5439   22.6369 H         1 3KU         0.0265
     56 H          14.7491    9.8371   22.3695 H         1 3KU         0.0265
     57 H          16.6288   11.3197   21.8983 H         1 3KU         0.0268
     58 H          16.4736   12.0854   23.5158 H         1 3KU         0.0268
     59 H          22.7668    8.0917   24.7205 H         1 3KU         0.3199
     60 H          23.1852    9.4924   25.7430 H         1 3KU         0.3199
     61 H          25.4591   13.0948   17.8268 H         1 3KU         0.1851
     62 H          20.9991   11.9357   20.5134 H         1 3KU         0.0304
     63 H          21.0397   10.1653   20.2122 H         1 3KU         0.0304
     64 H          22.4108   13.0828   25.2114 H         1 3KU         0.0484
     65 H          23.7413   11.8798   25.3084 H         1 3KU         0.0484
     66 H          22.2577   11.6598   26.2970 H         1 3KU         0.0484
     67 H          26.2279   16.9886   19.9697 H         1 3KU         0.0762
     68 H          27.1329   18.6419   18.4034 H         1 3KU         0.0837
     69 H          26.4926   14.0685   16.8335 H         1 3KU         0.0762
     70 H          27.4285   15.8064   15.3857 H         1 3KU         0.0837
@<TRIPOS>BOND
     1    2    1 1  
     2    1    5 am 
     3    1    6 2  
     4    2    3 1  
     5    2    7 1  
     6   24    2 1  
     7    3    4 ar 
     8    4    5 ar 
     9    4   21 ar 
    10    5   25 1  
    11    7    9 1  
    12    8   11 1  
    13    8   15 1  
    14    8   24 1  
    15    9   10 1  
    16   10   16 1  
    17   10   20 1  
    18   11   12 1  
    19   12   13 1  
    20   12   22 1  
    21   13   14 1  
    22   14   15 1  
    23   16   17 1  
    24   17   18 1  
    25   18   19 1  
    26   19   20 1  
    27   22   23 am 
    28   23   26 2  
    29   23   27 1  
    30   27   28 ar 
    31   27   30 ar 
    32   28   29 ar 
    33   29   32 ar 
    34   30   31 ar 
    35   31   32 ar 
    36    3   33 1  
    37    7   34 1  
    38    7   35 1  
    39    8   36 1  
    40    9   37 1  
    41    9   38 1  
    42   10   39 1  
    43   11   40 1  
    44   11   41 1  
    45   12   42 1  
    46   13   43 1  
    47   13   44 1  
    48   14   45 1  
    49   14   46 1  
    50   15   47 1  
    51   15   48 1  
    52   16   49 1  
    53   16   50 1  
    54   17   51 1  
    55   17   52 1  
    56   18   53 1  
    57   18   54 1  
    58   19   55 1  
    59   19   56 1  
    60   20   57 1  
    61   20   58 1  
    62   21   59 1  
    63   21   60 1  
    64   22   61 1  
    65   24   62 1  
    66   24   63 1  
    67   25   64 1  
    68   25   65 1  
    69   25   66 1  
    70   28   67 1  
    71   29   68 1  
    72   30   69 1  
    73   31   70 1  
@<TRIPOS>SUBSTRUCTURE
     1 3KU         1

