### 
### Created by X-TOOL on Mon Sep 10 21:13:18 2018
### 

@<TRIPOS>MOLECULE
4r93_ligand
   73    76     1     0     0
SMALL
GAST_HUCK


@<TRIPOS>ATOM
      1 C1         21.2960   11.9190   23.1090 C.2       1 779         0.2516
      2 C2         20.8880   10.7990   22.1680 C.3       1 779         0.1892
      3 N3         21.4340    9.6260   22.8430 N.pl3     1 779        -0.2320
      4 C4         22.0730    9.9810   24.0060 C.cat     1 779         0.3302
      5 N5         21.9820   11.3410   24.1490 N.am      1 779        -0.2083
      6 O6         21.0130   13.1010   22.9650 O.2       1 779        -0.3394
      7 C7         19.3650   10.6810   22.0970 C.3       1 779         0.0023
      8 C8         22.9630   11.0730   20.6140 C.3       1 779        -0.0352
      9 C9         18.6530   10.5960   23.4560 C.3       1 779        -0.0465
     10 C10        17.1800   10.1890   23.3820 C.3       1 779        -0.0410
     11 C11        23.3710   11.9700   19.4450 C.3       1 779        -0.0272
     12 C12        24.8930   12.0280   19.2760 C.3       1 779         0.0432
     13 C13        25.5270   10.6380   19.2010 C.3       1 779        -0.0300
     14 C14        25.0820    9.7560   20.3640 C.3       1 779        -0.0507
     15 C15        23.5580    9.6700   20.4590 C.3       1 779        -0.0500
     16 C16        16.6700    9.9420   24.7950 C.3       1 779        -0.0502
     17 C17        15.2100    9.4870   24.8320 C.3       1 779        -0.0528
     18 C18        14.3140   10.4650   24.0960 C.3       1 779        -0.0530
     19 C19        14.8350   10.7860   22.6990 C.3       1 779        -0.0528
     20 C20        16.2980   11.2260   22.6910 C.3       1 779        -0.0502
     21 N21        22.6790    9.1980   24.8380 N.pl3     1 779        -0.2540
     22 N22        25.2920   12.8110   18.1220 N.am      1 779        -0.2648
     23 C23        25.8300   14.0770   18.2970 C.2       1 779         0.2874
     24 C24        21.4440   11.0000   20.7510 C.3       1 779         0.0049
     25 C25        22.5630   12.1160   25.2360 C.3       1 779         0.0246
     26 O26        25.8470   14.6520   19.3810 O.2       1 779        -0.3904
     27 N27        26.3020   14.5980   17.1170 N.am      1 779        -0.2196
     28 C28        26.7720   15.9160   16.8940 C.ar      1 779         0.0665
     29 C29        27.2080   16.2230   15.6190 C.ar      1 779        -0.0416
     30 C30        27.6780   17.4950   15.3320 C.ar      1 779        -0.0757
     31 C31        27.6960   18.4670   16.3160 C.ar      1 779        -0.0773
     32 C32        27.2590   18.1710   17.5910 C.ar      1 779        -0.0757
     33 C33        26.8060   16.8950   17.8810 C.ar      1 779        -0.0416
     34 H          21.3512    8.6605   22.4939 H         1 779         0.3214
     35 H          19.1199    9.7729   21.5267 H         1 779         0.0301
     36 H          18.9794   11.5633   21.5651 H         1 779         0.0301
     37 H          23.3666   11.5147   21.5370 H         1 779         0.0302
     38 H          18.7117   11.5840   23.9359 H         1 779         0.0268
     39 H          19.1822    9.8560   24.0743 H         1 779         0.0268
     40 H          17.1122    9.2517   22.8103 H         1 779         0.0301
     41 H          22.9942   12.9871   19.6283 H         1 779         0.0290
     42 H          22.9250   11.5748   18.5204 H         1 779         0.0290
     43 H          25.2961   12.5271   20.1695 H         1 779         0.0554
     44 H          26.6216   10.7425   19.2304 H         1 779         0.0287
     45 H          25.2295   10.1601   18.2560 H         1 779         0.0287
     46 H          25.4742   10.1775   21.3013 H         1 779         0.0266
     47 H          25.4876    8.7438   20.2191 H         1 779         0.0266
     48 H          23.1617    9.2052   19.5442 H         1 779         0.0268
     49 H          23.2813    9.0586   21.3305 H         1 779         0.0268
     50 H          16.7607   10.8761   25.3688 H         1 779         0.0268
     51 H          17.2917    9.1634   25.2611 H         1 779         0.0268
     52 H          14.8818    9.4177   25.8796 H         1 779         0.0265
     53 H          15.1297    8.4984   24.3564 H         1 779         0.0265
     54 H          14.2569   11.3981   24.6756 H         1 779         0.0265
     55 H          13.3091   10.0266   24.0070 H         1 779         0.0265
     56 H          14.2236   11.5962   22.2750 H         1 779         0.0265
     57 H          14.7367    9.8865   22.0735 H         1 779         0.0265
     58 H          16.6322   11.3476   21.6501 H         1 779         0.0268
     59 H          16.3886   12.1863   23.2198 H         1 779         0.0268
     60 H          22.7060    8.1832   24.6638 H         1 779         0.3199
     61 H          23.1346    9.5892   25.6748 H         1 779         0.3199
     62 H          25.1792   12.4381   17.2010 H         1 779         0.1855
     63 H          21.0286   11.9406   20.3603 H         1 779         0.0304
     64 H          21.0937   10.1599   20.1333 H         1 779         0.0304
     65 H          22.3304   13.1814   25.0918 H         1 779         0.0484
     66 H          23.6541   11.9766   25.2433 H         1 779         0.0484
     67 H          22.1434   11.7756   26.1941 H         1 779         0.0484
     68 H          26.3154   13.9806   16.3305 H         1 779         0.2255
     69 H          27.1824   15.4676   14.8419 H         1 779         0.0501
     70 H          28.0322   17.7285   14.3344 H         1 779         0.0577
     71 H          28.0543   19.4637   16.0850 H         1 779         0.0486
     72 H          27.2703   18.9334   18.3615 H         1 779         0.0577
     73 H          26.4752   16.6573   18.8856 H         1 779         0.0501
@<TRIPOS>BOND
     1    2    1 1  
     2    1    5 am 
     3    1    6 2  
     4    2    3 1  
     5    2    7 1  
     6   24    2 1  
     7    3    4 ar 
     8    4    5 ar 
     9    4   21 ar 
    10    5   25 1  
    11    7    9 1  
    12    8   11 1  
    13    8   15 1  
    14    8   24 1  
    15    9   10 1  
    16   10   16 1  
    17   10   20 1  
    18   11   12 1  
    19   12   13 1  
    20   12   22 1  
    21   13   14 1  
    22   14   15 1  
    23   16   17 1  
    24   17   18 1  
    25   18   19 1  
    26   19   20 1  
    27   22   23 am 
    28   23   26 2  
    29   23   27 am 
    30   27   28 1  
    31   28   29 ar 
    32   28   33 ar 
    33   29   30 ar 
    34   30   31 ar 
    35   31   32 ar 
    36   32   33 ar 
    37    3   34 1  
    38    7   35 1  
    39    7   36 1  
    40    8   37 1  
    41    9   38 1  
    42    9   39 1  
    43   10   40 1  
    44   11   41 1  
    45   11   42 1  
    46   12   43 1  
    47   13   44 1  
    48   13   45 1  
    49   14   46 1  
    50   14   47 1  
    51   15   48 1  
    52   15   49 1  
    53   16   50 1  
    54   16   51 1  
    55   17   52 1  
    56   17   53 1  
    57   18   54 1  
    58   18   55 1  
    59   19   56 1  
    60   19   57 1  
    61   20   58 1  
    62   20   59 1  
    63   21   60 1  
    64   21   61 1  
    65   22   62 1  
    66   24   63 1  
    67   24   64 1  
    68   25   65 1  
    69   25   66 1  
    70   25   67 1  
    71   27   68 1  
    72   29   69 1  
    73   30   70 1  
    74   31   71 1  
    75   32   72 1  
    76   33   73 1  
@<TRIPOS>SUBSTRUCTURE
     1 779         1

