### 
### Created by X-TOOL on Mon Sep 10 21:13:18 2018
### 

@<TRIPOS>MOLECULE
4r95_ligand
   74    78     1     0     0
SMALL
GAST_HUCK


@<TRIPOS>ATOM
      1 C1         21.3380   11.7380   23.0900 C.2       1 3KW         0.2516
      2 C2         20.9030   10.6280   22.1760 C.3       1 3KW         0.1892
      3 N3         21.4700    9.4480   22.8160 N.pl3     1 3KW        -0.2320
      4 C4         22.1390    9.8000   23.9510 C.cat     1 3KW         0.3302
      5 N5         22.1050   11.1720   24.0620 N.am      1 3KW        -0.2083
      6 O6         21.0220   12.9110   22.9660 O.2       1 3KW        -0.3394
      7 C7         19.3770   10.5070   22.1260 C.3       1 3KW         0.0023
      8 C8         22.9690   10.9790   20.6360 C.3       1 3KW        -0.0352
      9 C9         18.6690   10.5140   23.4920 C.3       1 3KW        -0.0465
     10 C10        17.2140   10.0460   23.4640 C.3       1 3KW        -0.0410
     11 C11        23.4430   11.9660   19.5680 C.3       1 3KW        -0.0269
     12 C12        24.9760   11.9940   19.4670 C.3       1 3KW         0.0398
     13 C13        25.5390   10.5770   19.3110 C.3       1 3KW        -0.0298
     14 C14        25.1080    9.7230   20.4790 C.3       1 3KW        -0.0507
     15 C15        23.5890    9.6090   20.4540 C.3       1 3KW        -0.0500
     16 C16        16.7230    9.8380   24.8950 C.3       1 3KW        -0.0502
     17 C17        15.2640    9.3730   24.9340 C.3       1 3KW        -0.0528
     18 C18        14.3440   10.3500   24.2250 C.3       1 3KW        -0.0530
     19 C19        14.8200   10.5830   22.7960 C.3       1 3KW        -0.0528
     20 C20        16.2880   11.0260   22.7520 C.3       1 3KW        -0.0502
     21 N21        22.7120    9.0230   24.8110 N.pl3     1 3KW        -0.2540
     22 N22        25.3630   12.6800   18.2420 N.pl3     1 3KW        -0.3020
     23 C23        21.4520   10.8610   20.7590 C.3       1 3KW         0.0049
     24 C24        22.5260   11.9090   25.2370 C.3       1 3KW         0.0246
     25 C25        25.8070   14.0180   18.3560 C.ar      1 3KW         0.1103
     26 C26        25.6750   14.7340   19.5300 C.ar      1 3KW        -0.0089
     27 C27        26.1120   16.0390   19.5820 C.ar      1 3KW        -0.0394
     28 N28        26.3590   14.5650   17.2630 N.ar      1 3KW        -0.2919
     29 C29        26.7870   15.8340   17.3090 C.ar      1 3KW         0.0274
     30 C30        26.6710   16.6030   18.4580 C.ar      1 3KW        -0.0028
     31 C31        27.1000   17.9150   18.5010 C.ar      1 3KW        -0.0516
     32 C32        27.6620   18.4880   17.3790 C.ar      1 3KW        -0.0604
     33 C33        27.7960   17.7380   16.2260 C.ar      1 3KW        -0.0610
     34 C34        27.3620   16.4240   16.1990 C.ar      1 3KW        -0.0475
     35 H          21.3785    8.4852   22.4616 H         1 3KW         0.3214
     36 H          19.1279    9.5628   21.6196 H         1 3KW         0.0301
     37 H          18.9887   11.3519   21.5383 H         1 3KW         0.0301
     38 H          23.3309   11.3708   21.5980 H         1 3KW         0.0302
     39 H          18.6900   11.5420   23.8827 H         1 3KW         0.0268
     40 H          19.2279    9.8525   24.1702 H         1 3KW         0.0268
     41 H          17.1729    9.0853   22.9299 H         1 3KW         0.0301
     42 H          23.0836   12.9728   19.8271 H         1 3KW         0.0290
     43 H          23.0262   11.6670   18.5949 H         1 3KW         0.0290
     44 H          25.4016   12.4895   20.3520 H         1 3KW         0.0558
     45 H          26.6376   10.6223   19.2778 H         1 3KW         0.0288
     46 H          25.1618   10.1351   18.3770 H         1 3KW         0.0288
     47 H          25.4303   10.1910   21.4208 H         1 3KW         0.0266
     48 H          25.5574    8.7226   20.3941 H         1 3KW         0.0266
     49 H          23.2701    9.1891   19.4886 H         1 3KW         0.0268
     50 H          23.2590    8.9476   21.2686 H         1 3KW         0.0268
     51 H          16.8085   10.7882   25.4424 H         1 3KW         0.0268
     52 H          17.3522    9.0773   25.3803 H         1 3KW         0.0268
     53 H          14.9468    9.2821   25.9833 H         1 3KW         0.0265
     54 H          15.1893    8.3920   24.4420 H         1 3KW         0.0265
     55 H          14.3432   11.3068   24.7677 H         1 3KW         0.0265
     56 H          13.3240    9.9388   24.2051 H         1 3KW         0.0265
     57 H          14.1978   11.3649   22.3360 H         1 3KW         0.0265
     58 H          14.7129    9.6474   22.2275 H         1 3KW         0.0265
     59 H          16.6009   11.1069   21.7006 H         1 3KW         0.0268
     60 H          16.3746   12.0094   23.2371 H         1 3KW         0.0268
     61 H          22.7022    8.0027   24.6700 H         1 3KW         0.3199
     62 H          23.1783    9.4243   25.6371 H         1 3KW         0.3199
     63 H          25.3152   12.2087   17.3274 H         1 3KW         0.1834
     64 H          21.0106   11.7933   20.3769 H         1 3KW         0.0304
     65 H          21.1288   10.0179   20.1308 H         1 3KW         0.0304
     66 H          22.3953   12.9868   25.0601 H         1 3KW         0.0484
     67 H          23.5856   11.6971   25.4426 H         1 3KW         0.0484
     68 H          21.9166   11.6025   26.0999 H         1 3KW         0.0484
     69 H          25.2306   14.2719   20.4041 H         1 3KW         0.0647
     70 H          26.0169   16.6141   20.4959 H         1 3KW         0.0755
     71 H          26.9956   18.4922   19.4126 H         1 3KW         0.0644
     72 H          27.9961   19.5190   17.4016 H         1 3KW         0.0604
     73 H          28.2415   18.1793   15.3418 H         1 3KW         0.0638
     74 H          27.4753   15.8459   15.2890 H         1 3KW         0.0603
@<TRIPOS>BOND
     1    2    1 1  
     2    1    5 am 
     3    1    6 2  
     4    2    3 1  
     5    2    7 1  
     6   23    2 1  
     7    3    4 ar 
     8    4    5 ar 
     9    4   21 ar 
    10    5   24 1  
    11    7    9 1  
    12    8   11 1  
    13    8   15 1  
    14    8   23 1  
    15    9   10 1  
    16   10   16 1  
    17   10   20 1  
    18   11   12 1  
    19   12   13 1  
    20   12   22 1  
    21   13   14 1  
    22   14   15 1  
    23   16   17 1  
    24   17   18 1  
    25   18   19 1  
    26   19   20 1  
    27   22   25 1  
    28   25   26 ar 
    29   25   28 ar 
    30   26   27 ar 
    31   27   30 ar 
    32   28   29 ar 
    33   29   30 ar 
    34   29   34 ar 
    35   30   31 ar 
    36   31   32 ar 
    37   32   33 ar 
    38   33   34 ar 
    39    3   35 1  
    40    7   36 1  
    41    7   37 1  
    42    8   38 1  
    43    9   39 1  
    44    9   40 1  
    45   10   41 1  
    46   11   42 1  
    47   11   43 1  
    48   12   44 1  
    49   13   45 1  
    50   13   46 1  
    51   14   47 1  
    52   14   48 1  
    53   15   49 1  
    54   15   50 1  
    55   16   51 1  
    56   16   52 1  
    57   17   53 1  
    58   17   54 1  
    59   18   55 1  
    60   18   56 1  
    61   19   57 1  
    62   19   58 1  
    63   20   59 1  
    64   20   60 1  
    65   21   61 1  
    66   21   62 1  
    67   22   63 1  
    68   23   64 1  
    69   23   65 1  
    70   24   66 1  
    71   24   67 1  
    72   24   68 1  
    73   26   69 1  
    74   27   70 1  
    75   31   71 1  
    76   32   72 1  
    77   33   73 1  
    78   34   74 1  
@<TRIPOS>SUBSTRUCTURE
     1 3KW         1

