### 
### Created by X-TOOL on Mon Sep 10 21:13:20 2018
### 

@<TRIPOS>MOLECULE
4ra5_ligand
   58    62     1     0     0
SMALL
GAST_HUCK


@<TRIPOS>ATOM
      1 C1        -29.5390    5.5930  -25.8710 C.3       1 3L0        -0.0429
      2 N2        -29.5360    4.3180  -26.6150 N.4       1 3L0         0.2370
      3 C3        -28.8880    3.2180  -25.8720 C.3       1 3L0        -0.0014
      4 C4        -28.0950    2.8380  -27.1380 C.3       1 3L0         0.1245
      5 C5        -28.7400    1.7450  -28.0040 C.3       1 3L0        -0.0296
      6 C6        -28.4380    4.2650  -27.6070 C.3       1 3L0        -0.0014
      7 N7        -26.6890    2.5170  -26.8550 N.pl3     1 3L0        -0.3022
      8 C8        -26.3710    1.5110  -25.8340 C.3       1 3L0         0.0152
      9 C9        -25.6530    3.0610  -27.6180 C.ar      1 3L0         0.0315
     10 C10       -25.2670    2.2590  -28.6740 C.ar      1 3L0        -0.0260
     11 C11       -24.2610    2.6510  -29.5510 C.ar      1 3L0         0.0880
     12 N12       -23.8190    1.8390  -30.6140 N.pl3     1 3L0        -0.2293
     13 C13       -24.0020    0.3650  -30.5590 C.3       1 3L0         0.1467
     14 C15       -23.1860   -0.2460  -29.4050 C.3       1 3L0        -0.0204
     15 C16       -23.6120   -0.3040  -31.8490 C.2       1 3L0         0.2301
     16 O17       -23.8650   -1.4810  -31.9960 O.2       1 3L0        -0.3884
     17 N18       -22.9950    0.4050  -32.8180 N.am      1 3L0        -0.2079
     18 N19       -22.7000    1.7690  -32.6760 N.2       1 3L0        -0.2208
     19 C20       -23.1040    2.4410  -31.6530 C.2       1 3L0         0.1470
     20 C21       -22.7590    3.9060  -31.5500 C.3       1 3L0         0.1339
     21 O22       -22.6270    4.2720  -30.1800 O.3       1 3L0        -0.3128
     22 C23       -23.6130    3.8770  -29.3380 C.ar      1 3L0         0.1065
     23 C24       -23.9860    4.6900  -28.2770 C.ar      1 3L0        -0.0441
     24 C25       -25.0060    4.3030  -27.4030 C.ar      1 3L0        -0.0182
     25 C26       -25.3310    5.2390  -26.2940 C.ar      1 3L0        -0.0340
     26 C27       -25.6300    6.5830  -26.5560 C.ar      1 3L0        -0.0608
     27 C28       -25.9150    7.4450  -25.5070 C.ar      1 3L0        -0.0656
     28 C29       -25.8930    6.9860  -24.1930 C.ar      1 3L0        -0.0656
     29 C30       -25.5860    5.6610  -23.9270 C.ar      1 3L0        -0.0656
     30 C31       -25.3030    4.7880  -24.9670 C.ar      1 3L0        -0.0608
     31 H         -30.3667    5.5928  -25.1465 H         1 3L0         0.0778
     32 H         -29.6683    6.4281  -26.5751 H         1 3L0         0.0778
     33 H         -28.5843    5.7081  -25.3369 H         1 3L0         0.0778
     34 H         -30.4548    4.1103  -26.9737 H         1 3L0         0.2032
     35 H         -29.5826    2.4387  -25.5254 H         1 3L0         0.0841
     36 H         -28.2612    3.5507  -25.0315 H         1 3L0         0.0841
     37 H         -28.1024    1.5459  -28.8780 H         1 3L0         0.0258
     38 H         -29.7309    2.0823  -28.3422 H         1 3L0         0.0258
     39 H         -28.8484    0.8243  -27.4119 H         1 3L0         0.0258
     40 H         -27.6385    5.0004  -27.4336 H         1 3L0         0.0841
     41 H         -28.7727    4.3270  -28.6530 H         1 3L0         0.0841
     42 H         -25.2794    1.4001  -25.7561 H         1 3L0         0.0476
     43 H         -26.8182    0.5468  -26.1174 H         1 3L0         0.0476
     44 H         -26.7771    1.8324  -24.8635 H         1 3L0         0.0476
     45 H         -25.7582    1.3042  -28.8225 H         1 3L0         0.0401
     46 H         -25.0679    0.1638  -30.3764 H         1 3L0         0.0846
     47 H         -23.3377   -1.3353  -29.3853 H         1 3L0         0.0280
     48 H         -23.5189    0.1879  -28.4506 H         1 3L0         0.0280
     49 H         -22.1184   -0.0272  -29.5547 H         1 3L0         0.0280
     50 H         -22.7394   -0.0583  -33.6665 H         1 3L0         0.2256
     51 H         -23.5582    4.5035  -32.0128 H         1 3L0         0.0821
     52 H         -21.8098    4.0959  -32.0724 H         1 3L0         0.0821
     53 H         -23.4803    5.6366  -28.1241 H         1 3L0         0.0478
     54 H         -25.6386    6.9483  -27.5766 H         1 3L0         0.0587
     55 H         -26.1562    8.4818  -25.7117 H         1 3L0         0.0607
     56 H         -26.1160    7.6649  -23.3779 H         1 3L0         0.0585
     57 H         -25.5670    5.3058  -22.9030 H         1 3L0         0.0607
     58 H         -25.0594    3.7536  -24.7530 H         1 3L0         0.0587
@<TRIPOS>BOND
     1    1    2 1  
     2    2    3 1  
     3    2    6 1  
     4    3    4 1  
     5    4    5 1  
     6    4    6 1  
     7    4    7 1  
     8    7    8 1  
     9    7    9 1  
    10    9   10 ar 
    11    9   24 ar 
    12   10   11 ar 
    13   11   12 1  
    14   11   22 ar 
    15   12   13 1  
    16   12   19 1  
    17   13   14 1  
    18   13   15 1  
    19   15   16 2  
    20   15   17 am 
    21   17   18 1  
    22   18   19 2  
    23   19   20 1  
    24   20   21 1  
    25   21   22 1  
    26   22   23 ar 
    27   23   24 ar 
    28   24   25 1  
    29   25   26 ar 
    30   25   30 ar 
    31   26   27 ar 
    32   27   28 ar 
    33   28   29 ar 
    34   29   30 ar 
    35    1   31 1  
    36    1   32 1  
    37    1   33 1  
    38    2   34 1  
    39    3   35 1  
    40    3   36 1  
    41    5   37 1  
    42    5   38 1  
    43    5   39 1  
    44    6   40 1  
    45    6   41 1  
    46    8   42 1  
    47    8   43 1  
    48    8   44 1  
    49   10   45 1  
    50   13   46 1  
    51   14   47 1  
    52   14   48 1  
    53   14   49 1  
    54   17   50 1  
    55   20   51 1  
    56   20   52 1  
    57   23   53 1  
    58   26   54 1  
    59   27   55 1  
    60   28   56 1  
    61   29   57 1  
    62   30   58 1  
@<TRIPOS>SUBSTRUCTURE
     1 3L0         1

