### 
### Created by X-TOOL on Mon Sep 10 21:13:20 2018
### 

@<TRIPOS>MOLECULE
4rak_ligand
   64    67     1     0     0
SMALL
GAST_HUCK


@<TRIPOS>ATOM
      1 C25       -20.7520   20.0710  -43.8340 C.3       1 652         0.0596
      2 S1        -22.2010   19.4720  -42.9400 S.o2      1 652        -0.0060
      3 O2        -22.8100   20.6350  -41.9340 O.2       1 652        -0.1696
      4 O3        -23.3920   19.0170  -43.9960 O.2       1 652        -0.1696
      5 C24       -21.8000   18.0380  -41.9040 C.ar      1 652         0.0879
      6 C26       -21.9990   16.7660  -42.4350 C.ar      1 652        -0.0301
      7 C23       -21.2980   18.2150  -40.6070 C.ar      1 652        -0.0374
      8 C22       -21.0000   17.1060  -39.8280 C.ar      1 652        -0.0600
      9 C21       -21.2060   15.8300  -40.3550 C.ar      1 652        -0.0548
     10 C20       -21.6880   15.6610  -41.6610 C.ar      1 652        -0.0186
     11 C19       -21.9280   14.2610  -42.2180 C.ar      1 652        -0.0215
     12 C28       -20.8870   13.3340  -42.2700 C.ar      1 652        -0.0545
     13 C27       -21.1370   12.0620  -42.7850 C.ar      1 652        -0.0199
     14 C18       -23.2010   13.9190  -42.6800 C.ar      1 652        -0.0545
     15 C17       -23.4480   12.6390  -43.1960 C.ar      1 652        -0.0199
     16 C16       -22.4160   11.7060  -43.2360 C.ar      1 652         0.1201
     17 N2        -22.6640   10.3540  -43.7260 N.pl3     1 652        -0.1590
     18 C15       -22.3810    9.9300  -44.9440 C.2       1 652         0.1324
     19 C11       -22.7390    8.5920  -45.0210 C.2       1 652         0.0755
     20 C12       -22.6260    7.6800  -46.2350 C.3       1 652         0.0527
     21 C13       -23.8710    6.8140  -46.3380 C.3       1 652        -0.0677
     22 C14       -21.3970    6.7960  -46.1060 C.3       1 652        -0.0677
     23 O1        -22.5110    8.4470  -47.4010 O.3       1 652        -0.4342
     24 N1        -23.1970    8.2620  -43.8220 N.2       1 652        -0.2602
     25 C10       -23.1680    9.3190  -43.0340 C.2       1 652         0.1306
     26 C7        -23.6770    9.3110  -41.5780 C.3       1 652         0.0066
     27 C8        -25.0730    9.9640  -41.5810 C.3       1 652        -0.0920
     28 C9        -23.8810    7.8820  -41.0630 C.3       1 652        -0.0920
     29 C6        -22.6970   10.0320  -40.6170 C.ar      1 652        -0.0517
     30 C4        -23.1820   11.0350  -39.7730 C.ar      1 652        -0.0494
     31 C3        -22.3510   11.7100  -38.8950 C.ar      1 652        -0.0390
     32 C2        -21.0000   11.3860  -38.8530 C.ar      1 652        -0.0392
     33 C1        -20.4890   10.3910  -39.6820 C.ar      1 652        -0.0247
     34 C5        -21.3330    9.7030  -40.5610 C.ar      1 652         0.0553
     35 CL1       -20.5790    8.4640  -41.6180 Cl        1 652        -0.0485
     36 H         -19.9742   20.3675  -43.1149 H         1 652         0.0468
     37 H         -21.0332   20.9389  -44.4486 H         1 652         0.0468
     38 H         -20.3654   19.2717  -44.4833 H         1 652         0.0468
     39 H         -22.3911   16.6431  -43.4381 H         1 652         0.0637
     40 H         -21.1434   19.2136  -40.2145 H         1 652         0.0632
     41 H         -20.6123   17.2290  -38.8232 H         1 652         0.0617
     42 H         -20.9907   14.9587  -39.7471 H         1 652         0.0619
     43 H         -19.8975   13.5984  -41.9151 H         1 652         0.0616
     44 H         -20.3313   11.3387  -42.8373 H         1 652         0.0613
     45 H         -24.0027   14.6475  -42.6394 H         1 652         0.0616
     46 H         -24.4348   12.3781  -43.5609 H         1 652         0.0613
     47 H         -21.9445   10.5246  -45.7452 H         1 652         0.1648
     48 H         -23.7881    6.1557  -47.2153 H         1 652         0.0134
     49 H         -24.7571    7.4570  -46.4445 H         1 652         0.0134
     50 H         -23.9687    6.2026  -45.4288 H         1 652         0.0134
     51 H         -20.4984    7.4260  -46.0317 H         1 652         0.0134
     52 H         -21.3176    6.1470  -46.9906 H         1 652         0.0134
     53 H         -21.4851    6.1751  -45.2023 H         1 652         0.0134
     54 H         -21.7347    8.9918  -47.3451 H         1 652         0.1923
     55 H         -25.7307    9.4200  -42.2749 H         1 652         0.0083
     56 H         -24.9868   11.0122  -41.9033 H         1 652         0.0083
     57 H         -25.4979    9.9258  -40.5671 H         1 652         0.0083
     58 H         -22.9132    7.3598  -41.0374 H         1 652         0.0083
     59 H         -24.5694    7.3456  -41.7327 H         1 652         0.0083
     60 H         -24.3068    7.9148  -40.0493 H         1 652         0.0083
     61 H         -24.2349   11.2908  -39.8067 H         1 652         0.0794
     62 H         -22.7496   12.4826  -38.2475 H         1 652         0.0683
     63 H         -20.3407   11.9108  -38.1711 H         1 652         0.0806
     64 H         -19.4331   10.1483  -39.6464 H         1 652         0.0687
@<TRIPOS>BOND
     1    1    2 1  
     2    2    3 2  
     3    2    4 2  
     4    2    5 1  
     5    5    6 ar 
     6    5    7 ar 
     7    6   10 ar 
     8    7    8 ar 
     9    8    9 ar 
    10    9   10 ar 
    11   10   11 1  
    12   11   12 ar 
    13   11   14 ar 
    14   12   13 ar 
    15   13   16 ar 
    16   14   15 ar 
    17   15   16 ar 
    18   16   17 1  
    19   17   18 1  
    20   17   25 1  
    21   18   19 2  
    22   19   20 1  
    23   19   24 1  
    24   20   21 1  
    25   20   22 1  
    26   20   23 1  
    27   24   25 2  
    28   25   26 1  
    29   26   27 1  
    30   26   28 1  
    31   26   29 1  
    32   29   30 ar 
    33   29   34 ar 
    34   30   31 ar 
    35   31   32 ar 
    36   32   33 ar 
    37   33   34 ar 
    38   34   35 1  
    39    1   36 1  
    40    1   37 1  
    41    1   38 1  
    42    6   39 1  
    43    7   40 1  
    44    8   41 1  
    45    9   42 1  
    46   12   43 1  
    47   13   44 1  
    48   14   45 1  
    49   15   46 1  
    50   18   47 1  
    51   21   48 1  
    52   21   49 1  
    53   21   50 1  
    54   22   51 1  
    55   22   52 1  
    56   22   53 1  
    57   23   54 1  
    58   27   55 1  
    59   27   56 1  
    60   27   57 1  
    61   28   58 1  
    62   28   59 1  
    63   28   60 1  
    64   30   61 1  
    65   31   62 1  
    66   32   63 1  
    67   33   64 1  
@<TRIPOS>SUBSTRUCTURE
     1 652         1

