### 
### Created by X-TOOL on Mon Sep 10 21:13:25 2018
### 

@<TRIPOS>MOLECULE
4rcd_ligand
   53    58     1     0     0
SMALL
GAST_HUCK


@<TRIPOS>ATOM
      1 C4         71.1960   50.4410    8.7760 C.ar      1 3LL         0.1610
      2 C14        67.2240   50.7270   10.0950 C.ar      1 3LL        -0.0210
      3 C5         70.3040   49.5360    8.1720 C.ar      1 3LL         0.0092
      4 C6         70.7790   48.6480    7.2040 C.ar      1 3LL        -0.0455
      5 C8         69.5340   51.4170   10.1420 C.ar      1 3LL         0.2278
      6 C9         68.5310   50.5790    9.6250 C.ar      1 3LL         0.0334
      7 C10        68.8220   49.4970    8.5670 C.3       1 3LL         0.1200
      8 C12        67.9940   52.5160   11.4990 C.ar      1 3LL         0.0398
      9 C13        66.9590   51.7020   11.0440 C.ar      1 3LL         0.0631
     10 C3         72.5290   50.4300    8.3880 C.ar      1 3LL         0.0034
     11 C30        63.0320   53.6450   13.2870 C.3       1 3LL         0.0660
     12 O31        63.0410   52.9590   14.5640 O.3       1 3LL        -0.3767
     13 C32        63.1540   51.6520   13.9420 C.3       1 3LL         0.0660
     14 C23        63.2180   52.3200   12.5780 C.3       1 3LL         0.0757
     15 C33        62.0410   51.9080   11.6620 C.3       1 3LL        -0.0443
     16 C22        64.5480   52.1030   12.0160 C.1       1 3LL        -0.0859
     17 C16        65.6480   51.9080   11.5610 C.1       1 3LL        -0.0581
     18 N11        69.2260   52.3600   11.0470 N.ar      1 3LL        -0.2367
     19 O7         70.8340   51.3530    9.7420 O.3       1 3LL        -0.1913
     20 C17        68.4250   48.1030    9.0610 C.3       1 3LL         0.0506
     21 O18        67.4520   47.5830    8.0890 O.3       1 3LL        -0.3344
     22 C19        67.1570   48.5930    7.1970 C.cat     1 3LL         0.3377
     23 N20        67.9060   49.6920    7.3940 N.pl3     1 3LL        -0.2937
     24 N21        66.2130   48.4520    6.2380 N.pl3     1 3LL        -0.2518
     25 C2         72.9920   49.5380    7.4260 C.ar      1 3LL        -0.0373
     26 C1         72.1220   48.6460    6.8200 C.ar      1 3LL         0.0013
     27 C15        72.5830   47.7580    5.8410 C.ar      1 3LL         0.0484
     28 C28        73.6040   46.8610    6.1340 C.ar      1 3LL        -0.0394
     29 C27        74.0140   45.9880    5.1310 C.ar      1 3LL        -0.0418
     30 C26        73.4130   46.0330    3.8710 C.ar      1 3LL         0.0044
     31 N25        72.4510   46.9000    3.6010 N.ar      1 3LL        -0.2652
     32 C24        72.0230   47.7430    4.5540 C.ar      1 3LL         0.2213
     33 F29        71.0640   48.6120    4.2300 F         1 3LL        -0.1517
     34 H1         66.4297   50.0896    9.7236 H         1 3LL         0.0862
     35 H2         70.0927   47.9474    6.7422 H         1 3LL         0.0729
     36 H3         67.7863   53.2866   12.2326 H         1 3LL         0.0982
     37 H4         73.2215   51.1290    8.8428 H         1 3LL         0.0641
     38 H5         63.8655   54.3495   13.1492 H         1 3LL         0.0575
     39 H6         62.0828   54.1499   13.0545 H         1 3LL         0.0575
     40 H7         62.2754   51.0062   14.0869 H         1 3LL         0.0575
     41 H8         64.0646   51.0993   14.2164 H         1 3LL         0.0575
     42 H9         62.1356   52.4177   10.6918 H         1 3LL         0.0246
     43 H10        61.0903   52.1943   12.1354 H         1 3LL         0.0246
     44 H11        62.0604   50.8191   11.5074 H         1 3LL         0.0246
     45 H12        67.9682   48.1684   10.0595 H         1 3LL         0.0419
     46 H13        69.3078   47.4482    9.1038 H         1 3LL         0.0419
     47 H14        67.8580   50.5467    6.8212 H         1 3LL         0.3037
     48 H15        66.0188   49.2275    5.5886 H         1 3LL         0.3201
     49 H16        65.6886   47.5691    6.1574 H         1 3LL         0.3201
     50 H17        74.0400   49.5408    7.1488 H         1 3LL         0.0772
     51 H18        74.0667   46.8423    7.1141 H         1 3LL         0.0714
     52 H19        74.8024   45.2706    5.3282 H         1 3LL         0.0647
     53 H20        73.7408   45.3449    3.1002 H         1 3LL         0.0793
@<TRIPOS>BOND
     1    3    1 ar 
     2    1   10 ar 
     3   19    1 1  
     4    2    6 ar 
     5    9    2 ar 
     6    3    4 ar 
     7    7    3 1  
     8    4   26 ar 
     9    6    5 ar 
    10   18    5 ar 
    11    5   19 1  
    12    6    7 1  
    13    7   20 1  
    14    7   23 1  
    15    9    8 ar 
    16    8   18 ar 
    17   17    9 1  
    18   10   25 ar 
    19   11   12 1  
    20   14   11 1  
    21   13   12 1  
    22   14   13 1  
    23   14   15 1  
    24   16   14 1  
    25   16   17 3  
    26   20   21 1  
    27   21   22 1  
    28   22   23 ar 
    29   22   24 ar 
    30   25   26 ar 
    31   26   27 1  
    32   27   28 ar 
    33   27   32 ar 
    34   28   29 ar 
    35   29   30 ar 
    36   30   31 ar 
    37   31   32 ar 
    38   32   33 1  
    39    2   34 1  
    40    4   35 1  
    41    8   36 1  
    42   10   37 1  
    43   11   38 1  
    44   11   39 1  
    45   13   40 1  
    46   13   41 1  
    47   15   42 1  
    48   15   43 1  
    49   15   44 1  
    50   20   45 1  
    51   20   46 1  
    52   23   47 1  
    53   24   48 1  
    54   24   49 1  
    55   25   50 1  
    56   28   51 1  
    57   29   52 1  
    58   30   53 1  
@<TRIPOS>SUBSTRUCTURE
     1 3LL         1

