### 
### Created by X-TOOL on Mon Sep 10 21:13:19 2018
### 

@<TRIPOS>MOLECULE
4rce_ligand
   56    60     1     0     0
SMALL
GAST_HUCK


@<TRIPOS>ATOM
      1 C4         71.2230   50.2230    8.7880 C.ar      1 3LN         0.1556
      2 C14        67.1770   50.5960    9.9640 C.ar      1 3LN        -0.0283
      3 C5         70.3380   49.3650    8.1350 C.ar      1 3LN         0.0053
      4 C6         70.8260   48.5420    7.1230 C.ar      1 3LN        -0.0444
      5 C11        69.2170   52.1190   11.0550 C.ar      1 3LN        -0.0031
      6 C8         69.5180   51.1640   10.1040 C.ar      1 3LN         0.1485
      7 C9         68.4980   50.3920    9.5560 C.ar      1 3LN        -0.0052
      8 C10        68.8310   49.3460    8.5000 C.3       1 3LN         0.1090
      9 C12        67.9210   52.3240   11.4700 C.ar      1 3LN        -0.0142
     10 C13        66.8910   51.5690   10.9430 C.ar      1 3LN         0.1022
     11 C3         72.5640   50.2390    8.4410 C.ar      1 3LN         0.0025
     12 C25        73.7690   46.9020    6.0200 C.ar      1 3LN         0.0358
     13 N26        74.1880   46.0560    5.0980 N.ar      1 3LN        -0.2632
     14 C27        73.5650   45.9520    3.9370 C.ar      1 3LN         0.0889
     15 N28        72.4940   46.6900    3.6700 N.ar      1 3LN        -0.2632
     16 C29        72.0050   47.5560    4.5500 C.ar      1 3LN         0.0358
     17 C15        72.6490   47.7010    5.7740 C.ar      1 3LN         0.0353
     18 C1         72.1770   48.5610    6.7650 C.ar      1 3LN         0.0062
     19 C2         73.0500   49.4050    7.4350 C.ar      1 3LN        -0.0364
     20 O7         70.8380   51.0610    9.7830 O.3       1 3LN        -0.2126
     21 O16        65.6450   51.8950   11.4160 O.3       1 3LN        -0.3164
     22 C22        64.6850   50.8950   11.4310 C.3       1 3LN         0.0747
     23 C23        63.4980   51.4220   12.2390 C.3       1 3LN        -0.0101
     24 C30        62.4750   51.9380   11.2340 C.3       1 3LN        -0.0576
     25 C31        62.9780   50.2420   13.0670 C.3       1 3LN        -0.0576
     26 C24        63.8840   52.5590   13.2000 C.3       1 3LN        -0.0576
     27 C17        68.3730   47.9530    8.9400 C.3       1 3LN         0.0475
     28 O18        67.4470   47.5160    7.9040 O.3       1 3LN        -0.3351
     29 C19        67.2290   48.5610    7.0590 C.cat     1 3LN         0.3371
     30 N21        66.3440   48.5000    6.0770 N.pl3     1 3LN        -0.2518
     31 N20        67.9870   49.6250    7.3150 N.pl3     1 3LN        -0.2972
     32 H          66.3761   50.0087    9.5296 H         1 3LN         0.0610
     33 H          70.1466   47.8754    6.6042 H         1 3LN         0.0741
     34 H          70.0144   52.7168   11.4815 H         1 3LN         0.0621
     35 H          67.7071   53.0822   12.2146 H         1 3LN         0.0716
     36 H          73.2432   50.9076    8.9575 H         1 3LN         0.0638
     37 H          74.2924   46.9771    6.9663 H         1 3LN         0.0937
     38 H          73.9333   45.2550    3.1929 H         1 3LN         0.1116
     39 H          71.1207   48.1388    4.3187 H         1 3LN         0.0937
     40 H          74.1031   49.4162    7.1783 H         1 3LN         0.0772
     41 H          65.0913   49.9892   11.9047 H         1 3LN         0.0617
     42 H          64.3680   50.6610   10.4040 H         1 3LN         0.0617
     43 H          61.5985   52.3293   11.7712 H         1 3LN         0.0236
     44 H          62.1631   51.1158   10.5732 H         1 3LN         0.0236
     45 H          62.9250   52.7414   10.6323 H         1 3LN         0.0236
     46 H          63.7580   49.9159   13.7707 H         1 3LN         0.0236
     47 H          62.7181   49.4097   12.3964 H         1 3LN         0.0236
     48 H          62.0847   50.5533   13.6283 H         1 3LN         0.0236
     49 H          64.2601   53.4159   12.6218 H         1 3LN         0.0236
     50 H          64.6679   52.2080   13.8873 H         1 3LN         0.0236
     51 H          63.0001   52.8664   13.7782 H         1 3LN         0.0236
     52 H          67.8666   48.0026    9.9152 H         1 3LN         0.0411
     53 H          69.2304   47.2671    9.0065 H         1 3LN         0.0411
     54 H          66.2059   49.3109    5.4570 H         1 3LN         0.3201
     55 H          65.7932   47.6417    5.9326 H         1 3LN         0.3201
     56 H          67.9867   50.5023    6.7752 H         1 3LN         0.3030
@<TRIPOS>BOND
     1    3    1 ar 
     2    1   11 ar 
     3    1   20 1  
     4    7    2 ar 
     5    2   10 ar 
     6    4    3 ar 
     7    3    8 1  
     8   18    4 ar 
     9    6    5 ar 
    10    5    9 ar 
    11    7    6 ar 
    12   20    6 1  
    13    8    7 1  
    14    8   27 1  
    15    8   31 1  
    16   10    9 ar 
    17   10   21 1  
    18   11   19 ar 
    19   12   13 ar 
    20   17   12 ar 
    21   13   14 ar 
    22   15   14 ar 
    23   16   15 ar 
    24   17   16 ar 
    25   17   18 1  
    26   18   19 ar 
    27   21   22 1  
    28   22   23 1  
    29   23   24 1  
    30   23   25 1  
    31   23   26 1  
    32   27   28 1  
    33   28   29 1  
    34   29   30 ar 
    35   29   31 ar 
    36    2   32 1  
    37    4   33 1  
    38    5   34 1  
    39    9   35 1  
    40   11   36 1  
    41   12   37 1  
    42   14   38 1  
    43   16   39 1  
    44   19   40 1  
    45   22   41 1  
    46   22   42 1  
    47   24   43 1  
    48   24   44 1  
    49   24   45 1  
    50   25   46 1  
    51   25   47 1  
    52   25   48 1  
    53   26   49 1  
    54   26   50 1  
    55   26   51 1  
    56   27   52 1  
    57   27   53 1  
    58   30   54 1  
    59   30   55 1  
    60   31   56 1  
@<TRIPOS>SUBSTRUCTURE
     1 3LN         1

