### 
### Created by X-TOOL on Mon Sep 10 21:13:19 2018
### 

@<TRIPOS>MOLECULE
4rcf_ligand
   53    58     1     0     0
SMALL
GAST_HUCK


@<TRIPOS>ATOM
      1 C4         71.0140   50.1410    8.7930 C.ar      1 3LO         0.1550
      2 C14        72.5180   47.5700    5.8060 C.ar      1 3LO         0.0480
      3 C5         70.1530   49.2550    8.1230 C.ar      1 3LO         0.0039
      4 C6         70.6730   48.4280    7.1340 C.ar      1 3LO        -0.0473
      5 C11        67.5620   52.1430   11.4300 C.ar      1 3LO        -0.0082
      6 C7         69.2600   51.0800   10.0780 C.ar      1 3LO         0.1860
      7 C8         68.2830   50.2330    9.5330 C.ar      1 3LO        -0.0042
      8 C9         68.6620   49.1920    8.4850 C.3       1 3LO         0.1090
      9 C10        68.8870   52.0140   11.0230 C.ar      1 3LO         0.1900
     10 C12        66.5770   51.3080   10.9060 C.ar      1 3LO        -0.0260
     11 C13        66.9530   50.3550    9.9510 C.ar      1 3LO        -0.0581
     12 N1         67.7980   49.4210    7.3010 N.pl3     1 3LO        -0.2971
     13 N2         66.2710   48.2230    6.0020 N.pl3     1 3LO        -0.2518
     14 C3         72.3620   50.1580    8.4560 C.ar      1 3LO         0.0016
     15 N3         72.4760   46.6580    3.5840 N.ar      1 3LO        -0.2653
     16 C22        64.1520   50.4260   11.0730 C.3       1 3LO        -0.0087
     17 C23        62.7560   51.0580   11.0830 C.3       1 3LO         0.0703
     18 O3         62.5540   51.7630   12.3070 O.3       1 3LO        -0.3363
     19 C24        63.5340   52.8020   12.4360 C.2       1 3LO         0.0379
     20 C25        64.8640   52.6220   12.0090 C.2       1 3LO        -0.0651
     21 C15        65.2440   51.4560   11.3230 C.3       1 3LO         0.0066
     22 F1         69.8330   52.8130   11.5540 F         1 3LO        -0.1814
     23 O1         70.5800   51.0080    9.7510 O.3       1 3LO        -0.2100
     24 C16        68.2460   47.7730    8.9180 C.3       1 3LO         0.0475
     25 O2         67.4420   47.2470    7.8130 O.3       1 3LO        -0.3351
     26 C17        67.1370   48.3170    7.0060 C.cat     1 3LO         0.3371
     27 C2         72.8680   49.3170    7.4700 C.ar      1 3LO        -0.0385
     28 C1         72.0230   48.4370    6.7890 C.ar      1 3LO         0.0000
     29 C21        73.5250   46.6610    6.1290 C.ar      1 3LO        -0.0395
     30 C20        73.9880   45.7910    5.1480 C.ar      1 3LO        -0.0419
     31 C19        73.4400   45.8120    3.8690 C.ar      1 3LO         0.0043
     32 C18        72.0090   47.5210    4.4980 C.ar      1 3LO         0.2212
     33 F2         71.0430   48.3690    4.1260 F         1 3LO        -0.1517
     34 H          70.0046   47.7522    6.6128 H         1 3LO         0.0721
     35 H          67.2945   52.8985   12.1599 H         1 3LO         0.0694
     36 H          66.2001   49.6999    9.5279 H         1 3LO         0.0597
     37 H          67.7247   50.3097    6.7855 H         1 3LO         0.3030
     38 H          65.7858   47.3324    5.8221 H         1 3LO         0.3201
     39 H          66.0851   49.0407    5.4039 H         1 3LO         0.3201
     40 H          73.0310   50.8384    8.9704 H         1 3LO         0.0636
     41 H          64.3231   49.9575   10.0926 H         1 3LO         0.0331
     42 H          64.2004   49.6586   11.8596 H         1 3LO         0.0331
     43 H          61.9966   50.2680   10.9869 H         1 3LO         0.0615
     44 H          62.6658   51.7579   10.2392 H         1 3LO         0.0615
     45 H          63.2423   53.7547   12.8755 H         1 3LO         0.0862
     46 H          65.6049   53.3938   12.2124 H         1 3LO         0.0354
     47 H          65.4963   50.9579   12.2707 H         1 3LO         0.0547
     48 H          67.6506   47.8120    9.8421 H         1 3LO         0.0411
     49 H          69.1341   47.1446    9.0803 H         1 3LO         0.0411
     50 H          73.9244   49.3446    7.2286 H         1 3LO         0.0763
     51 H          73.9406   46.6330    7.1298 H         1 3LO         0.0714
     52 H          74.7820   45.0909    5.3814 H         1 3LO         0.0647
     53 H          73.8077   45.1317    3.1094 H         1 3LO         0.0792
@<TRIPOS>BOND
     1    3    1 ar 
     2    1   14 ar 
     3   23    1 1  
     4   28    2 1  
     5    2   29 ar 
     6    2   32 ar 
     7    3    4 ar 
     8    8    3 1  
     9    4   28 ar 
    10    5    9 ar 
    11   10    5 ar 
    12    7    6 ar 
    13    9    6 ar 
    14    6   23 1  
    15    7    8 1  
    16   11    7 ar 
    17    8   12 1  
    18    8   24 1  
    19    9   22 1  
    20   10   11 ar 
    21   21   10 1  
    22   12   26 ar 
    23   26   13 ar 
    24   14   27 ar 
    25   15   31 ar 
    26   32   15 ar 
    27   16   17 1  
    28   16   21 1  
    29   17   18 1  
    30   18   19 1  
    31   19   20 2  
    32   20   21 1  
    33   24   25 1  
    34   25   26 1  
    35   27   28 ar 
    36   29   30 ar 
    37   30   31 ar 
    38   32   33 1  
    39    4   34 1  
    40    5   35 1  
    41   11   36 1  
    42   12   37 1  
    43   13   38 1  
    44   13   39 1  
    45   14   40 1  
    46   16   41 1  
    47   16   42 1  
    48   17   43 1  
    49   17   44 1  
    50   19   45 1  
    51   20   46 1  
    52   21   47 1  
    53   24   48 1  
    54   24   49 1  
    55   27   50 1  
    56   29   51 1  
    57   30   52 1  
    58   31   53 1  
@<TRIPOS>SUBSTRUCTURE
     1 3LO         1

