### 
### Created by X-TOOL on Mon Sep 10 21:13:19 2018
### 

@<TRIPOS>MOLECULE
4rdn_ligand
   35    37     1     0     0
SMALL
GAST_HUCK


@<TRIPOS>ATOM
      1 O5'        -9.1750  -29.2620   14.5420 O.3       1 6MD        -0.3924
      2 C5'        -8.6590  -29.0550   13.2450 C.3       1 6MD         0.0730
      3 C4'        -9.1110  -30.2000   12.3530 C.3       1 6MD         0.1135
      4 O4'       -10.5400  -30.1860   12.1800 O.3       1 6MD        -0.3368
      5 C3'        -8.5090  -30.0820   10.9640 C.3       1 6MD         0.1146
      6 O3'        -7.2270  -30.6940   10.8420 O.3       1 6MD        -0.3864
      7 C2'        -9.5570  -30.7490   10.0960 C.3       1 6MD         0.1385
      8 O2'        -9.3310  -32.1510    9.9870 O.3       1 6MD        -0.3836
      9 C1'       -10.8680  -30.4610   10.8210 C.3       1 6MD         0.2010
     10 N9        -11.5420  -29.2340   10.3370 N.pl3     1 6MD        -0.1919
     11 C8        -10.9670  -28.1470    9.7730 C.2       1 6MD         0.1123
     12 N7        -11.8960  -27.2020    9.4900 N.2       1 6MD        -0.2957
     13 C5        -13.0840  -27.6820    9.8850 C.ar      1 6MD         0.1047
     14 C6        -14.4810  -27.1930    9.8680 C.ar      1 6MD         0.1321
     15 N6        -14.7500  -25.9590    9.3930 N.pl3     1 6MD        -0.3042
     16 N1        -15.4300  -28.0150   10.3860 N.ar      1 6MD        -0.2697
     17 C2        -15.1390  -29.2230   10.8940 C.ar      1 6MD         0.0533
     18 N3        -13.8960  -29.7260   10.9340 N.ar      1 6MD        -0.2714
     19 C4        -12.8470  -29.0160   10.4500 C.ar      1 6MD         0.1613
     20 CZ        -16.0620  -25.3510    9.5340 C.3       1 6MD         0.0184
     21 H         -10.1239  -29.2871   14.5038 H         1 6MD         0.2095
     22 H          -7.5600  -29.0274   13.2837 H         1 6MD         0.0584
     23 H          -9.0358  -28.1025   12.8442 H         1 6MD         0.0584
     24 H          -8.8016  -31.1506   12.8119 H         1 6MD         0.0647
     25 H          -8.4068  -29.0221   10.6882 H         1 6MD         0.0648
     26 H          -6.6223  -30.2836   11.4491 H         1 6MD         0.2100
     27 H          -9.5643  -30.3054    9.0895 H         1 6MD         0.0676
     28 H          -8.4775  -32.3038    9.5990 H         1 6MD         0.2101
     29 H         -11.5417  -31.3262   10.7344 H         1 6MD         0.0996
     30 H          -9.9013  -28.0452    9.5734 H         1 6MD         0.1349
     31 H         -14.0036  -25.4328    8.9167 H         1 6MD         0.1852
     32 H         -15.9496  -29.8225   11.2921 H         1 6MD         0.0996
     33 H         -16.0535  -24.3505    9.0768 H         1 6MD         0.0489
     34 H         -16.3131  -25.2642   10.6014 H         1 6MD         0.0489
     35 H         -16.8127  -25.9778    9.0304 H         1 6MD         0.0489
@<TRIPOS>BOND
     1    1    2 1  
     2    2    3 1  
     3    3    4 1  
     4    3    5 1  
     5    4    9 1  
     6    5    6 1  
     7    5    7 1  
     8    7    8 1  
     9    7    9 1  
    10    9   10 1  
    11   10   11 1  
    12   10   19 1  
    13   11   12 2  
    14   12   13 1  
    15   13   14 ar 
    16   13   19 ar 
    17   14   15 1  
    18   14   16 ar 
    19   15   20 1  
    20   16   17 ar 
    21   17   18 ar 
    22   18   19 ar 
    23    1   21 1  
    24    2   22 1  
    25    2   23 1  
    26    3   24 1  
    27    5   25 1  
    28    6   26 1  
    29    7   27 1  
    30    8   28 1  
    31    9   29 1  
    32   11   30 1  
    33   15   31 1  
    34   17   32 1  
    35   20   33 1  
    36   20   34 1  
    37   20   35 1  
@<TRIPOS>SUBSTRUCTURE
     1 6MD         1

