### 
### Created by X-TOOL on Mon Sep 10 21:13:23 2018
### 

@<TRIPOS>MOLECULE
4re3_ligand
   26    27     1     0     0
SMALL
GAST_HUCK


@<TRIPOS>ATOM
      1 C1          8.3490   13.6630   12.9840 C.2       1 GIM         0.1465
      2 C2          8.1120   12.2010   13.1710 C.3       1 GIM         0.1586
      3 N10         9.1970   14.1970   12.0980 N.pl3     1 GIM        -0.2404
      4 C3          9.0130   11.3970   12.2200 C.3       1 GIM         0.1253
      5 C4          9.2400   12.1150   10.8960 C.3       1 GIM         0.1183
      6 C5         10.0440   13.3850   11.1790 C.3       1 GIM         0.1196
      7 C6         10.4640   14.1910    9.9380 C.3       1 GIM         0.0773
      8 C7          8.2350   15.8410   13.1810 C.2       1 GIM        -0.0364
      9 C8          9.1430   15.5330   12.2020 C.2       1 GIM         0.0285
     10 N1          7.7600   14.6760   13.6510 N.2       1 GIM        -0.3367
     11 O3          8.4530   10.1010   12.0020 O.3       1 GIM        -0.3839
     12 O2          8.3860   11.8260   14.5310 O.3       1 GIM        -0.3699
     13 O4          9.9080   11.2670    9.9540 O.3       1 GIM        -0.3858
     14 O6          9.3500   14.8710    9.3220 O.3       1 GIM        -0.3918
     15 H1          7.0594   11.9775   12.9428 H         1 GIM         0.0858
     16 H2          9.9919   11.2717   12.7059 H         1 GIM         0.0675
     17 H3          8.2653   12.3985   10.4723 H         1 GIM         0.0654
     18 H4         10.9670   13.0972   11.7037 H         1 GIM         0.0704
     19 H5         10.9082   13.5032    9.2034 H         1 GIM         0.0589
     20 H6         11.2121   14.9391   10.2389 H         1 GIM         0.0589
     21 H7          7.9528   16.8387   13.5139 H         1 GIM         0.0408
     22 H8          9.7183   16.2460   11.6133 H         1 GIM         0.0796
     23 H9          9.0482    9.5854   11.4706 H         1 GIM         0.2103
     24 H10         9.2968   12.0073   14.7309 H         1 GIM         0.2138
     25 H11        10.0269   11.7358    9.1364 H         1 GIM         0.2100
     26 H12         8.7006   14.2323    9.0522 H         1 GIM         0.2095
@<TRIPOS>BOND
     1    1    2 1  
     2    1    3 1  
     3    1   10 2  
     4    2    4 1  
     5    2   12 1  
     6    3    6 1  
     7    3    9 1  
     8    4    5 1  
     9    4   11 1  
    10    5    6 1  
    11    5   13 1  
    12    6    7 1  
    13    7   14 1  
    14    9    8 2  
    15    8   10 1  
    16    2   15 1  
    17    4   16 1  
    18    5   17 1  
    19    6   18 1  
    20    7   19 1  
    21    7   20 1  
    22    8   21 1  
    23    9   22 1  
    24   11   23 1  
    25   12   24 1  
    26   13   25 1  
    27   14   26 1  
@<TRIPOS>SUBSTRUCTURE
     1 GIM         1

