### 
### Created by X-TOOL on Mon Sep 10 21:13:22 2018
### 

@<TRIPOS>MOLECULE
4re4_ligand
   24    24     1     0     0
SMALL
GAST_HUCK


@<TRIPOS>ATOM
      1 O4          9.9280   10.6650   10.2120 O.3       1 IFM        -0.3885
      2 C4          9.0830   11.2620   11.2100 C.3       1 IFM         0.0958
      3 C3          8.9230   10.3070   12.4080 C.3       1 IFM         0.1209
      4 O3          8.2590    9.1180   11.9730 O.3       1 IFM        -0.3839
      5 C2          8.1520   10.9210   13.5850 C.3       1 IFM        -0.0045
      6 N           8.5280   12.3100   13.8330 N.4       1 IFM         0.2292
      7 C1          8.7070   13.2560   12.7250 C.3       1 IFM        -0.0261
      8 C5          9.6150   12.6440   11.6430 C.3       1 IFM         0.0507
      9 C6          9.8330   13.6330   10.4870 C.3       1 IFM         0.0543
     10 O6          8.7760   13.5570    9.5110 O.3       1 IFM        -0.3945
     11 H1         10.0199   11.2616    9.4784 H         1 IFM         0.2099
     12 H2          8.0885   11.4135   10.7651 H         1 IFM         0.0626
     13 H3          9.9285   10.0404   12.7655 H         1 IFM         0.0673
     14 H4          8.1581    8.5257   12.7089 H         1 IFM         0.2101
     15 H5          8.3608   10.3316   14.4900 H         1 IFM         0.0840
     16 H6          7.0757   10.8810   13.3616 H         1 IFM         0.0840
     17 H7          9.4034   12.2848   14.3321 H         1 IFM         0.2014
     18 H8          7.8130   12.6982   14.4281 H         1 IFM         0.2014
     19 H9          9.1681   14.1789   13.1064 H         1 IFM         0.0818
     20 H10         7.7262   13.4905   12.2857 H         1 IFM         0.0818
     21 H11        10.6009   12.4732   12.0999 H         1 IFM         0.0401
     22 H12        10.7890   13.4006    9.9951 H         1 IFM         0.0562
     23 H13         9.8688   14.6542   10.8941 H         1 IFM         0.0562
     24 H14         8.7420   12.6788    9.1504 H         1 IFM         0.2094
@<TRIPOS>BOND
     1    1    2 1  
     2    2    3 1  
     3    2    8 1  
     4    3    4 1  
     5    3    5 1  
     6    5    6 1  
     7    6    7 1  
     8    7    8 1  
     9    8    9 1  
    10    9   10 1  
    11    1   11 1  
    12    2   12 1  
    13    3   13 1  
    14    4   14 1  
    15    5   15 1  
    16    5   16 1  
    17    6   17 1  
    18    6   18 1  
    19    7   19 1  
    20    7   20 1  
    21    8   21 1  
    22    9   22 1  
    23    9   23 1  
    24   10   24 1  
@<TRIPOS>SUBSTRUCTURE
     1 IFM         1

