### 
### Created by X-TOOL on Mon Sep 10 21:13:21 2018
### 

@<TRIPOS>MOLECULE
4re9_ligand
   55    58     1     0     0
SMALL
GAST_HUCK


@<TRIPOS>ATOM
      1 C01        82.3730  141.0100   63.9820 C.3       1 3M9         0.1136
      2 N02        82.3120  141.8040   62.7880 N.pl3     1 3M9        -0.1621
      3 C09        83.1360  142.8870   62.4700 C.2       1 3M9         0.1127
      4 C10        82.6830  143.3490   61.1900 C.2       1 3M9         0.0201
      5 N11        81.6420  142.5290   60.8440 N.2       1 3M9        -0.2428
      6 N12        81.4510  141.6360   61.8100 N.2       1 3M9        -0.1090
      7 C23        84.2820  143.4880   63.2680 C.3       1 3M9         0.0943
      8 N24        84.2320  144.9280   63.0770 N.am      1 3M9        -0.2714
      9 C25        85.3170  145.8880   63.2620 C.2       1 3M9         0.2040
     10 C26        86.7620  145.5510   63.7140 C.ar      1 3M9         0.0458
     11 O27        85.0640  147.0710   63.0510 O.2       1 3M9        -0.3864
     12 C28        87.7900  146.4700   63.3640 C.ar      1 3M9        -0.0437
     13 C29        89.1270  146.2370   63.7430 C.ar      1 3M9        -0.0223
     14 C30        89.4340  145.1110   64.4720 C.ar      1 3M9         0.1375
     15 C31        88.4200  144.1870   64.8340 C.ar      1 3M9        -0.0223
     16 C32        87.0720  144.4200   64.4490 C.ar      1 3M9        -0.0437
     17 F33        90.7180  144.9000   64.8400 F         1 3M9        -0.1794
     18 C03        83.2990  139.7750   63.8920 C.3       1 3M9         0.0164
     19 C13        84.5400  139.8460   64.8050 C.ar      1 3M9        -0.0390
     20 C14        85.2120  138.6680   65.1620 C.ar      1 3M9        -0.0548
     21 C15        86.3780  138.7110   66.0050 C.ar      1 3M9        -0.0259
     22 C16        86.8450  139.9460   66.4720 C.ar      1 3M9        -0.0222
     23 C17        86.1640  141.1470   66.1090 C.ar      1 3M9        -0.0567
     24 C18        85.0170  141.1010   65.2820 C.ar      1 3M9        -0.0565
     25 C19        87.0610  137.5090   66.3680 C.ar      1 3M9        -0.0578
     26 C20        88.2110  137.5560   67.2030 C.ar      1 3M9        -0.0637
     27 C21        88.6860  138.8040   67.6780 C.ar      1 3M9        -0.0634
     28 C22        88.0160  139.9900   67.3210 C.ar      1 3M9        -0.0568
     29 C04        81.0200  140.6940   64.5590 C.3       1 3M9         0.0738
     30 C05        80.2650  139.4340   64.1240 C.2       1 3M9         0.2021
     31 N06        78.8780  139.2880   64.4590 N.am      1 3M9        -0.1641
     32 O07        80.7980  138.5230   63.4970 O.2       1 3M9        -0.3968
     33 O08        78.2070  138.1580   64.0650 O.3       1 3M9        -0.2717
     34 H1         82.8523  141.6636   64.7256 H         1 3M9         0.0730
     35 H2         83.0841  144.1804   60.6123 H         1 3M9         0.0437
     36 H3         85.2420  143.0930   62.9043 H         1 3M9         0.0730
     37 H4         84.1661  143.2454   64.3346 H         1 3M9         0.0730
     38 H5         83.3530  145.3051   62.7851 H         1 3M9         0.1874
     39 H6         87.5416  147.3609   62.7985 H         1 3M9         0.0659
     40 H7         89.9056  146.9374   63.4632 H         1 3M9         0.0616
     41 H8         88.6740  143.3015   65.4054 H         1 3M9         0.0616
     42 H9         86.2941  143.7187   64.7283 H         1 3M9         0.0659
     43 H10        83.6418  139.6762   62.8515 H         1 3M9         0.0461
     44 H11        82.7156  138.8855   64.1719 H         1 3M9         0.0461
     45 H12        84.8489  137.7134   64.7987 H         1 3M9         0.0531
     46 H13        86.5286  142.1019   66.4699 H         1 3M9         0.0620
     47 H14        84.5033  142.0167   65.0124 H         1 3M9         0.0586
     48 H15        86.6995  136.5541   66.0039 H         1 3M9         0.0603
     49 H16        88.7228  136.6401   67.4754 H         1 3M9         0.0611
     50 H17        89.5626  138.8454   68.3143 H         1 3M9         0.0598
     51 H18        88.3804  140.9438   67.6852 H         1 3M9         0.0619
     52 H19        80.3691  141.5488   64.3230 H         1 3M9         0.0536
     53 H20        81.1508  140.6226   65.6488 H         1 3M9         0.0536
     54 H21        78.4049  140.0025   64.9744 H         1 3M9         0.2216
     55 H22        78.2293  138.0920   63.1176 H         1 3M9         0.2490
@<TRIPOS>BOND
     1    1    2 1  
     2    1   18 1  
     3    1   29 1  
     4    2    3 1  
     5    2    6 1  
     6    3    4 2  
     7    3    7 1  
     8    4    5 1  
     9    5    6 2  
    10    7    8 1  
    11    8    9 am 
    12    9   10 1  
    13    9   11 2  
    14   10   12 ar 
    15   10   16 ar 
    16   12   13 ar 
    17   13   14 ar 
    18   14   15 ar 
    19   14   17 1  
    20   15   16 ar 
    21   18   19 1  
    22   19   20 ar 
    23   19   24 ar 
    24   20   21 ar 
    25   21   22 ar 
    26   21   25 ar 
    27   22   23 ar 
    28   22   28 ar 
    29   23   24 ar 
    30   25   26 ar 
    31   26   27 ar 
    32   27   28 ar 
    33   29   30 1  
    34   30   31 am 
    35   30   32 2  
    36   31   33 1  
    37    1   34 1  
    38    4   35 1  
    39    7   36 1  
    40    7   37 1  
    41    8   38 1  
    42   12   39 1  
    43   13   40 1  
    44   15   41 1  
    45   16   42 1  
    46   18   43 1  
    47   18   44 1  
    48   20   45 1  
    49   23   46 1  
    50   24   47 1  
    51   25   48 1  
    52   26   49 1  
    53   27   50 1  
    54   28   51 1  
    55   29   52 1  
    56   29   53 1  
    57   31   54 1  
    58   33   55 1  
@<TRIPOS>SUBSTRUCTURE
     1 3M9         1

