### 
### Created by X-TOOL on Mon Sep 10 21:13:25 2018
### 

@<TRIPOS>MOLECULE
4res_ligand
   64    68     1     0     0
SMALL
GAST_HUCK


@<TRIPOS>ATOM
      1 C18         8.6860   21.0360   -0.8970 C.3       1 BUF        -0.0549
      2 C13         7.1680   20.9330   -1.0390 C.3       1 BUF         0.0083
      3 C12         6.6670   19.5150   -1.2010 C.3       1 BUF        -0.0427
      4 C11         6.8530   18.9660   -2.5880 C.3       1 BUF        -0.0486
      5 C9          6.3020   19.8460   -3.7150 C.3       1 BUF        -0.0299
      6 C10         6.4430   19.1810   -5.1240 C.3       1 BUF        -0.0259
      7 C19         7.9090   18.8290   -5.3730 C.3       1 BUF        -0.0590
      8 C1          5.6650   17.8350   -5.1250 C.3       1 BUF        -0.0448
      9 C2          4.1520   17.9660   -5.0680 C.3       1 BUF        -0.0263
     10 C3          3.7120   18.7460   -6.2850 C.3       1 BUF         0.0555
     11 O3          4.1460   18.0100   -7.4060 O.3       1 BUF        -0.3918
     12 C4          4.3750   20.1430   -6.2870 C.3       1 BUF        -0.0235
     13 C5          5.9220   20.1070   -6.2520 C.3       1 BUF        -0.0330
     14 C6          6.5420   21.5060   -6.1370 C.3       1 BUF        -0.0493
     15 C7          6.4760   22.1540   -4.7590 C.3       1 BUF        -0.0470
     16 C8          6.9580   21.2360   -3.6270 C.3       1 BUF        -0.0081
     17 C14         6.7190   21.8720   -2.2080 C.3       1 BUF         0.0766
     18 O14         7.4690   23.0560   -2.1670 O.3       1 BUF        -0.3876
     19 C15         5.2680   22.1900   -1.8620 C.3       1 BUF        -0.0211
     20 C16         5.1290   22.0330   -0.3390 C.3       1 BUF        -0.0383
     21 C17         6.4420   21.4370    0.2200 C.3       1 BUF        -0.0052
     22 C20         7.2540   22.3180    1.1590 C.2       1 BUF        -0.0443
     23 C22         7.5160   23.7100    0.8900 C.2       1 BUF        -0.0859
     24 C23         8.2360   24.4600    1.7410 C.3       1 BUF         0.0548
     25 C24         8.7720   23.8950    2.9690 C.2       1 BUF         0.2396
     26 O24         9.4320   24.4380    3.8320 O.2       1 BUF        -0.3687
     27 O21         8.5050   22.5670    3.2050 O.3       1 BUF        -0.2641
     28 C21         7.7810   21.8480    2.3280 C.3       1 BUF         0.1030
     29 H1          9.0229   20.3823   -0.0790 H         1 BUF         0.0238
     30 H2          8.9636   22.0765   -0.6728 H         1 BUF         0.0238
     31 H3          9.1643   20.7233   -1.8369 H         1 BUF         0.0238
     32 H4          5.5938   19.4957   -0.9604 H         1 BUF         0.0273
     33 H5          7.2126   18.8707   -0.4959 H         1 BUF         0.0273
     34 H6          6.3471   17.9906   -2.6391 H         1 BUF         0.0268
     35 H7          7.9310   18.8293   -2.7586 H         1 BUF         0.0268
     36 H8          5.2249   19.9787   -3.5354 H         1 BUF         0.0310
     37 H9          8.0106   18.3612   -6.3634 H         1 BUF         0.0235
     38 H10         8.2543   18.1277   -4.5991 H         1 BUF         0.0235
     39 H11         8.5174   19.7447   -5.3359 H         1 BUF         0.0235
     40 H12         5.9900   17.2527   -4.2502 H         1 BUF         0.0271
     41 H13         5.9257   17.2912   -6.0449 H         1 BUF         0.0271
     42 H14         3.8565   18.5008   -4.1533 H         1 BUF         0.0290
     43 H15         3.6891   16.9682   -5.0751 H         1 BUF         0.0290
     44 H16         2.6174   18.8544   -6.2963 H         1 BUF         0.0593
     45 H17         3.8904   18.4644   -8.2001 H         1 BUF         0.2098
     46 H18         4.0220   20.6944   -5.4031 H         1 BUF         0.0293
     47 H19         4.0622   20.6728   -7.1988 H         1 BUF         0.0293
     48 H20         6.2566   19.6806   -7.2092 H         1 BUF         0.0307
     49 H21         6.0183   22.1656   -6.8446 H         1 BUF         0.0268
     50 H22         7.6015   21.4293   -6.4225 H         1 BUF         0.0268
     51 H23         5.4325   22.4373   -4.5570 H         1 BUF         0.0269
     52 H24         7.1057   23.0559   -4.7678 H         1 BUF         0.0269
     53 H25         8.0427   21.1020   -3.7517 H         1 BUF         0.0332
     54 H26         8.3877   22.8522   -2.2966 H         1 BUF         0.2102
     55 H27         4.5938   21.4904   -2.3777 H         1 BUF         0.0295
     56 H28         5.0249   23.2206   -2.1600 H         1 BUF         0.0295
     57 H29         4.2902   21.3588   -0.1114 H         1 BUF         0.0290
     58 H30         4.9442   23.0158    0.1191 H         1 BUF         0.0290
     59 H31         6.1726   20.5561    0.8211 H         1 BUF         0.0455
     60 H32         7.1231   24.1618   -0.0196 H         1 BUF         0.0264
     61 H33         7.5919   25.3005    2.0388 H         1 BUF         0.0589
     62 H34         9.0960   24.8412    1.1709 H         1 BUF         0.0589
     63 H35         8.4281   21.0072    2.0376 H         1 BUF         0.0765
     64 H36         6.9226   21.4689    2.9019 H         1 BUF         0.0765
@<TRIPOS>BOND
     1    1    2 1  
     2    2    3 1  
     3    2   17 1  
     4    2   21 1  
     5    3    4 1  
     6    4    5 1  
     7    5    6 1  
     8    5   16 1  
     9    6    7 1  
    10    6    8 1  
    11    6   13 1  
    12    8    9 1  
    13    9   10 1  
    14   10   11 1  
    15   10   12 1  
    16   12   13 1  
    17   13   14 1  
    18   14   15 1  
    19   15   16 1  
    20   16   17 1  
    21   17   18 1  
    22   17   19 1  
    23   19   20 1  
    24   20   21 1  
    25   21   22 1  
    26   22   23 2  
    27   22   28 1  
    28   23   24 1  
    29   24   25 1  
    30   25   26 2  
    31   25   27 1  
    32   27   28 1  
    33    1   29 1  
    34    1   30 1  
    35    1   31 1  
    36    3   32 1  
    37    3   33 1  
    38    4   34 1  
    39    4   35 1  
    40    5   36 1  
    41    7   37 1  
    42    7   38 1  
    43    7   39 1  
    44    8   40 1  
    45    8   41 1  
    46    9   42 1  
    47    9   43 1  
    48   10   44 1  
    49   11   45 1  
    50   12   46 1  
    51   12   47 1  
    52   13   48 1  
    53   14   49 1  
    54   14   50 1  
    55   15   51 1  
    56   15   52 1  
    57   16   53 1  
    58   18   54 1  
    59   19   55 1  
    60   19   56 1  
    61   20   57 1  
    62   20   58 1  
    63   21   59 1  
    64   23   60 1  
    65   24   61 1  
    66   24   62 1  
    67   28   63 1  
    68   28   64 1  
@<TRIPOS>SUBSTRUCTURE
     1 BUF         1

