### 
### Created by X-TOOL on Mon Sep 10 21:13:25 2018
### 

@<TRIPOS>MOLECULE
4ret_ligand
  119   126     1     0     0
SMALL
GAST_HUCK


@<TRIPOS>ATOM
      1 C1        -27.8190  -18.9890   72.8590 C.3       1 DGX        -0.0448
      2 C2        -29.2820  -18.7080   73.1780 C.3       1 DGX        -0.0260
      3 C3        -29.8840  -19.5960   74.2750 C.3       1 DGX         0.0620
      4 O3        -29.4650  -19.1240   75.5640 O.3       1 DGX        -0.3480
      5 C4        -29.5410  -21.0540   73.8740 C.3       1 DGX        -0.0232
      6 C5        -28.0820  -21.3550   73.5450 C.3       1 DGX        -0.0330
      7 C6        -27.8810  -22.8240   73.1390 C.3       1 DGX        -0.0493
      8 C7        -28.2790  -23.1690   71.6990 C.3       1 DGX        -0.0470
      9 C8        -27.5460  -22.2770   70.6920 C.3       1 DGX        -0.0079
     10 C9        -27.8780  -20.8130   71.0170 C.3       1 DGX        -0.0276
     11 C10       -27.4640  -20.4470   72.4830 C.3       1 DGX        -0.0258
     12 C11       -27.1580  -19.8760   70.0500 C.3       1 DGX        -0.0223
     13 C12       -27.3980  -20.1600   68.5710 C.3       1 DGX         0.0664
     14 O12       -26.4730  -19.3950   67.8270 O.3       1 DGX        -0.3909
     15 C13       -27.1260  -21.6460   68.1810 C.3       1 DGX         0.0405
     16 C14       -27.8030  -22.6180   69.2140 C.3       1 DGX         0.0799
     17 O14       -27.2410  -23.8670   68.9600 O.3       1 DGX        -0.3874
     18 C15       -29.2800  -22.6370   68.7810 C.3       1 DGX        -0.0200
     19 C16       -29.3150  -22.1140   67.3340 C.3       1 DGX        -0.0318
     20 C17       -27.8820  -21.8690   66.8360 C.3       1 DGX         0.0177
     21 C18       -25.6550  -21.9000   67.9740 C.3       1 DGX        -0.0516
     22 C19       -25.9320  -20.5970   72.5930 C.3       1 DGX        -0.0590
     23 C1X       -29.9490  -17.8190   75.8880 C.3       1 DGX         0.1624
     24 C1Y       -29.2630  -13.4620   79.0150 C.3       1 DGX         0.1626
     25 C1Z       -29.0680  -11.4200   84.0440 C.3       1 DGX         0.1626
     26 C20       -27.2490  -22.8210   65.8530 C.2       1 DGX        -0.0063
     27 C21       -27.4630  -24.3300   65.8580 C.3       1 DGX         0.1204
     28 O21       -26.7780  -24.8340   64.7220 O.3       1 DGX        -0.2665
     29 C22       -26.7780  -22.5280   64.6190 C.2       1 DGX         0.0017
     30 C23       -26.5680  -23.7860   63.8540 C.2       1 DGX         0.2187
     31 O23       -26.2800  -24.0160   62.7120 O.2       1 DGX        -0.3870
     32 C2X       -30.2700  -17.8210   77.3920 C.3       1 DGX         0.0270
     33 C2Y       -30.0770  -12.2870   79.5280 C.3       1 DGX         0.0270
     34 C2Z       -28.5570  -12.4630   85.0800 C.3       1 DGX         0.0270
     35 C3X       -30.6810  -16.4180   77.8870 C.3       1 DGX         0.0884
     36 O3X       -31.8500  -16.0570   77.2090 O.3       1 DGX        -0.3890
     37 C3Y       -29.2910  -11.5070   80.5660 C.3       1 DGX         0.0884
     38 O3Y       -28.0650  -11.1270   79.9920 O.3       1 DGX        -0.3890
     39 C3Z       -29.0990  -12.1820   86.4930 C.3       1 DGX         0.0881
     40 O3Z       -30.4880  -12.3330   86.4490 O.3       1 DGX        -0.3890
     41 C4X       -29.5900  -15.3630   77.5740 C.3       1 DGX         0.1134
     42 O4X       -30.0870  -14.0940   78.0190 O.3       1 DGX        -0.3429
     43 C4Y       -29.0220  -12.4260   81.7980 C.3       1 DGX         0.1134
     44 O4Y       -28.3720  -11.6500   82.8170 O.3       1 DGX        -0.3429
     45 C4Z       -28.7380  -10.7280   86.8900 C.3       1 DGX         0.1070
     46 O4Z       -29.4120  -10.4190   88.0830 O.3       1 DGX        -0.3867
     47 C5X       -29.2500  -15.5320   76.0250 C.3       1 DGX         0.0875
     48 O5X       -28.8970  -16.8800   75.7100 O.3       1 DGX        -0.3456
     49 C5Y       -28.2580  -13.6850   81.2270 C.3       1 DGX         0.0875
     50 O5Y       -29.0440  -14.3040   80.1610 O.3       1 DGX        -0.3456
     51 C5Z       -29.2370   -9.7490   85.7720 C.3       1 DGX         0.0871
     52 O5Z       -28.7250  -10.1050   84.4920 O.3       1 DGX        -0.3456
     53 C6X       -28.0380  -14.6680   75.6720 C.3       1 DGX        -0.0361
     54 C6Y       -28.0900  -14.7000   82.3610 C.3       1 DGX        -0.0361
     55 C6Z       -28.7440   -8.3400   86.1410 C.3       1 DGX        -0.0361
     56 H1        -27.2255  -18.7180   73.7446 H         1 DGX         0.0271
     57 H2        -27.5314  -18.3462   72.0140 H         1 DGX         0.0271
     58 H3        -29.8672  -18.8562   72.2585 H         1 DGX         0.0290
     59 H4        -29.3664  -17.6601   73.5015 H         1 DGX         0.0290
     60 H5        -30.9797  -19.5017   74.2501 H         1 DGX         0.0597
     61 H6        -30.1401  -21.3040   72.9860 H         1 DGX         0.0293
     62 H7        -29.8344  -21.7062   74.7098 H         1 DGX         0.0293
     63 H8        -27.5152  -21.1897   74.4731 H         1 DGX         0.0307
     64 H9        -28.4823  -23.4485   73.8161 H         1 DGX         0.0268
     65 H10       -26.8157  -23.0680   73.2643 H         1 DGX         0.0268
     66 H11       -29.3633  -23.0255   71.5824 H         1 DGX         0.0269
     67 H12       -28.0246  -24.2202   71.4986 H         1 DGX         0.0269
     68 H13       -26.4681  -22.4193   70.8589 H         1 DGX         0.0332
     69 H14       -28.9634  -20.6702   70.9102 H         1 DGX         0.0310
     70 H15       -26.0775  -19.9549   70.2407 H         1 DGX         0.0293
     71 H16       -27.4931  -18.8492   70.2581 H         1 DGX         0.0293
     72 H17       -28.4316  -19.8889   68.3099 H         1 DGX         0.0602
     73 H18       -26.6038  -19.5560   66.8999 H         1 DGX         0.2098
     74 H19       -26.3005  -23.8215   69.0864 H         1 DGX         0.2102
     75 H20       -29.8769  -21.9850   69.4357 H         1 DGX         0.0295
     76 H21       -29.6762  -23.6622   68.8247 H         1 DGX         0.0295
     77 H22       -29.8800  -21.1708   67.2998 H         1 DGX         0.0301
     78 H23       -29.8041  -22.8581   66.6882 H         1 DGX         0.0301
     79 H24       -27.8932  -20.9079   66.3011 H         1 DGX         0.0550
     80 H25       -25.1190  -21.7433   68.9217 H         1 DGX         0.0239
     81 H26       -25.2665  -21.2062   67.2140 H         1 DGX         0.0239
     82 H27       -25.5058  -22.9359   67.6353 H         1 DGX         0.0239
     83 H28       -25.6114  -20.3457   73.6148 H         1 DGX         0.0235
     84 H29       -25.4448  -19.9174   71.8783 H         1 DGX         0.0235
     85 H30       -25.6478  -21.6348   72.3644 H         1 DGX         0.0235
     86 H31       -30.8287  -17.5573   75.2817 H         1 DGX         0.0910
     87 H32       -28.3047  -13.1426   78.5795 H         1 DGX         0.0910
     88 H33       -30.1552  -11.5121   83.9042 H         1 DGX         0.0910
     89 H34       -28.5359  -24.5626   65.7898 H         1 DGX         0.0859
     90 H35       -27.0501  -24.7701   66.7777 H         1 DGX         0.0859
     91 H36       -26.5826  -21.5247   64.2434 H         1 DGX         0.0295
     92 H37       -29.3784  -18.1483   77.9469 H         1 DGX         0.0340
     93 H38       -31.0966  -18.5221   77.5797 H         1 DGX         0.0340
     94 H39       -31.0055  -12.6615   79.9836 H         1 DGX         0.0340
     95 H40       -30.3234  -11.6227   78.6866 H         1 DGX         0.0340
     96 H41       -27.4579  -12.4280   85.1073 H         1 DGX         0.0340
     97 H42       -28.8843  -13.4653   84.7665 H         1 DGX         0.0340
     98 H43       -30.8628  -16.4471   78.9715 H         1 DGX         0.0622
     99 H44       -32.1270  -15.1944   77.4949 H         1 DGX         0.2099
    100 H45       -29.8551  -10.6159   80.8786 H         1 DGX         0.0622
    101 H46       -27.5574  -10.6364   80.6279 H         1 DGX         0.2099
    102 H47       -28.6638  -12.8865   87.2171 H         1 DGX         0.0621
    103 H48       -30.8511  -12.1650   87.3106 H         1 DGX         0.2099
    104 H49       -28.6766  -15.5826   78.1462 H         1 DGX         0.0649
    105 H50       -29.9781  -12.7746   82.2156 H         1 DGX         0.0649
    106 H51       -27.6510  -10.6284   87.0257 H         1 DGX         0.0645
    107 H52       -30.3487  -10.4976   87.9457 H         1 DGX         0.2100
    108 H53       -30.1214  -15.2261   75.4275 H         1 DGX         0.0621
    109 H54       -27.2742  -13.3825   80.8389 H         1 DGX         0.0621
    110 H55       -30.3363   -9.7643   85.7362 H         1 DGX         0.0621
    111 H56       -27.8034  -14.7845   74.6036 H         1 DGX         0.0255
    112 H57       -27.1737  -14.9853   76.2739 H         1 DGX         0.0255
    113 H58       -28.2654  -13.6130   75.8845 H         1 DGX         0.0255
    114 H59       -27.5591  -15.5865   81.9839 H         1 DGX         0.0255
    115 H60       -29.0802  -14.9978   82.7363 H         1 DGX         0.0255
    116 H61       -27.5100  -14.2450   83.1774 H         1 DGX         0.0255
    117 H62       -29.0766   -7.6231   85.3759 H         1 DGX         0.0255
    118 H63       -27.6452   -8.3378   86.1925 H         1 DGX         0.0255
    119 H64       -29.1575   -8.0511   87.1185 H         1 DGX         0.0255
@<TRIPOS>BOND
     1    2    1 1  
     2    1   11 1  
     3    3    2 1  
     4    4    3 1  
     5    3    5 1  
     6   23    4 1  
     7    5    6 1  
     8    6    7 1  
     9    6   11 1  
    10    7    8 1  
    11    8    9 1  
    12   10    9 1  
    13    9   16 1  
    14   11   10 1  
    15   10   12 1  
    16   11   22 1  
    17   12   13 1  
    18   13   14 1  
    19   13   15 1  
    20   16   15 1  
    21   15   20 1  
    22   15   21 1  
    23   16   17 1  
    24   16   18 1  
    25   18   19 1  
    26   20   19 1  
    27   20   26 1  
    28   32   23 1  
    29   23   48 1  
    30   33   24 1  
    31   24   42 1  
    32   24   50 1  
    33   25   34 1  
    34   44   25 1  
    35   25   52 1  
    36   26   27 1  
    37   26   29 2  
    38   27   28 1  
    39   30   28 1  
    40   29   30 1  
    41   30   31 2  
    42   35   32 1  
    43   37   33 1  
    44   34   39 1  
    45   35   36 1  
    46   41   35 1  
    47   37   38 1  
    48   43   37 1  
    49   39   40 1  
    50   39   45 1  
    51   42   41 1  
    52   41   47 1  
    53   43   44 1  
    54   43   49 1  
    55   45   46 1  
    56   45   51 1  
    57   47   48 1  
    58   47   53 1  
    59   49   50 1  
    60   49   54 1  
    61   51   52 1  
    62   51   55 1  
    63    1   56 1  
    64    1   57 1  
    65    2   58 1  
    66    2   59 1  
    67    3   60 1  
    68    5   61 1  
    69    5   62 1  
    70    6   63 1  
    71    7   64 1  
    72    7   65 1  
    73    8   66 1  
    74    8   67 1  
    75    9   68 1  
    76   10   69 1  
    77   12   70 1  
    78   12   71 1  
    79   13   72 1  
    80   14   73 1  
    81   17   74 1  
    82   18   75 1  
    83   18   76 1  
    84   19   77 1  
    85   19   78 1  
    86   20   79 1  
    87   21   80 1  
    88   21   81 1  
    89   21   82 1  
    90   22   83 1  
    91   22   84 1  
    92   22   85 1  
    93   23   86 1  
    94   24   87 1  
    95   25   88 1  
    96   27   89 1  
    97   27   90 1  
    98   29   91 1  
    99   32   92 1  
   100   32   93 1  
   101   33   94 1  
   102   33   95 1  
   103   34   96 1  
   104   34   97 1  
   105   35   98 1  
   106   36   99 1  
   107   37  100 1  
   108   38  101 1  
   109   39  102 1  
   110   40  103 1  
   111   41  104 1  
   112   43  105 1  
   113   45  106 1  
   114   46  107 1  
   115   47  108 1  
   116   49  109 1  
   117   51  110 1  
   118   53  111 1  
   119   53  112 1  
   120   53  113 1  
   121   54  114 1  
   122   54  115 1  
   123   54  116 1  
   124   55  117 1  
   125   55  118 1  
   126   55  119 1  
@<TRIPOS>SUBSTRUCTURE
     1 DGX         1

