### 
### Created by X-TOOL on Mon Sep 10 21:13:25 2018
### 

@<TRIPOS>MOLECULE
4rfc_ligand
   47    47     1     0     0
SMALL
GAST_HUCK


@<TRIPOS>ATOM
      1 CAA        23.7300   11.0580   12.8220 C.3       1 3O1        -0.0320
      2 CAV        24.1630   11.9070   13.9720 C.3       1 3O1         0.0905
      3 CAB        24.7410   13.1820   13.4480 C.3       1 3O1        -0.0320
      4 CAC        25.2110   11.1790   14.7500 C.3       1 3O1        -0.0320
      5 OAR        23.0930   12.1940   14.7980 O.3       1 3O1        -0.2581
      6 CAS        21.9520   11.8400   14.5160 C.2       1 3O1         0.3200
      7 OAE        20.9940   12.8060   14.3160 O.2       1 3O1        -0.3775
      8 NAP        21.5240   10.5180   14.8740 N.am      1 3O1        -0.2625
      9 CAN        20.2680   10.2110   14.2570 C.3       1 3O1         0.0329
     10 CAL        19.5650    8.9520   14.6480 C.3       1 3O1        -0.0303
     11 CAM        19.3240    7.8870   13.6340 C.3       1 3O1        -0.0233
     12 CAO        18.9180    6.5240   14.0970 C.3       1 3O1         0.0705
     13 OAQ        17.6160    6.1280   13.9040 O.3       1 3O1        -0.3180
     14 CAT        17.1030    5.0580   14.5990 C.ar      1 3O1         0.0912
     15 CAH        15.7810    5.0630   15.0230 C.ar      1 3O1        -0.0313
     16 CAJ        15.2600    3.9900   15.7240 C.ar      1 3O1        -0.0441
     17 CAU        16.0560    2.8900   16.0150 C.ar      1 3O1         0.0967
     18 SAW        15.3960    1.5190   16.9180 S.o2      1 3O1         0.0609
     19 OAF        15.9260    1.6000   18.2860 O.2       1 3O1        -0.1519
     20 OAG        13.9270    1.6060   16.9510 O.2       1 3O1        -0.1519
     21 NAD        15.9060    0.1240   16.2480 N.am      1 3O1        -0.2621
     22 CAK        17.3780    2.8830   15.5940 C.ar      1 3O1        -0.0441
     23 CAI        17.8960    3.9560   14.8900 C.ar      1 3O1        -0.0313
     24 H1         24.5960   10.8423   12.1790 H         1 3O1         0.0260
     25 H2         22.9649   11.5921   12.2395 H         1 3O1         0.0260
     26 H3         23.3103   10.1143   13.2005 H         1 3O1         0.0260
     27 H4         25.0621   13.8124   14.2903 H         1 3O1         0.0260
     28 H5         23.9795   13.7155   12.8602 H         1 3O1         0.0260
     29 H6         25.6067   12.9564   12.8080 H         1 3O1         0.0260
     30 H7         24.7923   10.2391   15.1388 H         1 3O1         0.0260
     31 H8         25.5463   11.8059   15.5894 H         1 3O1         0.0260
     32 H9         26.0657   10.9561   14.0945 H         1 3O1         0.0260
     33 H10        22.0319    9.8972   15.4712 H         1 3O1         0.1867
     34 H11        20.4440   10.1600   13.1724 H         1 3O1         0.0519
     35 H12        19.5859   11.0449   14.4790 H         1 3O1         0.0519
     36 H13        18.5800    9.2467   15.0390 H         1 3O1         0.0285
     37 H14        20.1576    8.4946   15.4540 H         1 3O1         0.0285
     38 H15        20.2565    7.7689   13.0626 H         1 3O1         0.0292
     39 H16        18.5287    8.2510   12.9669 H         1 3O1         0.0292
     40 H17        19.1155    6.4757   15.1780 H         1 3O1         0.0614
     41 H18        19.5591    5.7988   13.5744 H         1 3O1         0.0614
     42 H19        15.1503    5.9166   14.8025 H         1 3O1         0.0542
     43 H20        14.2256    4.0081   16.0476 H         1 3O1         0.0608
     44 H21        15.6225   -0.7516   16.6392 H         1 3O1         0.1633
     45 H22        16.5025    0.1434   15.4456 H         1 3O1         0.1633
     46 H23        18.0096    2.0310   15.8181 H         1 3O1         0.0608
     47 H24        18.9293    3.9360   14.5631 H         1 3O1         0.0542
@<TRIPOS>BOND
     1    1    2 1  
     2    2    3 1  
     3    2    4 1  
     4    2    5 1  
     5    5    6 1  
     6    6    7 2  
     7    6    8 am 
     8    8    9 1  
     9    9   10 1  
    10   10   11 1  
    11   11   12 1  
    12   12   13 1  
    13   13   14 1  
    14   14   15 ar 
    15   14   23 ar 
    16   15   16 ar 
    17   16   17 ar 
    18   17   18 1  
    19   17   22 ar 
    20   18   19 2  
    21   18   20 2  
    22   18   21 am 
    23   22   23 ar 
    24    1   24 1  
    25    1   25 1  
    26    1   26 1  
    27    3   27 1  
    28    3   28 1  
    29    3   29 1  
    30    4   30 1  
    31    4   31 1  
    32    4   32 1  
    33    8   33 1  
    34    9   34 1  
    35    9   35 1  
    36   10   36 1  
    37   10   37 1  
    38   11   38 1  
    39   11   39 1  
    40   12   40 1  
    41   12   41 1  
    42   15   42 1  
    43   16   43 1  
    44   21   44 1  
    45   21   45 1  
    46   22   46 1  
    47   23   47 1  
@<TRIPOS>SUBSTRUCTURE
     1 3O1         1

