### 
### Created by X-TOOL on Mon Sep 10 21:13:23 2018
### 

@<TRIPOS>MOLECULE
4rfd_ligand
   33    33     1     0     0
SMALL
GAST_HUCK


@<TRIPOS>ATOM
      1 CAE        -2.2080    7.0680   84.9310 C.ar      1 3O5        -0.0313
      2 CAG        -2.7140    5.9770   85.6250 C.ar      1 3O5        -0.0441
      3 CAO        -1.8930    4.8830   85.9020 C.ar      1 3O5         0.0967
      4 SAP        -2.5670    3.5110   86.7950 S.o2      1 3O5         0.0609
      5 OAC        -2.0650    3.6000   88.1900 O.2       1 3O5        -0.1519
      6 OAD        -4.0370    3.6190   86.6660 O.2       1 3O5        -0.1519
      7 NAA        -2.0190    2.1210   86.1210 N.am      1 3O5        -0.2621
      8 CAH        -0.5650    4.8850   85.4900 C.ar      1 3O5        -0.0441
      9 CAF        -0.0660    5.9850   84.7950 C.ar      1 3O5        -0.0313
     10 CAN        -0.8840    7.0770   84.5210 C.ar      1 3O5         0.0912
     11 OAM        -0.4030    8.1750   83.8410 O.3       1 3O5        -0.3180
     12 CAL         0.9260    8.2570   83.5070 C.3       1 3O5         0.0706
     13 CAK         1.4610    9.5870   83.0930 C.3       1 3O5        -0.0203
     14 CAJ         1.6980   10.6130   84.1430 C.3       1 3O5        -0.0102
     15 CAI         2.3720   11.8940   83.7670 C.3       1 3O5        -0.0353
     16 NAB         2.7710   12.8090   84.7970 N.4       1 3O5         0.2185
     17 H1         -2.8491    7.9136   84.7096 H         1 3O5         0.0542
     18 H2         -3.7475    5.9750   85.9519 H         1 3O5         0.0608
     19 H3         -2.2988    1.2382   86.4982 H         1 3O5         0.1633
     20 H4         -1.4049    2.1558   85.3326 H         1 3O5         0.1633
     21 H5          0.0764    4.0386   85.7074 H         1 3O5         0.0608
     22 H6          0.9667    5.9901   84.4655 H         1 3O5         0.0542
     23 H7          1.0977    7.5608   82.6729 H         1 3O5         0.0614
     24 H8          1.5048    7.9294   84.3832 H         1 3O5         0.0614
     25 H9          0.7462   10.0157   82.3752 H         1 3O5         0.0293
     26 H10         2.4229    9.4082   82.5903 H         1 3O5         0.0293
     27 H11         2.3151   10.1407   84.9215 H         1 3O5         0.0318
     28 H12         0.7162   10.8768   84.5632 H         1 3O5         0.0318
     29 H13         1.6810   12.4375   83.1059 H         1 3O5         0.0813
     30 H14         3.2802   11.6259   83.2074 H         1 3O5         0.0813
     31 H15         3.2071   13.6160   84.3791 H         1 3O5         0.1994
     32 H16         3.4259   12.3552   85.4144 H         1 3O5         0.1994
     33 H17         1.9604   13.0990   85.3214 H         1 3O5         0.1994
@<TRIPOS>BOND
     1    1    2 ar 
     2    1   10 ar 
     3    2    3 ar 
     4    3    4 1  
     5    3    8 ar 
     6    4    5 2  
     7    4    6 2  
     8    4    7 am 
     9    8    9 ar 
    10    9   10 ar 
    11   10   11 1  
    12   11   12 1  
    13   12   13 1  
    14   13   14 1  
    15   14   15 1  
    16   15   16 1  
    17    1   17 1  
    18    2   18 1  
    19    7   19 1  
    20    7   20 1  
    21    8   21 1  
    22    9   22 1  
    23   12   23 1  
    24   12   24 1  
    25   13   25 1  
    26   13   26 1  
    27   14   27 1  
    28   14   28 1  
    29   15   29 1  
    30   15   30 1  
    31   16   31 1  
    32   16   32 1  
    33   16   33 1  
@<TRIPOS>SUBSTRUCTURE
     1 3O5         1

