### 
### Created by X-TOOL on Mon Sep 10 21:13:24 2018
### 

@<TRIPOS>MOLECULE
4rfm_ligand
   63    68     1     0     0
SMALL
GAST_HUCK


@<TRIPOS>ATOM
      1 C1         13.3510    3.1130    5.7660 C.3       1 3P6        -0.0520
      2 C2         14.7070    2.9650    5.1650 C.3       1 3P6         0.0496
      3 C3         15.7340    4.0080    5.5820 C.3       1 3P6        -0.0033
      4 C4         17.0800    3.4290    5.8160 C.2       1 3P6         0.0235
      5 N5         18.1650    4.0840    6.3120 N.2       1 3P6        -0.2231
      6 N6         19.2430    3.2620    6.3910 N.pl3     1 3P6        -0.2205
      7 C7         18.8520    2.0560    5.9370 C.2       1 3P6         0.1525
      8 C8         19.7600    0.9070    5.8690 C.2       1 3P6         0.2386
      9 O9         19.5230   -0.1340    5.2740 O.2       1 3P6        -0.3833
     10 N10        20.9350    1.0780    6.5620 N.am      1 3P6        -0.2531
     11 C11        21.9840    0.1720    6.4910 C.2       1 3P6         0.0733
     12 C12        22.0870   -1.1200    5.9070 C.2       1 3P6         0.0203
     13 N13        23.2900   -1.6750    6.0420 N.2       1 3P6        -0.2227
     14 N14        23.9460   -0.7280    6.7380 N.pl3     1 3P6        -0.2061
     15 C15        23.2160    0.3910    7.0240 C.2       1 3P6         0.0629
     16 C16        25.3450   -0.8840    7.1030 C.3       1 3P6         0.1314
     17 C17        25.7930   -2.3260    7.2600 C.3       1 3P6         0.1179
     18 C18        27.3000   -2.3980    7.5190 C.3       1 3P6        -0.0258
     19 C19        27.7810   -3.8600    7.5010 C.3       1 3P6        -0.0496
     20 C20        27.3430   -4.6090    8.7110 C.3       1 3P6        -0.0335
     21 C21        25.8180   -4.6630    8.7670 C.3       1 3P6         0.0664
     22 S22        24.9810   -3.0610    8.6790 S.o2      1 3P6        -0.0234
     23 O23        25.3430   -2.3020    9.8660 O.2       1 3P6        -0.1738
     24 O24        23.5960   -3.3350    8.3400 O.2       1 3P6        -0.1738
     25 C25        26.1770   -0.1690    6.0670 C.ar      1 3P6        -0.0068
     26 C26        27.0820    0.8040    6.4520 C.ar      1 3P6        -0.0573
     27 C27        27.8570    1.4490    5.5000 C.ar      1 3P6        -0.0685
     28 C28        27.7210    1.1500    4.1580 C.ar      1 3P6        -0.0687
     29 C29        26.8150    0.1790    3.7650 C.ar      1 3P6        -0.0685
     30 C30        26.0480   -0.4750    4.7240 C.ar      1 3P6        -0.0573
     31 C31        17.4850    2.1430    5.5890 C.2       1 3P6        -0.0038
     32 C32        16.5880    1.1140    5.0510 C.3       1 3P6        -0.0190
     33 C33        15.1540    1.5320    4.9470 C.3       1 3P6         0.0414
     34 C34        14.7920    2.4050    3.7940 C.3       1 3P6         0.2610
     35 F35        15.7480    3.0010    2.9690 F         1 3P6        -0.2044
     36 F36        13.6240    2.2030    3.0850 F         1 3P6        -0.2044
     37 H1         13.4423    3.5372    6.7768 H         1 3P6         0.0238
     38 H2         12.8663    2.1273    5.8245 H         1 3P6         0.0238
     39 H3         12.7438    3.7837    5.1403 H         1 3P6         0.0238
     40 H4         15.3912    4.4868    6.5111 H         1 3P6         0.0413
     41 H5         15.8102    4.7638    4.7864 H         1 3P6         0.0413
     42 H6         20.1815    3.5132    6.7332 H         1 3P6         0.2489
     43 H7         21.0379    1.8874    7.1402 H         1 3P6         0.2112
     44 H8         21.2592   -1.6102    5.3967 H         1 3P6         0.0620
     45 H9         23.5509    1.2743    7.5659 H         1 3P6         0.0764
     46 H10        25.4964   -0.3890    8.0736 H         1 3P6         0.0850
     47 H11        25.5422   -2.8876    6.3480 H         1 3P6         0.0591
     48 H12        27.5198   -1.9568    8.5024 H         1 3P6         0.0286
     49 H13        27.8290   -1.8333    6.7372 H         1 3P6         0.0286
     50 H14        28.8800   -3.8713    7.4555 H         1 3P6         0.0266
     51 H15        27.3720   -4.3570    6.6090 H         1 3P6         0.0266
     52 H16        27.7230   -4.1026    9.6105 H         1 3P6         0.0281
     53 H17        27.7426   -5.6330    8.6703 H         1 3P6         0.0281
     54 H18        25.5299   -5.1449    9.7129 H         1 3P6         0.0500
     55 H19        25.4688   -5.2752    7.9224 H         1 3P6         0.0500
     56 H20        27.1855    1.0626    7.4996 H         1 3P6         0.0558
     57 H21        28.5776    2.1962    5.8122 H         1 3P6         0.0599
     58 H22        28.3185    1.6711    3.4188 H         1 3P6         0.0559
     59 H23        26.7041   -0.0701    2.7159 H         1 3P6         0.0599
     60 H24        25.3395   -1.2348    4.4146 H         1 3P6         0.0558
     61 H25        16.6422    0.2335    5.7081 H         1 3P6         0.0376
     62 H26        16.9405    0.8430    4.0449 H         1 3P6         0.0376
     63 H27        14.5013    0.7062    5.2664 H         1 3P6         0.0383
@<TRIPOS>BOND
     1    1    2 1  
     2    2    3 1  
     3    2   33 1  
     4    2   34 1  
     5    3    4 1  
     6    4    5 2  
     7    4   31 1  
     8    5    6 1  
     9    6    7 1  
    10    7    8 1  
    11    7   31 2  
    12    8    9 2  
    13    8   10 am 
    14   10   11 1  
    15   11   12 1  
    16   11   15 2  
    17   12   13 2  
    18   13   14 1  
    19   14   15 1  
    20   14   16 1  
    21   16   17 1  
    22   16   25 1  
    23   17   18 1  
    24   17   22 1  
    25   18   19 1  
    26   19   20 1  
    27   20   21 1  
    28   21   22 1  
    29   22   23 2  
    30   22   24 2  
    31   25   26 ar 
    32   25   30 ar 
    33   26   27 ar 
    34   27   28 ar 
    35   28   29 ar 
    36   29   30 ar 
    37   31   32 1  
    38   32   33 1  
    39   33   34 1  
    40   34   35 1  
    41   34   36 1  
    42    1   37 1  
    43    1   38 1  
    44    1   39 1  
    45    3   40 1  
    46    3   41 1  
    47    6   42 1  
    48   10   43 1  
    49   12   44 1  
    50   15   45 1  
    51   16   46 1  
    52   17   47 1  
    53   18   48 1  
    54   18   49 1  
    55   19   50 1  
    56   19   51 1  
    57   20   52 1  
    58   20   53 1  
    59   21   54 1  
    60   21   55 1  
    61   26   56 1  
    62   27   57 1  
    63   28   58 1  
    64   29   59 1  
    65   30   60 1  
    66   32   61 1  
    67   32   62 1  
    68   33   63 1  
@<TRIPOS>SUBSTRUCTURE
     1 3P6         1

