### 
### Created by X-TOOL on Mon Sep 10 21:13:25 2018
### 

@<TRIPOS>MOLECULE
4rfr_ligand
   30    32     1     0     0
SMALL
GAST_HUCK


@<TRIPOS>ATOM
      1 OAA        -4.3940    2.4690   -1.4880 O.co2     1 RHN        -0.5620
      2 OAB        -2.0430    5.0570    2.1620 O.3       1 RHN        -0.3405
      3 OAC        -1.4710    0.5190    5.0400 O.3       1 RHN        -0.3326
      4 OAD        -4.3020    0.3140   -1.4270 O.co2     1 RHN        -0.5620
      5 OAE        -0.6980    1.7670    7.0300 O.3       1 RHN        -0.3297
      6 OAF        -3.0470   -0.7210    3.2980 O.3       1 RHN        -0.3299
      7 CAG        -1.2850    5.2770    6.2920 C.ar      1 RHN        -0.0828
      8 CAH        -0.9370    4.1190    6.9710 C.ar      1 RHN        -0.0424
      9 CAI        -1.7030    5.2040    4.9590 C.ar      1 RHN        -0.0765
     10 CAJ        -3.5020    0.3860    1.3010 C.ar      1 RHN        -0.0305
     11 CAK        -3.0630    2.7070    1.0500 C.ar      1 RHN        -0.0616
     12 CAL        -4.0960    1.4230   -0.8770 C.2       1 RHN         0.0558
     13 CAM        -3.5060    1.5060    0.5050 C.ar      1 RHN        -0.0113
     14 CAN        -0.9960    2.8910    6.3220 C.ar      1 RHN         0.0947
     15 CAO        -2.9170    0.4000    2.5600 C.ar      1 RHN         0.0955
     16 CAP        -2.0980    3.9270    2.9420 C.ar      1 RHN         0.0875
     17 CAQ        -1.5760    1.6400    4.2810 C.ar      1 RHN         0.1051
     18 CAR        -1.7100    3.9880    4.2820 C.ar      1 RHN        -0.0037
     19 CAS        -2.5340    2.7460    2.3500 C.ar      1 RHN        -0.0005
     20 CAT        -1.4910    2.8190    5.0110 C.ar      1 RHN         0.0438
     21 CAU        -2.3740    1.5680    3.0880 C.ar      1 RHN         0.0444
     22 H1         -2.3380    4.8486    1.2834 H         1 RHN         0.2460
     23 H2         -2.1712    0.5058    5.6820 H         1 RHN         0.2503
     24 H3         -0.7787    1.0075    6.4650 H         1 RHN         0.2516
     25 H4         -2.6120   -0.6007    4.1340 H         1 RHN         0.2514
     26 H5         -1.2332    6.2368    6.7932 H         1 RHN         0.0539
     27 H6         -0.6195    4.1713    8.0061 H         1 RHN         0.0441
     28 H7         -2.0249    6.1041    4.4479 H         1 RHN         0.0459
     29 H8         -3.9642   -0.5254    0.9393 H         1 RHN         0.0454
     30 H9         -3.1267    3.6187    0.4671 H         1 RHN         0.0507
@<TRIPOS>BOND
     1   12    1 ar 
     2   16    2 1  
     3   17    3 1  
     4   12    4 ar 
     5   14    5 1  
     6   15    6 1  
     7    8    7 ar 
     8    7    9 ar 
     9   14    8 ar 
    10    9   18 ar 
    11   13   10 ar 
    12   10   15 ar 
    13   11   13 ar 
    14   19   11 ar 
    15   13   12 1  
    16   20   14 ar 
    17   15   21 ar 
    18   18   16 ar 
    19   16   19 ar 
    20   17   20 ar 
    21   17   21 ar 
    22   18   20 ar 
    23   19   21 ar 
    24    2   22 1  
    25    3   23 1  
    26    5   24 1  
    27    6   25 1  
    28    7   26 1  
    29    8   27 1  
    30    9   28 1  
    31   10   29 1  
    32   11   30 1  
@<TRIPOS>SUBSTRUCTURE
     1 RHN         1

