### 
### Created by X-TOOL on Mon Sep 10 21:13:18 2018
### 

@<TRIPOS>MOLECULE
4rfy_ligand
   81    86     1     0     0
SMALL
GAST_HUCK


@<TRIPOS>ATOM
      1 C1         21.5900    5.6290    1.2150 C.2       1 3OU         0.2422
      2 C2         22.8130    5.9140    0.5290 C.2       1 3OU         0.1241
      3 C3         23.8670    6.3710    1.2600 C.2       1 3OU        -0.0485
      4 C4         23.7080    6.5230    2.6730 C.2       1 3OU        -0.0197
      5 C5         22.5010    6.2330    3.2950 C.2       1 3OU         0.0609
      6 N6         21.4540    5.7850    2.5610 N.am      1 3OU        -0.2131
      7 C7         20.1400    5.4900    3.2120 C.3       1 3OU         0.0571
      8 O8         20.6610    5.2210    0.5160 O.2       1 3OU        -0.4080
      9 N9         22.7800    5.7170   -0.8810 N.pl3     1 3OU        -0.2615
     10 C10        23.7750    5.7820   -1.8300 C.ar      1 3OU         0.1337
     11 C11        23.5030    5.3560   -3.1480 C.ar      1 3OU        -0.0074
     12 C12        24.5010    5.4520   -4.0910 C.ar      1 3OU        -0.0344
     13 C13        25.7470    5.9730   -3.6910 C.ar      1 3OU         0.0632
     14 C14        25.9390    6.3980   -2.3500 C.ar      1 3OU         0.0167
     15 N15        24.9560    6.2860   -1.4640 N.ar      1 3OU        -0.2757
     16 C16        26.8960    6.1530   -4.6290 C.2       1 3OU         0.2055
     17 O17        27.9680    5.6680   -4.3290 O.2       1 3OU        -0.3877
     18 N18        26.7870    6.9300   -5.7490 N.am      1 3OU        -0.2689
     19 C19        27.9820    7.1160   -6.6370 C.3       1 3OU         0.0567
     20 C20        27.6000    7.6340   -8.0340 C.3       1 3OU         0.0680
     21 O21        26.6610    8.7160   -7.8790 O.3       1 3OU        -0.3758
     22 C22        25.4000    8.1420   -7.5330 C.3       1 3OU         0.0680
     23 C23        25.4920    7.6120   -6.0940 C.3       1 3OU         0.0567
     24 C24        24.8810    6.9830    3.4740 C.ar      1 3OU        -0.0485
     25 C25        26.1220    6.3530    3.1860 C.ar      1 3OU        -0.0858
     26 C26        27.2890    6.6900    3.8580 C.ar      1 3OU        -0.0886
     27 C27        27.2450    7.6600    4.8980 C.ar      1 3OU        -0.0536
     28 C28        26.0310    8.3060    5.1780 C.ar      1 3OU         0.0665
     29 C29        24.8420    7.9490    4.5150 C.ar      1 3OU         0.0020
     30 C30        23.5120    8.6560    4.7630 C.3       1 3OU         0.0719
     31 N31        25.9220    9.2680    6.2290 N.am      1 3OU        -0.2248
     32 C32        26.0350   10.7020    5.8430 C.3       1 3OU         0.0632
     33 C33        25.0780   11.5270    6.6800 C.3       1 3OU         0.0068
     34 C34        25.7490    8.8580    7.5170 C.2       1 3OU         0.2186
     35 C35        25.5020    9.8860    8.5650 C.ar      1 3OU         0.0437
     36 C36        25.1250   11.2020    8.1370 C.ar      1 3OU        -0.0313
     37 C37        24.7950   12.1560    9.0890 C.ar      1 3OU        -0.0371
     38 C38        24.7660   11.7920   10.4680 C.ar      1 3OU         0.0382
     39 C39        25.1560   10.4960   10.8870 C.ar      1 3OU        -0.0448
     40 C40        25.4710    9.5360    9.9230 C.ar      1 3OU        -0.0591
     41 N41        24.4440   12.7410   11.4750 N.pl3     1 3OU        -0.3134
     42 C42        23.7620   14.0300   11.1060 C.3       1 3OU         0.0161
     43 C43        24.6990   12.4970   12.8840 C.3       1 3OU         0.0161
     44 O44        25.6630    7.6500    7.8360 O.2       1 3OU        -0.3838
     45 O45        22.8460    8.1810    5.9580 O.3       1 3OU        -0.3858
     46 H          24.8124    6.6159    0.7781 H         1 3OU         0.0441
     47 H          22.3961    6.3654    4.3708 H         1 3OU         0.1118
     48 H          19.4250    5.1402    2.4528 H         1 3OU         0.0604
     49 H          19.7528    6.4035    3.6870 H         1 3OU         0.0604
     50 H          20.2758    4.7093    3.9749 H         1 3OU         0.0604
     51 H          21.8491    5.4855   -1.2562 H         1 3OU         0.2121
     52 H          22.5285    4.9615   -3.4120 H         1 3OU         0.0630
     53 H          24.3326    5.1352   -5.1139 H         1 3OU         0.0745
     54 H          26.8925    6.8159   -2.0479 H         1 3OU         0.0839
     55 H          28.4943    6.1488   -6.7469 H         1 3OU         0.0544
     56 H          28.6629    7.8402   -6.1659 H         1 3OU         0.0544
     57 H          27.1390    6.8233   -8.6172 H         1 3OU         0.0580
     58 H          28.4992    7.9948   -8.5548 H         1 3OU         0.0580
     59 H          25.1662    7.3153   -8.2199 H         1 3OU         0.0580
     60 H          24.6123    8.9070   -7.5983 H         1 3OU         0.0580
     61 H          25.3609    8.4621   -5.4084 H         1 3OU         0.0544
     62 H          24.6757    6.8903   -5.9435 H         1 3OU         0.0544
     63 H          26.1583    5.5873    2.4195 H         1 3OU         0.0416
     64 H          28.2276    6.2173    3.5922 H         1 3OU         0.0507
     65 H          28.1371    7.8968    5.4664 H         1 3OU         0.0430
     66 H          22.8535    8.4819    3.8993 H         1 3OU         0.0682
     67 H          23.7002    9.7346    4.8691 H         1 3OU         0.0682
     68 H          25.7830   10.8162    4.7784 H         1 3OU         0.0606
     69 H          27.0648   11.0481    6.0153 H         1 3OU         0.0606
     70 H          24.0553   11.3481    6.3167 H         1 3OU         0.0462
     71 H          25.3318   12.5897    6.5525 H         1 3OU         0.0462
     72 H          24.5609   13.1705    8.7871 H         1 3OU         0.0464
     73 H          25.2092   10.2528   11.9420 H         1 3OU         0.0477
     74 H          25.6920    8.5185   10.2247 H         1 3OU         0.0619
     75 H          23.5965   14.6300   12.0130 H         1 3OU         0.0480
     76 H          22.7948   13.8101   10.6304 H         1 3OU         0.0480
     77 H          24.3959   14.5926   10.4049 H         1 3OU         0.0480
     78 H          25.1987   11.5243   13.0031 H         1 3OU         0.0480
     79 H          23.7459   12.4893   13.4332 H         1 3OU         0.0480
     80 H          25.3456   13.2926   13.2828 H         1 3OU         0.0480
     81 H          22.0266    8.6485    6.0696 H         1 3OU         0.2121
@<TRIPOS>BOND
     1    1    2 1  
     2    1    6 am 
     3    1    8 2  
     4    2    3 2  
     5    2    9 1  
     6    3    4 1  
     7    4    5 2  
     8    4   24 1  
     9    5    6 1  
    10    6    7 1  
    11    9   10 1  
    12   10   11 ar 
    13   10   15 ar 
    14   11   12 ar 
    15   12   13 ar 
    16   13   14 ar 
    17   13   16 1  
    18   14   15 ar 
    19   16   17 2  
    20   16   18 am 
    21   18   19 1  
    22   18   23 1  
    23   19   20 1  
    24   20   21 1  
    25   21   22 1  
    26   22   23 1  
    27   24   25 ar 
    28   24   29 ar 
    29   25   26 ar 
    30   26   27 ar 
    31   27   28 ar 
    32   28   29 ar 
    33   28   31 1  
    34   29   30 1  
    35   30   45 1  
    36   31   32 1  
    37   31   34 am 
    38   32   33 1  
    39   33   36 1  
    40   34   35 1  
    41   34   44 2  
    42   35   36 ar 
    43   35   40 ar 
    44   36   37 ar 
    45   37   38 ar 
    46   38   39 ar 
    47   38   41 1  
    48   39   40 ar 
    49   41   42 1  
    50   41   43 1  
    51    3   46 1  
    52    5   47 1  
    53    7   48 1  
    54    7   49 1  
    55    7   50 1  
    56    9   51 1  
    57   11   52 1  
    58   12   53 1  
    59   14   54 1  
    60   19   55 1  
    61   19   56 1  
    62   20   57 1  
    63   20   58 1  
    64   22   59 1  
    65   22   60 1  
    66   23   61 1  
    67   23   62 1  
    68   25   63 1  
    69   26   64 1  
    70   27   65 1  
    71   30   66 1  
    72   30   67 1  
    73   32   68 1  
    74   32   69 1  
    75   33   70 1  
    76   33   71 1  
    77   37   72 1  
    78   39   73 1  
    79   40   74 1  
    80   42   75 1  
    81   42   76 1  
    82   42   77 1  
    83   43   78 1  
    84   43   79 1  
    85   43   80 1  
    86   45   81 1  
@<TRIPOS>SUBSTRUCTURE
     1 3OU         1

