### 
### Created by X-TOOL on Mon Sep 10 21:13:16 2018
### 

@<TRIPOS>MOLECULE
4rfz_ligand
   79    84     1     0     0
SMALL
GAST_HUCK


@<TRIPOS>ATOM
      1 C1         22.0290    5.1820    1.1880 C.2       1 3OV         0.2422
      2 C2         23.2630    5.4430    0.6120 C.2       1 3OV         0.1241
      3 C3         24.3680    5.8230    1.3040 C.2       1 3OV        -0.0484
      4 C4         24.2560    5.9490    2.7500 C.2       1 3OV        -0.0186
      5 C5         23.0310    5.7050    3.2950 C.2       1 3OV         0.0611
      6 N6         21.9520    5.3280    2.5670 N.am      1 3OV        -0.2131
      7 C7         20.6380    5.1280    3.1470 C.3       1 3OV         0.0571
      8 O8         21.0060    4.8210    0.5920 O.2       1 3OV        -0.4079
      9 N9         23.2250    5.2340   -0.8190 N.pl3     1 3OV        -0.2615
     10 C10        24.2590    5.2880   -1.7060 C.ar      1 3OV         0.1337
     11 C11        23.9390    4.9040   -3.0400 C.ar      1 3OV        -0.0074
     12 C12        24.9500    4.9440   -3.9630 C.ar      1 3OV        -0.0344
     13 C13        26.2470    5.2700   -3.5970 C.ar      1 3OV         0.0632
     14 C14        26.4670    5.6380   -2.2600 C.ar      1 3OV         0.0167
     15 N15        25.4620    5.6170   -1.3660 N.ar      1 3OV        -0.2757
     16 C16        27.3500    5.3090   -4.5690 C.2       1 3OV         0.2055
     17 O17        27.1500    5.9900   -5.5670 O.2       1 3OV        -0.3877
     18 N18        28.4910    4.5880   -4.3900 N.am      1 3OV        -0.2689
     19 C19        29.5370    4.6310   -5.5000 C.3       1 3OV         0.0567
     20 C20        30.9310    4.6980   -4.8600 C.3       1 3OV         0.0680
     21 O21        31.1290    3.5530   -4.0090 O.3       1 3OV        -0.3758
     22 C22        30.1890    3.5070   -2.8740 C.3       1 3OV         0.0680
     23 C23        28.7180    3.6840   -3.2370 C.3       1 3OV         0.0567
     24 C24        25.4170    6.3090    3.5490 C.ar      1 3OV        -0.0435
     25 C25        26.6370    5.6650    3.3400 C.ar      1 3OV        -0.0818
     26 C26        27.7850    5.9240    4.0470 C.ar      1 3OV        -0.0840
     27 C27        27.7050    6.8930    5.0840 C.ar      1 3OV        -0.0427
     28 C28        26.4910    7.5100    5.3260 C.ar      1 3OV         0.1030
     29 C29        25.3480    7.3080    4.5890 C.ar      1 3OV         0.0133
     30 C30        24.1140    8.1330    4.8190 C.3       1 3OV         0.0746
     31 N31        26.4420    8.5290    6.3600 N.am      1 3OV        -0.1714
     32 C32        26.4910    9.8590    5.9870 C.2       1 3OV         0.0685
     33 C33        26.2480   10.8690    6.8430 C.2       1 3OV        -0.0483
     34 C34        26.1320    8.1230    7.6170 C.2       1 3OV         0.2409
     35 C35        25.8900    9.1590    8.6140 C.ar      1 3OV         0.0739
     36 C36        25.8870   10.5170    8.2100 C.ar      1 3OV        -0.0469
     37 C37        25.5630   11.5640    9.1160 C.ar      1 3OV        -0.0520
     38 C38        25.2320   11.2660   10.4290 C.ar      1 3OV         0.0318
     39 C39        25.2500    9.9340   10.8730 C.ar      1 3OV        -0.0135
     40 C40        25.5230    8.9660    9.9310 C.ar      1 3OV         0.1349
     41 N41        24.8880   12.2610   11.3090 N.pl3     1 3OV        -0.3154
     42 C42        24.5170   13.6060   10.8000 C.3       1 3OV         0.0157
     43 C43        25.0670   12.0690   12.7440 C.3       1 3OV         0.0157
     44 O44        26.0380    6.9200    7.9080 O.2       1 3OV        -0.3903
     45 O45        23.3930    7.6090    5.9500 O.3       1 3OV        -0.3849
     46 F46        25.4410    7.6700   10.3850 F         1 3OV        -0.1830
     47 H          25.3080    6.0270    0.7934 H         1 3OV         0.0441
     48 H          22.9131    5.8189    4.3716 H         1 3OV         0.1119
     49 H          19.9317    4.8263    2.3595 H         1 3OV         0.0604
     50 H          20.2942    6.0656    3.6083 H         1 3OV         0.0604
     51 H          20.6913    4.3404    3.9131 H         1 3OV         0.0604
     52 H          22.3005    5.0171   -1.2179 H         1 3OV         0.2121
     53 H          22.9371    4.5931   -3.3131 H         1 3OV         0.0630
     54 H          24.7319    4.7163   -5.0001 H         1 3OV         0.0745
     55 H          27.4583    5.9426   -1.9445 H         1 3OV         0.0839
     56 H          29.3747    5.5198   -6.1275 H         1 3OV         0.0544
     57 H          29.4571    3.7254   -6.1192 H         1 3OV         0.0544
     58 H          31.0151    5.6173   -4.2618 H         1 3OV         0.0580
     59 H          31.6964    4.7033   -5.6500 H         1 3OV         0.0580
     60 H          30.4644    4.3080   -2.1722 H         1 3OV         0.0580
     61 H          30.3016    2.5311   -2.3791 H         1 3OV         0.0580
     62 H          28.3002    2.6966   -3.4829 H         1 3OV         0.0544
     63 H          28.1925    4.0973   -2.3635 H         1 3OV         0.0544
     64 H          26.6815    4.9077    2.5657 H         1 3OV         0.0447
     65 H          28.7135    5.4111    3.8238 H         1 3OV         0.0516
     66 H          28.5791    7.1437    5.6741 H         1 3OV         0.0473
     67 H          23.4740    8.0933    3.9253 H         1 3OV         0.0692
     68 H          24.4015    9.1759    5.0181 H         1 3OV         0.0692
     69 H          26.7373   10.1006    4.9541 H         1 3OV         0.1150
     70 H          26.3185   11.9085    6.5262 H         1 3OV         0.0306
     71 H          25.5748   12.5946    8.7803 H         1 3OV         0.0396
     72 H          25.0580    9.6790   11.9089 H         1 3OV         0.0451
     73 H          24.2747   14.2646   11.6471 H         1 3OV         0.0479
     74 H          23.6409   13.5197   10.1404 H         1 3OV         0.0479
     75 H          25.3606   14.0300   10.2356 H         1 3OV         0.0479
     76 H          25.3377   11.0215   12.9428 H         1 3OV         0.0479
     77 H          24.1295   12.3109   13.2661 H         1 3OV         0.0479
     78 H          25.8688   12.7297   13.1052 H         1 3OV         0.0479
     79 H          22.6124    8.1305    6.0958 H         1 3OV         0.2122
@<TRIPOS>BOND
     1    1    2 1  
     2    1    6 am 
     3    1    8 2  
     4    2    3 2  
     5    2    9 1  
     6    3    4 1  
     7    4    5 2  
     8    4   24 1  
     9    5    6 1  
    10    6    7 1  
    11    9   10 1  
    12   10   11 ar 
    13   10   15 ar 
    14   11   12 ar 
    15   12   13 ar 
    16   13   14 ar 
    17   13   16 1  
    18   14   15 ar 
    19   16   17 2  
    20   16   18 am 
    21   18   19 1  
    22   18   23 1  
    23   19   20 1  
    24   20   21 1  
    25   21   22 1  
    26   22   23 1  
    27   24   25 ar 
    28   24   29 ar 
    29   25   26 ar 
    30   26   27 ar 
    31   27   28 ar 
    32   28   29 ar 
    33   28   31 1  
    34   29   30 1  
    35   30   45 1  
    36   31   32 1  
    37   31   34 am 
    38   32   33 2  
    39   33   36 1  
    40   34   35 1  
    41   34   44 2  
    42   35   36 ar 
    43   35   40 ar 
    44   36   37 ar 
    45   37   38 ar 
    46   38   39 ar 
    47   38   41 1  
    48   39   40 ar 
    49   40   46 1  
    50   41   42 1  
    51   41   43 1  
    52    3   47 1  
    53    5   48 1  
    54    7   49 1  
    55    7   50 1  
    56    7   51 1  
    57    9   52 1  
    58   11   53 1  
    59   12   54 1  
    60   14   55 1  
    61   19   56 1  
    62   19   57 1  
    63   20   58 1  
    64   20   59 1  
    65   22   60 1  
    66   22   61 1  
    67   23   62 1  
    68   23   63 1  
    69   25   64 1  
    70   26   65 1  
    71   27   66 1  
    72   30   67 1  
    73   30   68 1  
    74   32   69 1  
    75   33   70 1  
    76   37   71 1  
    77   39   72 1  
    78   42   73 1  
    79   42   74 1  
    80   42   75 1  
    81   43   76 1  
    82   43   77 1  
    83   43   78 1  
    84   45   79 1  
@<TRIPOS>SUBSTRUCTURE
     1 3OV         1

