### 
### Created by X-TOOL on Mon Sep 10 21:13:19 2018
### 

@<TRIPOS>MOLECULE
4rg0_ligand
   86    91     1     0     0
SMALL
GAST_HUCK


@<TRIPOS>ATOM
      1 C1         22.8350    5.2470    0.4140 C.2       1 3P0         0.1201
      2 C2         23.9590    5.6670    1.1200 C.2       1 3P0        -0.0503
      3 C3         23.9120    5.7840    2.5410 C.2       1 3P0        -0.0211
      4 C4         22.7420    5.4550    3.1880 C.2       1 3P0         0.0598
      5 C5         21.6340    4.9470    1.1430 C.2       1 3P0         0.2413
      6 N6         21.6240    5.0550    2.5070 N.am      1 3P0        -0.2139
      7 N7         22.7990    5.1150   -0.9950 N.pl3     1 3P0        -0.2708
      8 C8         25.1010    6.2320    3.3500 C.ar      1 3P0        -0.0487
      9 C9         26.3460    5.6260    3.1160 C.ar      1 3P0        -0.0857
     10 C10        27.4760    5.9830    3.8410 C.ar      1 3P0        -0.0885
     11 C11        27.4100    6.9620    4.8210 C.ar      1 3P0        -0.0534
     12 C12        26.1870    7.5870    5.0830 C.ar      1 3P0         0.0674
     13 C13        25.0240    7.2300    4.3640 C.ar      1 3P0         0.0022
     14 N14        26.0890    8.5580    6.0930 N.am      1 3P0        -0.2198
     15 C15        26.1900    9.9730    5.7030 C.3       1 3P0         0.0644
     16 C16        25.3740   10.8990    6.6030 C.3       1 3P0         0.0147
     17 C17        25.8720    8.1440    7.3940 C.2       1 3P0         0.2474
     18 C18        25.7130    9.1740    8.4660 C.ar      1 3P0         0.1190
     19 C19        25.4560   10.5020    8.0630 C.ar      1 3P0         0.0063
     20 C20        25.2780   11.4920    9.0170 C.ar      1 3P0        -0.0359
     21 C21        25.3240   11.1920   10.3750 C.ar      1 3P0        -0.0287
     22 C22        25.5570    9.8790   10.7830 C.ar      1 3P0        -0.0061
     23 C23        25.7400    8.8710    9.8500 C.ar      1 3P0         0.1749
     24 O24        25.8090    6.9480    7.6760 O.2       1 3P0        -0.3677
     25 C25        23.7050    7.9310    4.6680 C.3       1 3P0         0.0719
     26 O26        23.1420    7.5210    5.9140 O.3       1 3P0        -0.3858
     27 C27        20.4230    4.7600    3.2810 C.3       1 3P0         0.0568
     28 O28        20.6310    4.5940    0.5240 O.2       1 3P0        -0.4080
     29 C29        23.8780    5.1690   -1.8890 C.ar      1 3P0         0.1164
     30 C30        23.6400    4.8050   -3.2270 C.ar      1 3P0        -0.0225
     31 C31        24.6870    4.8370   -4.1440 C.ar      1 3P0        -0.0341
     32 C32        25.9640    5.2450   -3.7020 C.ar      1 3P0         0.0556
     33 C33        26.1160    5.5950   -2.3490 C.ar      1 3P0         0.0136
     34 N34        25.0950    5.5590   -1.5010 N.ar      1 3P0        -0.2962
     35 N35        27.0690    5.2830   -4.5940 N.pl3     1 3P0        -0.2992
     36 C36        26.9670    4.1440   -5.5450 C.3       1 3P0         0.0661
     37 C37        28.1950    4.0460   -6.4770 C.3       1 3P0        -0.0122
     38 N38        29.4520    3.9470   -5.6950 N.4       1 3P0         0.2358
     39 C39        29.5840    5.0790   -4.7470 C.3       1 3P0        -0.0122
     40 C40        28.3480    5.1990   -3.8320 C.3       1 3P0         0.0661
     41 C41        25.1670   12.3090   11.3730 C.3       1 3P0         0.0788
     42 C42        23.9320   13.0930   11.1400 C.1       1 3P0         0.0569
     43 C43        25.1940   11.7810   12.8120 C.3       1 3P0        -0.0595
     44 C44        26.4030   13.1860   11.1690 C.3       1 3P0        -0.0595
     45 N45        22.9730   13.7020   10.9630 N.1       1 3P0        -0.3138
     46 C46        30.6280    3.8420   -6.5860 C.3       1 3P0        -0.0430
     47 F47        25.9530    7.6190   10.3090 F         1 3P0        -0.1721
     48 H          24.8771    5.9070    0.5858 H         1 3P0         0.0428
     49 H          22.7049    5.5148    4.2747 H         1 3P0         0.1109
     50 H          21.8703    4.9611   -1.4130 H         1 3P0         0.2068
     51 H          26.4272    4.8616    2.3517 H         1 3P0         0.0417
     52 H          28.4202    5.4906    3.6383 H         1 3P0         0.0507
     53 H          28.2974    7.2398    5.3781 H         1 3P0         0.0431
     54 H          25.8271   10.0788    4.6700 H         1 3P0         0.0607
     55 H          27.2462   10.2762    5.7535 H         1 3P0         0.0607
     56 H          24.3214   10.8634    6.2855 H         1 3P0         0.0467
     57 H          25.7555   11.9249    6.4936 H         1 3P0         0.0467
     58 H          25.1006   12.5136    8.7008 H         1 3P0         0.0754
     59 H          25.5953    9.6446   11.8407 H         1 3P0         0.0785
     60 H          22.9897    7.7002    3.8649 H         1 3P0         0.0682
     61 H          23.8818    9.0162    4.7010 H         1 3P0         0.0682
     62 H          22.3247    7.9833    6.0584 H         1 3P0         0.2121
     63 H          20.6306    4.9089    4.3509 H         1 3P0         0.0603
     64 H          20.1222    3.7162    3.1077 H         1 3P0         0.0603
     65 H          19.6107    5.4325    2.9681 H         1 3P0         0.0603
     66 H          22.6480    4.5017   -3.5418 H         1 3P0         0.0593
     67 H          24.5247    4.5540   -5.1777 H         1 3P0         0.0608
     68 H          27.0913    5.9020   -1.9890 H         1 3P0         0.0676
     69 H          26.0654    4.2772   -6.1609 H         1 3P0         0.0564
     70 H          26.8838    3.2098   -4.9703 H         1 3P0         0.0564
     71 H          28.2367    4.9432   -7.1121 H         1 3P0         0.0834
     72 H          28.0948    3.1525   -7.1107 H         1 3P0         0.0834
     73 H          29.4068    3.0996   -5.1511 H         1 3P0         0.2032
     74 H          29.6973    6.0121   -5.3184 H         1 3P0         0.0834
     75 H          30.4760    4.9204   -4.1232 H         1 3P0         0.0834
     76 H          28.3091    4.3163   -3.1768 H         1 3P0         0.0564
     77 H          28.4518    6.1064   -3.2189 H         1 3P0         0.0564
     78 H          25.0772   12.6207   13.5129 H         1 3P0         0.0160
     79 H          26.1537   11.2774   12.9999 H         1 3P0         0.0160
     80 H          24.3704   11.0661   12.9558 H         1 3P0         0.0160
     81 H          26.4083   13.5789   10.1416 H         1 3P0         0.0160
     82 H          27.3098   12.5864   11.3369 H         1 3P0         0.0160
     83 H          26.3800   14.0236   11.8817 H         1 3P0         0.0160
     84 H          30.4932    2.9932   -7.2726 H         1 3P0         0.0778
     85 H          31.5333    3.6842   -5.9814 H         1 3P0         0.0778
     86 H          30.7321    4.7704   -7.1667 H         1 3P0         0.0778
@<TRIPOS>BOND
     1    1    2 2  
     2    1    5 1  
     3    1    7 1  
     4    2    3 1  
     5    3    4 2  
     6    3    8 1  
     7    4    6 1  
     8    5    6 am 
     9    5   28 2  
    10    6   27 1  
    11    7   29 1  
    12    8    9 ar 
    13    8   13 ar 
    14    9   10 ar 
    15   10   11 ar 
    16   11   12 ar 
    17   12   13 ar 
    18   12   14 1  
    19   13   25 1  
    20   14   15 1  
    21   14   17 am 
    22   15   16 1  
    23   16   19 1  
    24   17   18 1  
    25   17   24 2  
    26   18   19 ar 
    27   18   23 ar 
    28   19   20 ar 
    29   20   21 ar 
    30   21   22 ar 
    31   21   41 1  
    32   22   23 ar 
    33   23   47 1  
    34   25   26 1  
    35   29   30 ar 
    36   29   34 ar 
    37   30   31 ar 
    38   31   32 ar 
    39   32   33 ar 
    40   32   35 1  
    41   33   34 ar 
    42   35   36 1  
    43   35   40 1  
    44   36   37 1  
    45   37   38 1  
    46   38   39 1  
    47   38   46 1  
    48   39   40 1  
    49   41   42 1  
    50   41   43 1  
    51   41   44 1  
    52   42   45 3  
    53    2   48 1  
    54    4   49 1  
    55    7   50 1  
    56    9   51 1  
    57   10   52 1  
    58   11   53 1  
    59   15   54 1  
    60   15   55 1  
    61   16   56 1  
    62   16   57 1  
    63   20   58 1  
    64   22   59 1  
    65   25   60 1  
    66   25   61 1  
    67   26   62 1  
    68   27   63 1  
    69   27   64 1  
    70   27   65 1  
    71   30   66 1  
    72   31   67 1  
    73   33   68 1  
    74   36   69 1  
    75   36   70 1  
    76   37   71 1  
    77   37   72 1  
    78   38   73 1  
    79   39   74 1  
    80   39   75 1  
    81   40   76 1  
    82   40   77 1  
    83   43   78 1  
    84   43   79 1  
    85   43   80 1  
    86   44   81 1  
    87   44   82 1  
    88   44   83 1  
    89   46   84 1  
    90   46   85 1  
    91   46   86 1  
@<TRIPOS>SUBSTRUCTURE
     1 3P0         1

