### 
### Created by X-TOOL on Mon Sep 10 21:13:20 2018
### 

@<TRIPOS>MOLECULE
4rgd_ligand
   18    17     1     0     0
SMALL
GAST_HUCK


@<TRIPOS>ATOM
      1 C1         47.2170   21.5620   89.2180 C.2       1 CIT         0.0371
      2 O1         47.7720   20.8290   90.0680 O.co2     1 CIT        -0.5690
      3 O2         47.4940   22.8030   88.9840 O.co2     1 CIT        -0.5690
      4 C2         46.1900   20.8670   88.3650 C.3       1 CIT         0.0356
      5 C3         45.4510   19.6870   88.9730 C.3       1 CIT         0.1328
      6 O7         44.8620   19.9770   90.2910 O.3       1 CIT        -0.3818
      7 C4         44.3590   19.3680   87.9550 C.3       1 CIT         0.0356
      8 C5         43.5780   18.0870   88.2830 C.2       1 CIT         0.0371
      9 O3         43.7810   17.4920   89.3920 O.co2     1 CIT        -0.5690
     10 O4         42.7280   17.7260   87.3860 O.co2     1 CIT        -0.5690
     11 C6         46.3600   18.4960   89.1190 C.2       1 CIT         0.0796
     12 O5         46.4700   18.0900   90.2710 O.co2     1 CIT        -0.5449
     13 O6         46.8900   17.9710   88.1620 O.co2     1 CIT        -0.5449
     14 H1         46.7034   20.5038   87.4625 H         1 CIT         0.0452
     15 H2         45.4363   21.6164   88.0816 H         1 CIT         0.0452
     16 H3         44.4166   19.2029   90.6148 H         1 CIT         0.2091
     17 H4         44.8271   19.2480   86.9669 H         1 CIT         0.0452
     18 H5         43.6519   20.2101   87.9260 H         1 CIT         0.0452
@<TRIPOS>BOND
     1    1    2 ar 
     2    1    3 ar 
     3    1    4 1  
     4    4    5 1  
     5    5    6 1  
     6    5    7 1  
     7    5   11 1  
     8    7    8 1  
     9    8    9 ar 
    10    8   10 ar 
    11   11   12 ar 
    12   11   13 ar 
    13    4   14 1  
    14    4   15 1  
    15    6   16 1  
    16    7   17 1  
    17    7   18 1  
@<TRIPOS>SUBSTRUCTURE
     1 CIT         1

