### 
### Created by X-TOOL on Mon Sep 10 21:13:19 2018
### 

@<TRIPOS>MOLECULE
4rio_ligand
   37    39     1     0     0
SMALL
GAST_HUCK


@<TRIPOS>ATOM
      1 C1         -0.4750  -13.2630   -3.8870 C.2       1 3QX         0.0830
      2 C2         -1.7770  -13.0580   -3.4050 C.2       1 3QX         0.0353
      3 N3         -2.6900  -14.0250   -3.1570 N.2       1 3QX        -0.1850
      4 N4         -2.2210  -15.3210   -3.3710 N.pl3     1 3QX        -0.1740
      5 C5         -0.9460  -15.6440   -3.7880 C.2       1 3QX         0.1273
      6 C6         -0.0310  -14.5900   -4.0940 C.2       1 3QX         0.1072
      7 C7         -2.9580  -16.4710   -3.1260 C.2       1 3QX         0.0475
      8 C8         -2.1410  -17.5340   -3.3640 C.2       1 3QX        -0.0801
      9 C9         -0.8700  -17.0270   -3.7820 C.2       1 3QX        -0.0662
     10 C10         0.4190  -12.0930   -4.1910 C.2       1 3QX         0.1836
     11 N11        -0.0240  -10.8600   -3.8800 N.am      1 3QX        -0.3054
     12 O12         1.5310  -12.2810   -4.6900 O.2       1 3QX        -0.4025
     13 N13         1.2480  -14.8370   -4.5870 N.pl3     1 3QX        -0.2992
     14 C14         1.7150  -15.9640   -5.3870 C.3       1 3QX         0.0748
     15 C15         2.8950  -16.6340   -4.6870 C.3       1 3QX        -0.0263
     16 C16         3.6400  -17.3860   -5.7680 C.3       1 3QX        -0.0479
     17 C17         3.3840  -16.6310   -7.0700 C.3       1 3QX        -0.0168
     18 C18         2.3970  -15.5210   -6.7300 C.3       1 3QX         0.1320
     19 C19         1.3800  -15.2750   -7.8510 C.3       1 3QX        -0.0287
     20 F20         3.1160  -14.3370   -6.4860 F         1 3QX        -0.2398
     21 H          -2.0791  -12.0294   -3.2137 H         1 3QX         0.0869
     22 H          -3.9971  -16.5151   -2.8032 H         1 3QX         0.0797
     23 H          -2.4078  -18.5842   -3.2554 H         1 3QX         0.0325
     24 H           0.0020  -17.6226   -4.0481 H         1 3QX         0.0275
     25 H           0.5468  -10.0611   -4.0695 H         1 3QX         0.1795
     26 H          -0.9238  -10.7433   -3.4595 H         1 3QX         0.1795
     27 H           1.9595  -14.1290   -4.3557 H         1 3QX         0.1872
     28 H           0.8846  -16.6627   -5.5665 H         1 3QX         0.0595
     29 H           2.5374  -17.3293   -3.9133 H         1 3QX         0.0289
     30 H           3.5477  -15.8775   -4.2269 H         1 3QX         0.0289
     31 H           3.2622  -18.4162   -5.8447 H         1 3QX         0.0267
     32 H           4.7169  -17.4060   -5.5449 H         1 3QX         0.0267
     33 H           2.9536  -17.3062   -7.8242 H         1 3QX         0.0296
     34 H           4.3219  -16.2031   -7.4535 H         1 3QX         0.0296
     35 H           0.6950  -14.4673   -7.5538 H         1 3QX         0.0261
     36 H           0.8050  -16.1950   -8.0329 H         1 3QX         0.0261
     37 H           1.9104  -14.9862   -8.7704 H         1 3QX         0.0261
@<TRIPOS>BOND
     1    1    2 1  
     2    1    6 2  
     3    1   10 1  
     4    2    3 2  
     5    3    4 1  
     6    4    5 1  
     7    4    7 1  
     8    5    6 1  
     9    5    9 2  
    10    6   13 1  
    11    7    8 2  
    12    8    9 1  
    13   10   11 am 
    14   10   12 2  
    15   13   14 1  
    16   14   15 1  
    17   14   18 1  
    18   15   16 1  
    19   16   17 1  
    20   17   18 1  
    21   18   19 1  
    22   18   20 1  
    23    2   21 1  
    24    7   22 1  
    25    8   23 1  
    26    9   24 1  
    27   11   25 1  
    28   11   26 1  
    29   13   27 1  
    30   14   28 1  
    31   15   29 1  
    32   15   30 1  
    33   16   31 1  
    34   16   32 1  
    35   17   33 1  
    36   17   34 1  
    37   19   35 1  
    38   19   36 1  
    39   19   37 1  
@<TRIPOS>SUBSTRUCTURE
     1 3QX         1

