### 
### Created by X-TOOL on Mon Sep 10 21:13:20 2018
### 

@<TRIPOS>MOLECULE
4riu_ligand
   50    53     1     0     0
SMALL
GAST_HUCK


@<TRIPOS>ATOM
      1 C4         -2.7780    9.7470   78.8900 C.3       1 3QR         0.1119
      2 C5         -2.3170   11.1470   79.3270 C.3       1 3QR         0.1130
      3 C6         -2.6130   12.1660   78.2500 C.3       1 3QR         0.0730
      4 C3         -1.7800    8.6510   78.8750 C.3       1 3QR         0.1141
      5 CAX        -1.5580    4.3820   85.2290 C.ar      1 3QR        -0.0035
      6 CAW        -1.3300    2.9380   85.2930 C.ar      1 3QR         0.1111
      7 SBA        -1.8860    1.7680   86.3270 S.o2      1 3QR         0.0683
      8 OBB        -1.2410    1.8910   87.6390 O.2       1 3QR        -0.1512
      9 OBC        -3.3470    1.7780   86.4320 O.2       1 3QR        -0.1512
     10 NAZ        -1.3950    0.3930   85.6380 N.am      1 3QR        -0.2107
     11 CAY        -0.3920    0.7020   84.6790 C.3       1 3QR         0.1679
     12 OBD        -0.4960    0.0540   83.5980 O.3       1 3QR        -0.3618
     13 CAU         0.1210    3.1410   83.3500 C.ar      1 3QR        -0.0571
     14 CAT        -0.0940    4.5110   83.2910 C.ar      1 3QR        -0.0299
     15 CAB        -0.9480    5.1080   84.2290 C.ar      1 3QR         0.1128
     16 NAA        -1.1350    6.5670   84.1370 N.pl3     1 3QR        -0.1413
     17 CAC        -0.5210    7.3590   83.2130 C.2       1 3QR         0.0850
     18 NAF        -1.8660    7.3240   84.9330 N.2       1 3QR        -0.0911
     19 NAE        -1.7840    8.5900   84.5750 N.2       1 3QR        -0.2235
     20 CAD        -0.9460    8.6950   83.5010 C.2       1 3QR         0.0643
     21 CAG        -0.5520    9.9550   82.7330 C.3       1 3QR         0.0858
     22 O1         -1.1890    9.8360   81.4870 O.3       1 3QR        -0.3394
     23 C1         -0.4020   10.0870   80.3980 C.3       1 3QR         0.1895
     24 O5         -0.9090   11.2750   79.6890 O.3       1 3QR        -0.3404
     25 O6         -4.0180   12.0310   77.8310 O.3       1 3QR        -0.3924
     26 O4         -3.4190    9.7960   77.5840 O.3       1 3QR        -0.3865
     27 O3         -2.3790    7.4930   79.5320 O.3       1 3QR        -0.3864
     28 C2         -0.4530    8.8980   79.4840 C.3       1 3QR         0.1342
     29 O2          0.5230    9.1050   78.4200 O.3       1 3QR        -0.3841
     30 CAV        -0.5130    2.3730   84.3750 C.ar      1 3QR         0.0252
     31 H1         -3.5432    9.4489   79.6218 H         1 3QR         0.0647
     32 H2         -2.9059   11.4077   80.2188 H         1 3QR         0.0647
     33 H3         -1.9532   11.9921   77.3872 H         1 3QR         0.0584
     34 H4         -2.4421   13.1786   78.6442 H         1 3QR         0.0584
     35 H5         -1.5992    8.4031   77.8187 H         1 3QR         0.0648
     36 H6         -2.1957    4.8722   85.9557 H         1 3QR         0.0597
     37 H7         -1.7385   -0.5219   85.8501 H         1 3QR         0.1725
     38 H8          0.5930    0.4790   85.1150 H         1 3QR         0.0974
     39 H9          0.2031    0.3103   83.0080 H         1 3QR         0.2148
     40 H10         0.7648    2.6574   82.6243 H         1 3QR         0.0545
     41 H11         0.3917    5.1111   82.5301 H         1 3QR         0.0577
     42 H12         0.1536    7.0409   82.4195 H         1 3QR         0.0904
     43 H13         0.5395   10.0047   82.6058 H         1 3QR         0.0680
     44 H14        -0.9010   10.8546   83.2611 H         1 3QR         0.0680
     45 H15         0.6346   10.2640   80.7207 H         1 3QR         0.0939
     46 H16        -4.1634   11.1556   77.4918 H         1 3QR         0.2095
     47 H17        -4.0632   10.4941   77.5747 H         1 3QR         0.2100
     48 H18        -1.7568    6.7751   79.5350 H         1 3QR         0.2100
     49 H19        -0.1740    8.0065   80.0648 H         1 3QR         0.0671
     50 H20         0.3054    9.8965   77.9418 H         1 3QR         0.2101
@<TRIPOS>BOND
     1    2    1 1  
     2    1    4 1  
     3    1   26 1  
     4    2    3 1  
     5   24    2 1  
     6    3   25 1  
     7    4   27 1  
     8    4   28 1  
     9    5    6 ar 
    10   15    5 ar 
    11    6    7 1  
    12    6   30 ar 
    13    7    8 2  
    14    7    9 2  
    15    7   10 am 
    16   11   10 1  
    17   11   12 1  
    18   30   11 1  
    19   14   13 ar 
    20   13   30 ar 
    21   15   14 ar 
    22   16   15 1  
    23   17   16 1  
    24   18   16 1  
    25   20   17 2  
    26   19   18 2  
    27   20   19 1  
    28   21   20 1  
    29   22   21 1  
    30   23   22 1  
    31   23   24 1  
    32   23   28 1  
    33   28   29 1  
    34    1   31 1  
    35    2   32 1  
    36    3   33 1  
    37    3   34 1  
    38    4   35 1  
    39    5   36 1  
    40   10   37 1  
    41   11   38 1  
    42   12   39 1  
    43   13   40 1  
    44   14   41 1  
    45   17   42 1  
    46   21   43 1  
    47   21   44 1  
    48   23   45 1  
    49   25   46 1  
    50   26   47 1  
    51   27   48 1  
    52   28   49 1  
    53   29   50 1  
@<TRIPOS>SUBSTRUCTURE
     1 3QR         1

