### 
### Created by X-TOOL on Mon Sep 10 21:13:21 2018
### 

@<TRIPOS>MOLECULE
4riv_ligand
   19    20     1     0     0
SMALL
GAST_HUCK


@<TRIPOS>ATOM
      1 C4         -1.6180    4.9890   85.3780 C.ar      1 LSA        -0.0669
      2 C5         -2.0960    4.0290   86.2710 C.ar      1 LSA        -0.0418
      3 C6         -1.7840    2.7090   86.0080 C.ar      1 LSA         0.1136
      4 C7         -0.8450    0.8290   84.8220 C.3       1 LSA         0.1706
      5 C3         -0.8650    4.6250   84.2680 C.ar      1 LSA        -0.0683
      6 S10        -2.1920    1.2610   86.8690 S.o2      1 LSA         0.0695
      7 N9         -1.4960    0.1770   85.9360 N.am      1 LSA        -0.2098
      8 O8         -0.1700    0.2020   83.8110 O.3       1 LSA        -0.3610
      9 C1         -1.0330    2.3530   84.8960 C.ar      1 LSA         0.0309
     10 C2         -0.5610    3.2950   84.0030 C.ar      1 LSA        -0.0544
     11 O12        -1.5670    1.1950   88.2020 O.2       1 LSA        -0.1512
     12 O11        -3.6430    1.0960   86.9110 O.2       1 LSA        -0.1512
     13 H1         -1.8377    6.0360   85.5530 H         1 LSA         0.0560
     14 H2         -2.6878    4.3075   87.1355 H         1 LSA         0.0619
     15 H3          0.1005    0.8873   85.3812 H         1 LSA         0.0985
     16 H4         -0.5070    5.3951   83.5943 H         1 LSA         0.0599
     17 H5         -1.5071   -0.8100   86.0964 H         1 LSA         0.1726
     18 H6         -0.7605   -0.3854   83.3541 H         1 LSA         0.2149
     19 H7          0.0208    3.0096   83.1340 H         1 LSA         0.0559
@<TRIPOS>BOND
     1    2    1 ar 
     2    1    5 ar 
     3    3    2 ar 
     4    3    6 1  
     5    9    3 ar 
     6    4    7 1  
     7    4    8 1  
     8    4    9 1  
     9    5   10 ar 
    10    6    7 am 
    11    6   11 2  
    12    6   12 2  
    13    9   10 ar 
    14    1   13 1  
    15    2   14 1  
    16    4   15 1  
    17    5   16 1  
    18    7   17 1  
    19    8   18 1  
    20   10   19 1  
@<TRIPOS>SUBSTRUCTURE
     1 LSA         1

