### 
### Created by X-TOOL on Mon Sep 10 21:13:17 2018
### 

@<TRIPOS>MOLECULE
4rj3_ligand
   57    61     1     0     0
SMALL
GAST_HUCK


@<TRIPOS>ATOM
      1 C4         -2.3450  -22.6170   45.4860 C.3       1 3QS        -0.0058
      2 C5         -3.6380  -23.4510   45.4010 C.3       1 3QS         0.0359
      3 C11        -5.1520  -25.8380   42.4660 C.ar      1 3QS         0.0001
      4 C7         -2.3460  -25.4700   46.3290 C.3       1 3QS         0.0359
      5 C8         -1.0650  -24.6430   46.2100 C.3       1 3QS        -0.0058
      6 C9         -3.7540  -25.6610   44.3160 C.ar      1 3QS         0.1770
      7 C12        -4.5480  -27.0440   42.1300 C.ar      1 3QS        -0.0023
      8 C13        -3.5180  -27.5330   42.9440 C.ar      1 3QS         0.1338
      9 C3         -1.4380  -23.2000   46.5820 C.3       1 3QS         0.0621
     10 C1          0.2140  -22.3920   48.1140 C.3       1 3QS         0.0368
     11 O2         -0.2580  -22.4110   46.7630 O.3       1 3QS        -0.3796
     12 N6         -3.3920  -24.9180   45.4350 N.pl3     1 3QS        -0.2781
     13 N10        -4.7310  -25.1820   43.5500 N.ar      1 3QS        -0.2725
     14 N14        -3.1450  -26.8200   44.0210 N.ar      1 3QS        -0.2380
     15 N15        -2.9430  -28.7480   42.5730 N.pl3     1 3QS        -0.2486
     16 C16        -1.8690  -29.4060   43.1850 C.ar      1 3QS         0.1203
     17 C17        -1.0250  -28.7740   44.1020 C.ar      1 3QS         0.0043
     18 C18         0.0200  -29.4840   44.6720 C.ar      1 3QS         0.0741
     19 C19         0.1980  -30.8370   44.2880 C.ar      1 3QS        -0.0098
     20 C20         1.3590  -31.3150   45.0450 C.2       1 3QS        -0.0617
     21 C21         1.7880  -30.2920   45.7960 C.2       1 3QS         0.0249
     22 N22         1.0070  -29.1760   45.5810 N.pl3     1 3QS        -0.2596
     23 C23         1.1420  -27.8710   46.2450 C.3       1 3QS         0.0636
     24 C24         0.4300  -27.9550   47.6230 C.3       1 3QS        -0.0234
     25 C25         1.1990  -26.9940   48.5740 C.3       1 3QS        -0.0503
     26 C26         2.3590  -26.4120   47.7140 C.3       1 3QS        -0.0503
     27 C27         2.5790  -27.5040   46.6410 C.3       1 3QS        -0.0234
     28 C28        -0.6890  -31.4060   43.3650 C.ar      1 3QS        -0.0110
     29 N29        -1.6780  -30.6830   42.8470 N.ar      1 3QS        -0.2965
     30 H          -2.5952  -21.5744   45.7317 H         1 3QS         0.0310
     31 H          -1.8215  -22.6504   44.5191 H         1 3QS         0.0310
     32 H          -4.1520  -23.2044   44.4603 H         1 3QS         0.0527
     33 H          -4.2825  -23.1847   46.2517 H         1 3QS         0.0527
     34 H          -5.9533  -25.4359   41.8567 H         1 3QS         0.0846
     35 H          -2.7032  -25.4404   47.3689 H         1 3QS         0.0527
     36 H          -2.1352  -26.5111   46.0432 H         1 3QS         0.0527
     37 H          -0.6822  -24.6824   45.1795 H         1 3QS         0.0310
     38 H          -0.2997  -25.0272   46.9004 H         1 3QS         0.0310
     39 H          -4.8682  -27.5962   41.2539 H         1 3QS         0.0579
     40 H          -1.9958  -23.2106   47.5300 H         1 3QS         0.0597
     41 H           1.1187  -21.7696   48.1776 H         1 3QS         0.0524
     42 H           0.4511  -23.4173   48.4340 H         1 3QS         0.0524
     43 H          -0.5650  -21.9744   48.7688 H         1 3QS         0.0524
     44 H          -3.3562  -29.2158   41.7537 H         1 3QS         0.2173
     45 H          -1.1865  -27.7351   44.3659 H         1 3QS         0.0531
     46 H           1.7913  -32.3137   45.0044 H         1 3QS         0.0291
     47 H           2.6343  -30.3356   46.4800 H         1 3QS         0.0925
     48 H           0.7066  -27.0888   45.6058 H         1 3QS         0.0639
     49 H           0.4691  -28.9842   48.0093 H         1 3QS         0.0294
     50 H          -0.6192  -27.6381   47.5291 H         1 3QS         0.0294
     51 H           1.5983  -27.5445   49.4386 H         1 3QS         0.0266
     52 H           0.5378  -26.1884   48.9258 H         1 3QS         0.0266
     53 H           3.2652  -26.2652   48.3200 H         1 3QS         0.0266
     54 H           2.0680  -25.4570   47.2521 H         1 3QS         0.0266
     55 H           3.1404  -27.1096   45.7812 H         1 3QS         0.0294
     56 H           3.1105  -28.3715   47.0593 H         1 3QS         0.0294
     57 H          -0.5686  -32.4424   43.0710 H         1 3QS         0.0736
@<TRIPOS>BOND
     1    2    1 1  
     2    1    9 1  
     3   12    2 1  
     4    3    7 ar 
     5   13    3 ar 
     6    4    5 1  
     7   12    4 1  
     8    5    9 1  
     9    6   12 1  
    10    6   13 ar 
    11    6   14 ar 
    12    7    8 ar 
    13    8   14 ar 
    14    8   15 1  
    15    9   11 1  
    16   11   10 1  
    17   15   16 1  
    18   16   17 ar 
    19   16   29 ar 
    20   17   18 ar 
    21   18   19 ar 
    22   18   22 1  
    23   19   20 1  
    24   19   28 ar 
    25   20   21 2  
    26   21   22 1  
    27   22   23 1  
    28   23   24 1  
    29   23   27 1  
    30   24   25 1  
    31   25   26 1  
    32   26   27 1  
    33   28   29 ar 
    34    1   30 1  
    35    1   31 1  
    36    2   32 1  
    37    2   33 1  
    38    3   34 1  
    39    4   35 1  
    40    4   36 1  
    41    5   37 1  
    42    5   38 1  
    43    7   39 1  
    44    9   40 1  
    45   10   41 1  
    46   10   42 1  
    47   10   43 1  
    48   15   44 1  
    49   17   45 1  
    50   20   46 1  
    51   21   47 1  
    52   23   48 1  
    53   24   49 1  
    54   24   50 1  
    55   25   51 1  
    56   25   52 1  
    57   26   53 1  
    58   26   54 1  
    59   27   55 1  
    60   27   56 1  
    61   28   57 1  
@<TRIPOS>SUBSTRUCTURE
     1 3QS         1

