### 
### Created by X-TOOL on Mon Sep 10 21:13:18 2018
### 

@<TRIPOS>MOLECULE
4rj4_ligand
   60    64     1     0     0
SMALL
GAST_HUCK


@<TRIPOS>ATOM
      1 C14       -50.1200   -0.4740  -16.7320 C.2       1 3QW         0.0090
      2 C5        -52.4840    0.5510  -20.7860 C.ar      1 3QW         0.0708
      3 C6        -53.1290    0.7390  -22.0180 C.ar      1 3QW         0.0025
      4 C11       -52.0730    0.9690  -18.5480 C.2       1 3QW        -0.0635
      5 C7        -54.1520    1.6790  -22.1280 C.ar      1 3QW         0.1185
      6 C9        -53.9390    2.2720  -19.8820 C.ar      1 3QW        -0.0138
      7 C10       -52.9090    1.3450  -19.6870 C.ar      1 3QW        -0.0146
      8 C12       -51.2170    0.0060  -18.9770 C.2       1 3QW         0.0506
      9 C13       -50.1590   -0.5650  -18.0950 C.2       1 3QW         0.0251
     10 C3        -49.7990   -0.5980  -22.1980 C.3       1 3QW        -0.0363
     11 C1        -51.6030   -2.3430  -21.7700 C.3       1 3QW        -0.0363
     12 C2        -50.7190   -1.2450  -21.1630 C.3       1 3QW         0.0563
     13 N4        -51.4540   -0.2590  -20.3340 N.pl3     1 3QW        -0.2589
     14 N8        -54.5190    2.3980  -21.0660 N.ar      1 3QW        -0.2992
     15 N15       -48.9710   -1.0440  -16.3050 N.2       1 3QW        -0.2150
     16 N17       -48.2550   -1.4910  -17.4220 N.pl3     1 3QW        -0.2161
     17 C18       -48.9460   -1.1830  -18.4890 C.2       1 3QW         0.0640
     18 N19       -54.8110    1.9510  -23.3350 N.pl3     1 3QW        -0.2493
     19 C20       -54.9280    1.1360  -24.4640 C.ar      1 3QW         0.1336
     20 C21       -56.0840    1.2470  -25.2630 C.ar      1 3QW        -0.0024
     21 C22       -56.1980    0.4360  -26.3850 C.ar      1 3QW         0.0001
     22 N23       -55.2140   -0.4160  -26.6680 N.ar      1 3QW        -0.2726
     23 C24       -54.1170   -0.5180  -25.8980 C.ar      1 3QW         0.1769
     24 N25       -53.9810    0.2560  -24.8180 N.ar      1 3QW        -0.2381
     25 N26       -53.1060   -1.4270  -26.2280 N.pl3     1 3QW        -0.2782
     26 C27       -52.8150   -1.4360  -27.6890 C.3       1 3QW         0.0359
     27 C28       -51.7210   -2.4320  -28.0650 C.3       1 3QW        -0.0058
     28 C29       -50.4500   -2.1090  -27.2600 C.3       1 3QW         0.0621
     29 C30       -50.7640   -2.1980  -25.7490 C.3       1 3QW        -0.0058
     30 C31       -51.9170   -1.2690  -25.3500 C.3       1 3QW         0.0359
     31 O32       -49.4670   -3.0910  -27.6150 O.3       1 3QW        -0.3796
     32 C33       -48.1000   -2.7240  -27.4210 C.3       1 3QW         0.0368
     33 H         -50.8822   -0.0210  -16.0997 H         1 3QW         0.0678
     34 H         -52.8324    0.1548  -22.8816 H         1 3QW         0.0524
     35 H         -52.1268    1.3840  -17.5426 H         1 3QW         0.0236
     36 H         -54.2654    2.8932  -19.0558 H         1 3QW         0.0714
     37 H         -49.2875   -1.3824  -22.7751 H         1 3QW         0.0258
     38 H         -49.0521    0.0261  -21.6855 H         1 3QW         0.0258
     39 H         -50.3952    0.0278  -22.8783 H         1 3QW         0.0258
     40 H         -52.2429   -2.7738  -20.9858 H         1 3QW         0.0258
     41 H         -50.9665   -3.1314  -22.1981 H         1 3QW         0.0258
     42 H         -52.2333   -1.9108  -22.5611 H         1 3QW         0.0258
     43 H         -50.0505   -1.7664  -20.4621 H         1 3QW         0.0625
     44 H         -47.3464   -1.9758  -17.4063 H         1 3QW         0.2600
     45 H         -48.6382   -1.3714  -19.5165 H         1 3QW         0.1039
     46 H         -55.2686    2.8716  -23.3978 H         1 3QW         0.2171
     47 H         -56.8678    1.9507  -25.0071 H         1 3QW         0.0579
     48 H         -57.0742    0.4956  -27.0204 H         1 3QW         0.0846
     49 H         -52.4922   -0.4284  -27.9899 H         1 3QW         0.0527
     50 H         -53.7350   -1.7030  -28.2296 H         1 3QW         0.0527
     51 H         -51.5056   -2.3542  -29.1409 H         1 3QW         0.0310
     52 H         -52.0559   -3.4533  -27.8309 H         1 3QW         0.0310
     53 H         -50.0867   -1.1003  -27.5061 H         1 3QW         0.0597
     54 H         -49.8655   -1.9139  -25.1815 H         1 3QW         0.0310
     55 H         -51.0405   -3.2340  -25.5034 H         1 3QW         0.0310
     56 H         -52.2106   -1.4961  -24.3145 H         1 3QW         0.0527
     57 H         -51.5684   -0.2276  -25.4124 H         1 3QW         0.0527
     58 H         -47.4498   -3.5563  -27.7284 H         1 3QW         0.0524
     59 H         -47.9283   -2.4978  -26.3583 H         1 3QW         0.0524
     60 H         -47.8693   -1.8355  -28.0270 H         1 3QW         0.0524
@<TRIPOS>BOND
     1    9    1 1  
     2    1   15 2  
     3    2    3 ar 
     4    2    7 ar 
     5   13    2 1  
     6    3    5 ar 
     7    4    7 1  
     8    8    4 2  
     9    5   14 ar 
    10    5   18 1  
    11    7    6 ar 
    12    6   14 ar 
    13    8    9 1  
    14   13    8 1  
    15    9   17 2  
    16   12   10 1  
    17   12   11 1  
    18   12   13 1  
    19   15   16 1  
    20   16   17 1  
    21   18   19 1  
    22   19   20 ar 
    23   19   24 ar 
    24   20   21 ar 
    25   21   22 ar 
    26   22   23 ar 
    27   23   24 ar 
    28   23   25 1  
    29   25   26 1  
    30   25   30 1  
    31   26   27 1  
    32   27   28 1  
    33   28   29 1  
    34   28   31 1  
    35   29   30 1  
    36   31   32 1  
    37    1   33 1  
    38    3   34 1  
    39    4   35 1  
    40    6   36 1  
    41   10   37 1  
    42   10   38 1  
    43   10   39 1  
    44   11   40 1  
    45   11   41 1  
    46   11   42 1  
    47   12   43 1  
    48   16   44 1  
    49   17   45 1  
    50   18   46 1  
    51   20   47 1  
    52   21   48 1  
    53   26   49 1  
    54   26   50 1  
    55   27   51 1  
    56   27   52 1  
    57   28   53 1  
    58   29   54 1  
    59   29   55 1  
    60   30   56 1  
    61   30   57 1  
    62   32   58 1  
    63   32   59 1  
    64   32   60 1  
@<TRIPOS>SUBSTRUCTURE
     1 3QW         1

