### 
### Created by X-TOOL on Mon Sep 10 21:13:18 2018
### 

@<TRIPOS>MOLECULE
4rj5_ligand
   51    55     1     0     0
SMALL
GAST_HUCK


@<TRIPOS>ATOM
      1 C4        -47.9510   -1.1370  -21.2360 C.3       1 3QY        -0.0058
      2 C5        -48.7770   -0.1420  -20.4040 C.3       1 3QY         0.0359
      3 C11       -51.4830    1.0710  -16.9700 C.ar      1 3QY         0.0001
      4 C7        -48.7170   -1.5920  -18.4100 C.3       1 3QY         0.0359
      5 C8        -47.8890   -2.6660  -19.1390 C.3       1 3QY        -0.0058
      6 C9        -50.5690   -0.0520  -18.8060 C.ar      1 3QY         0.1769
      7 C12       -52.5350    1.5170  -17.7600 C.ar      1 3QY        -0.0024
      8 C13       -52.5670    1.1400  -19.1160 C.ar      1 3QY         0.1336
      9 C3        -47.0990   -2.0380  -20.3120 C.3       1 3QY         0.0621
     10 C1        -46.7790   -4.0130  -21.8100 C.3       1 3QY         0.0368
     11 O2        -46.2230   -2.9500  -21.0090 O.3       1 3QY        -0.3796
     12 N6        -49.5690   -0.8510  -19.3720 N.pl3     1 3QY        -0.2782
     13 N10       -50.5310    0.3070  -17.5140 N.ar      1 3QY        -0.2726
     14 N14       -51.5820    0.3540  -19.5810 N.ar      1 3QY        -0.2381
     15 N15       -53.6270    1.5950  -19.9140 N.pl3     1 3QY        -0.2493
     16 C16       -53.8360    1.3780  -21.2870 C.ar      1 3QY         0.1185
     17 C17       -53.0310    0.5140  -22.0230 C.ar      1 3QY         0.0023
     18 C18       -53.2850    0.3250  -23.3800 C.ar      1 3QY         0.0680
     19 C19       -54.3760    1.0090  -23.9780 C.ar      1 3QY        -0.0148
     20 C20       -54.3810    0.5940  -25.3850 C.2       1 3QY        -0.0637
     21 C21       -53.3360   -0.2640  -25.5520 C.2       1 3QY         0.0475
     22 N22       -52.6780   -0.4220  -24.3560 N.pl3     1 3QY        -0.2756
     23 C24       -52.8880   -0.9270  -26.8000 C.2       1 3QY         0.0249
     24 C25       -51.7580   -0.6160  -27.5020 C.2       1 3QY         0.0090
     25 N26       -51.6940   -1.4450  -28.5630 N.2       1 3QY        -0.2150
     26 N28       -52.8060   -2.2920  -28.5290 N.pl3     1 3QY        -0.2161
     27 C29       -53.5120   -1.9990  -27.4700 C.2       1 3QY         0.0640
     28 C30       -55.1650    1.8390  -23.1660 C.ar      1 3QY        -0.0138
     29 N31       -54.8600    2.0030  -21.8810 N.ar      1 3QY        -0.2992
     30 H         -47.2858   -0.5795  -21.9117 H         1 3QY         0.0310
     31 H         -48.6315   -1.7664  -21.8283 H         1 3QY         0.0310
     32 H         -49.4601    0.4055  -21.0700 H         1 3QY         0.0527
     33 H         -48.0969    0.5687  -19.9117 H         1 3QY         0.0527
     34 H         -51.4347    1.3404  -15.9211 H         1 3QY         0.0846
     35 H         -48.0361   -0.8864  -17.9115 H         1 3QY         0.0527
     36 H         -49.3572   -2.0768  -17.6583 H         1 3QY         0.0527
     37 H         -48.5651   -3.4399  -19.5313 H         1 3QY         0.0310
     38 H         -47.1824   -3.1216  -18.4297 H         1 3QY         0.0310
     39 H         -53.3151    2.1423  -17.3411 H         1 3QY         0.0579
     40 H         -46.4095   -1.3363  -19.8199 H         1 3QY         0.0597
     41 H         -45.9634   -4.5985  -22.2593 H         1 3QY         0.0524
     42 H         -47.4039   -3.5833  -22.6068 H         1 3QY         0.0524
     43 H         -47.3936   -4.6678  -21.1748 H         1 3QY         0.0524
     44 H         -54.3423    2.1592  -19.4334 H         1 3QY         0.2171
     45 H         -52.2113   -0.0089  -21.5436 H         1 3QY         0.0523
     46 H         -55.0866    0.9117  -26.1512 H         1 3QY         0.0236
     47 H         -51.8486   -1.0159  -24.2135 H         1 3QY         0.2240
     48 H         -51.0385    0.1616  -27.2498 H         1 3QY         0.0678
     49 H         -53.0299   -3.0218  -29.2205 H         1 3QY         0.2600
     50 H         -54.4279   -2.4984  -27.1574 H         1 3QY         0.1039
     51 H         -56.0249    2.3476  -23.5867 H         1 3QY         0.0714
@<TRIPOS>BOND
     1    2    1 1  
     2    1    9 1  
     3   12    2 1  
     4    3    7 ar 
     5   13    3 ar 
     6    4    5 1  
     7   12    4 1  
     8    5    9 1  
     9    6   12 1  
    10    6   13 ar 
    11    6   14 ar 
    12    7    8 ar 
    13    8   14 ar 
    14    8   15 1  
    15    9   11 1  
    16   11   10 1  
    17   15   16 1  
    18   16   17 ar 
    19   16   29 ar 
    20   17   18 ar 
    21   18   19 ar 
    22   18   22 1  
    23   19   20 1  
    24   19   28 ar 
    25   20   21 2  
    26   21   22 1  
    27   21   23 1  
    28   23   24 1  
    29   23   27 2  
    30   24   25 2  
    31   25   26 1  
    32   26   27 1  
    33   28   29 ar 
    34    1   30 1  
    35    1   31 1  
    36    2   32 1  
    37    2   33 1  
    38    3   34 1  
    39    4   35 1  
    40    4   36 1  
    41    5   37 1  
    42    5   38 1  
    43    7   39 1  
    44    9   40 1  
    45   10   41 1  
    46   10   42 1  
    47   10   43 1  
    48   15   44 1  
    49   17   45 1  
    50   20   46 1  
    51   22   47 1  
    52   24   48 1  
    53   26   49 1  
    54   27   50 1  
    55   28   51 1  
@<TRIPOS>SUBSTRUCTURE
     1 3QY         1

