### 
### Created by X-TOOL on Mon Sep 10 21:13:19 2018
### 

@<TRIPOS>MOLECULE
4rj6_ligand
   50    54     1     0     0
SMALL
GAST_HUCK


@<TRIPOS>ATOM
      1 C4        -48.6190   -1.7840  -21.1050 C.3       1 3R0        -0.0058
      2 C5        -49.4400   -0.5620  -20.6660 C.3       1 3R0         0.0359
      3 C11       -52.1150    1.2860  -17.2790 C.ar      1 3R0         0.0002
      4 C7        -48.8500   -0.9000  -18.2990 C.3       1 3R0         0.0359
      5 C8        -47.9270   -2.0830  -18.6480 C.3       1 3R0        -0.0058
      6 C9        -50.9960    0.0810  -18.9380 C.ar      1 3R0         0.1770
      7 C12       -53.0110    1.7420  -18.2470 C.ar      1 3R0        -0.0022
      8 C13       -52.8930    1.3110  -19.5870 C.ar      1 3R0         0.1340
      9 C3        -47.4490   -2.0240  -20.1190 C.3       1 3R0         0.0621
     10 C1        -45.4960   -3.0530  -21.1380 C.3       1 3R0         0.0368
     11 O2        -46.7490   -3.2340  -20.4620 O.3       1 3R0        -0.3796
     12 N6        -49.9510   -0.7810  -19.2910 N.pl3     1 3R0        -0.2781
     13 N10       -51.1360    0.4640  -17.6580 N.ar      1 3R0        -0.2724
     14 N14       -51.8700    0.4870  -19.8760 N.ar      1 3R0        -0.2379
     15 N15       -53.8010    1.8050  -20.5420 N.pl3     1 3R0        -0.2481
     16 C16       -53.9520    1.3930  -21.8810 C.ar      1 3R0         0.1207
     17 C17       -53.0680    0.4960  -22.4750 C.ar      1 3R0         0.0067
     18 C18       -53.2840    0.0890  -23.7940 C.ar      1 3R0         0.0866
     19 C19       -54.3890    0.5850  -24.5410 C.ar      1 3R0         0.0411
     20 C20       -55.2270    1.4880  -23.8760 C.ar      1 3R0        -0.0014
     21 N21       -54.9730    1.8630  -22.6140 N.ar      1 3R0        -0.2967
     22 N22       -54.3550   -0.0120  -25.7720 N.2       1 3R0        -0.3174
     23 C23       -53.3070   -0.8230  -25.7970 C.2       1 3R0         0.1239
     24 N24       -52.6230   -0.7770  -24.6210 N.pl3     1 3R0        -0.2498
     25 C26       -52.7470   -1.6200  -26.8960 C.2       1 3R0         0.0549
     26 C27       -53.3690   -2.0740  -28.0270 C.2       1 3R0         0.0154
     27 N28       -52.4400   -2.7370  -28.7320 N.2       1 3R0        -0.2118
     28 N30       -51.2180   -2.6960  -28.0470 N.pl3     1 3R0        -0.2108
     29 C31       -51.3960   -2.0310  -26.9480 C.2       1 3R0         0.0745
     30 H         -48.2146   -1.6073  -22.1126 H         1 3R0         0.0310
     31 H         -49.2686   -2.6716  -21.1210 H         1 3R0         0.0310
     32 H         -50.2866   -0.4219  -21.3543 H         1 3R0         0.0527
     33 H         -48.8021    0.3340  -20.6822 H         1 3R0         0.0527
     34 H         -52.2126    1.5927  -16.2439 H         1 3R0         0.0847
     35 H         -48.2616    0.0294  -18.2997 H         1 3R0         0.0527
     36 H         -49.2805   -1.0607  -17.2996 H         1 3R0         0.0527
     37 H         -48.4768   -3.0225  -18.4896 H         1 3R0         0.0310
     38 H         -47.0484   -2.0564  -17.9867 H         1 3R0         0.0310
     39 H         -53.8012    2.4301  -17.9692 H         1 3R0         0.0579
     40 H         -46.7486   -1.1811  -20.2137 H         1 3R0         0.0597
     41 H         -45.0493   -4.0353  -21.3513 H         1 3R0         0.0524
     42 H         -44.8152   -2.4716  -20.4989 H         1 3R0         0.0524
     43 H         -45.6632   -2.5135  -22.0819 H         1 3R0         0.0524
     44 H         -54.4296    2.5567  -20.2246 H         1 3R0         0.2176
     45 H         -52.2188    0.1164  -21.9184 H         1 3R0         0.0532
     46 H         -56.0935    1.8897  -24.3886 H         1 3R0         0.0729
     47 H         -51.7643   -1.2991  -24.3951 H         1 3R0         0.2305
     48 H         -54.4126   -1.9262  -28.3009 H         1 3R0         0.0698
     49 H         -50.3334   -3.1198  -28.3614 H         1 3R0         0.2626
     50 H         -50.6361   -1.8250  -26.1956 H         1 3R0         0.1112
@<TRIPOS>BOND
     1    2    1 1  
     2    1    9 1  
     3   12    2 1  
     4    3    7 ar 
     5   13    3 ar 
     6    4    5 1  
     7   12    4 1  
     8    5    9 1  
     9    6   12 1  
    10    6   13 ar 
    11    6   14 ar 
    12    7    8 ar 
    13    8   14 ar 
    14    8   15 1  
    15    9   11 1  
    16   11   10 1  
    17   15   16 1  
    18   16   17 ar 
    19   16   21 ar 
    20   17   18 ar 
    21   18   19 ar 
    22   18   24 1  
    23   19   20 ar 
    24   19   22 1  
    25   20   21 ar 
    26   22   23 2  
    27   23   24 1  
    28   23   25 1  
    29   25   26 1  
    30   25   29 2  
    31   26   27 2  
    32   27   28 1  
    33   28   29 1  
    34    1   30 1  
    35    1   31 1  
    36    2   32 1  
    37    2   33 1  
    38    3   34 1  
    39    4   35 1  
    40    4   36 1  
    41    5   37 1  
    42    5   38 1  
    43    7   39 1  
    44    9   40 1  
    45   10   41 1  
    46   10   42 1  
    47   10   43 1  
    48   15   44 1  
    49   17   45 1  
    50   20   46 1  
    51   24   47 1  
    52   26   48 1  
    53   28   49 1  
    54   29   50 1  
@<TRIPOS>SUBSTRUCTURE
     1 3R0         1

