### 
### Created by X-TOOL on Mon Sep 10 21:13:19 2018
### 

@<TRIPOS>MOLECULE
4rj7_ligand
   50    52     1     0     0
SMALL
GAST_HUCK


@<TRIPOS>ATOM
      1 C4        -52.9730    1.2320  -18.8220 C.ar      1 3R1         0.1265
      2 C6        -51.0120    0.0600  -18.3110 C.ar      1 3R1         0.1659
      3 C11       -48.1750   -1.1940  -20.3390 C.3       1 3R1        -0.0395
      4 C9        -49.6770   -1.0330  -20.1450 C.3       1 3R1         0.0618
      5 C12       -50.3770   -2.3400  -20.5560 C.3       1 3R1         0.0672
      6 C3        -53.0790    1.6320  -17.4720 C.ar      1 3R1        -0.0028
      7 C1        -52.1690    1.5310  -15.1100 C.3       1 3R1        -0.0164
      8 C2        -52.1120    1.1640  -16.5740 C.ar      1 3R1         0.0140
      9 N5        -51.9410    0.4530  -19.1760 N.ar      1 3R1        -0.2472
     10 N7        -51.1100    0.3990  -17.0250 N.ar      1 3R1        -0.2736
     11 N8        -49.9470   -0.7330  -18.7310 N.pl3     1 3R1        -0.2886
     12 O13       -50.6680   -2.3330  -21.9650 O.3       1 3R1        -0.3927
     13 N14       -53.9080    1.6820  -19.7620 N.pl3     1 3R1        -0.2475
     14 C15       -53.9230    1.4410  -21.1450 C.ar      1 3R1         0.1186
     15 C16       -53.1010    0.4720  -21.7200 C.ar      1 3R1         0.0072
     16 C17       -53.1460    0.2320  -23.0950 C.ar      1 3R1         0.0756
     17 C18       -54.0820    0.9750  -23.8610 C.ar      1 3R1        -0.0259
     18 C19       -54.9140    1.8910  -23.2320 C.ar      1 3R1        -0.0179
     19 N20       -54.7980    2.1070  -21.9170 N.ar      1 3R1        -0.3016
     20 N21       -52.2980   -0.7870  -23.5810 N.am      1 3R1        -0.2274
     21 C22       -52.3820   -1.3840  -24.7920 C.2       1 3R1         0.2363
     22 O23       -53.1960   -1.0180  -25.6450 O.2       1 3R1        -0.3712
     23 C24       -51.4840   -2.4990  -25.1800 C.ar      1 3R1         0.0841
     24 C25       -50.3880   -2.2380  -26.0150 C.ar      1 3R1         0.0614
     25 C26       -49.6270   -3.2850  -26.5160 C.ar      1 3R1        -0.0422
     26 C27       -49.9700   -4.6010  -26.2220 C.ar      1 3R1        -0.0567
     27 C28       -51.0730   -4.8790  -25.4250 C.ar      1 3R1        -0.0422
     28 C29       -51.8350   -3.8390  -24.9200 C.ar      1 3R1         0.0614
     29 CL1       -53.1870   -4.2200  -23.9140 Cl        1 3R1        -0.0647
     30 CL2       -49.9570   -0.5950  -26.3520 Cl        1 3R1        -0.0647
     31 H         -47.9637   -1.4188  -21.3948 H         1 3R1         0.0253
     32 H         -47.8101   -2.0182  -19.7085 H         1 3R1         0.0253
     33 H         -47.6664   -0.2613  -20.0538 H         1 3R1         0.0253
     34 H         -50.0457   -0.2074  -20.7714 H         1 3R1         0.0580
     35 H         -51.3165   -2.4404  -19.9927 H         1 3R1         0.0580
     36 H         -49.7190   -3.1910  -20.3263 H         1 3R1         0.0580
     37 H         -53.8826    2.2801  -17.1416 H         1 3R1         0.0510
     38 H         -51.3242    1.0647  -14.5820 H         1 3R1         0.0437
     39 H         -53.1147    1.1713  -14.6783 H         1 3R1         0.0437
     40 H         -52.1096    2.6242  -15.0034 H         1 3R1         0.0437
     41 H         -49.3185   -1.1282  -18.0171 H         1 3R1         0.1863
     42 H         -51.0994   -3.1456  -22.2022 H         1 3R1         0.2095
     43 H         -54.6777    2.2595  -19.3945 H         1 3R1         0.2189
     44 H         -52.4229   -0.0984  -21.0956 H         1 3R1         0.0497
     45 H         -54.1468    0.8277  -24.9330 H         1 3R1         0.0507
     46 H         -55.6577    2.4313  -23.8065 H         1 3R1         0.0737
     47 H         -51.5668   -1.0964  -22.9730 H         1 3R1         0.2296
     48 H         -48.7636   -3.0770  -27.1376 H         1 3R1         0.0636
     49 H         -49.3726   -5.4145  -26.6175 H         1 3R1         0.0652
     50 H         -51.3362   -5.9060  -25.1992 H         1 3R1         0.0636
@<TRIPOS>BOND
     1    1    6 ar 
     2    9    1 ar 
     3    1   13 1  
     4    2    9 ar 
     5    2   10 ar 
     6   11    2 1  
     7    4    3 1  
     8    4    5 1  
     9    4   11 1  
    10    5   12 1  
    11    6    8 ar 
    12    8    7 1  
    13    8   10 ar 
    14   13   14 1  
    15   14   15 ar 
    16   14   19 ar 
    17   15   16 ar 
    18   16   17 ar 
    19   16   20 1  
    20   17   18 ar 
    21   18   19 ar 
    22   20   21 am 
    23   21   22 2  
    24   21   23 1  
    25   23   24 ar 
    26   23   28 ar 
    27   24   25 ar 
    28   24   30 1  
    29   25   26 ar 
    30   26   27 ar 
    31   27   28 ar 
    32   28   29 1  
    33    3   31 1  
    34    3   32 1  
    35    3   33 1  
    36    4   34 1  
    37    5   35 1  
    38    5   36 1  
    39    6   37 1  
    40    7   38 1  
    41    7   39 1  
    42    7   40 1  
    43   11   41 1  
    44   12   42 1  
    45   13   43 1  
    46   15   44 1  
    47   17   45 1  
    48   18   46 1  
    49   20   47 1  
    50   25   48 1  
    51   26   49 1  
    52   27   50 1  
@<TRIPOS>SUBSTRUCTURE
     1 3R1         1

