### 
### Created by X-TOOL on Mon Sep 10 21:13:18 2018
### 

@<TRIPOS>MOLECULE
4rj8_ligand
   57    61     1     0     0
SMALL
GAST_HUCK


@<TRIPOS>ATOM
      1 C4        -51.8500   -2.5060  -28.1050 C.3       1 3QS        -0.0058
      2 C5        -53.0670   -1.6340  -27.7620 C.3       1 3QS         0.0359
      3 C11       -56.3870    0.4030  -26.4600 C.ar      1 3QS         0.0001
      4 C7        -52.1570   -1.3780  -25.3740 C.3       1 3QS         0.0359
      5 C8        -50.8320   -2.0140  -25.8300 C.3       1 3QS        -0.0058
      6 C9        -54.3220   -0.5820  -25.9920 C.ar      1 3QS         0.1770
      7 C12       -56.2340    1.2340  -25.3540 C.ar      1 3QS        -0.0023
      8 C13       -55.0760    1.1070  -24.5710 C.ar      1 3QS         0.1338
      9 C3        -50.6530   -1.9060  -27.3520 C.3       1 3QS         0.0621
     10 C1        -48.9370   -3.6880  -27.6630 C.3       1 3QS         0.0368
     11 O2        -49.3620   -2.3200  -27.8220 O.3       1 3QS        -0.3796
     12 N6        -53.3310   -1.5260  -26.2920 N.pl3     1 3QS        -0.2781
     13 N10       -55.4300   -0.4750  -26.7380 N.ar      1 3QS        -0.2725
     14 N14       -54.1640    0.2100  -24.9300 N.ar      1 3QS        -0.2380
     15 N15       -54.8730    1.9400  -23.4810 N.pl3     1 3QS        -0.2486
     16 C16       -54.2190    1.6270  -22.2810 C.ar      1 3QS         0.1203
     17 C17       -53.2060    0.6660  -22.1940 C.ar      1 3QS         0.0043
     18 C18       -52.5990    0.4120  -20.9530 C.ar      1 3QS         0.0741
     19 C19       -53.0180    1.1890  -19.8360 C.ar      1 3QS        -0.0098
     20 C20       -52.2240    0.7390  -18.6910 C.2       1 3QS        -0.0617
     21 C21       -51.4320   -0.2390  -19.1430 C.2       1 3QS         0.0249
     22 N22       -51.6300   -0.4530  -20.4980 N.pl3     1 3QS        -0.2596
     23 C23       -50.9100   -1.4390  -21.3380 C.3       1 3QS         0.0636
     24 C24       -49.9180   -0.7260  -22.2730 C.3       1 3QS        -0.0234
     25 C25       -48.6880   -0.4610  -21.3770 C.3       1 3QS        -0.0503
     26 C26       -48.5750   -1.7690  -20.5540 C.3       1 3QS        -0.0503
     27 C27       -49.9960   -2.3850  -20.5340 C.3       1 3QS        -0.0234
     28 C28       -54.0040    2.1600  -20.0210 C.ar      1 3QS        -0.0110
     29 N29       -54.5730    2.3320  -21.2050 N.ar      1 3QS        -0.2965
     30 H         -51.6639   -2.4882  -29.1890 H         1 3QS         0.0310
     31 H         -52.0221   -3.5425  -27.7795 H         1 3QS         0.0310
     32 H         -53.9545   -2.0703  -28.2437 H         1 3QS         0.0527
     33 H         -52.8938   -0.6231  -28.1595 H         1 3QS         0.0527
     34 H         -57.2713    0.4712  -27.0833 H         1 3QS         0.0846
     35 H         -51.9782   -0.3017  -25.2342 H         1 3QS         0.0527
     36 H         -52.4295   -1.8327  -24.4102 H         1 3QS         0.0527
     37 H         -50.8275   -3.0760  -25.5436 H         1 3QS         0.0310
     38 H         -49.9974   -1.4969  -25.3339 H         1 3QS         0.0310
     39 H         -56.9941    1.9648  -25.1023 H         1 3QS         0.0579
     40 H         -50.6918   -0.8286  -27.5706 H         1 3QS         0.0597
     41 H         -47.9273   -3.8093  -28.0822 H         1 3QS         0.0524
     42 H         -49.6358   -4.3529  -28.1918 H         1 3QS         0.0524
     43 H         -48.9235   -3.9459  -26.5937 H         1 3QS         0.0524
     44 H         -55.2448    2.8971  -23.5622 H         1 3QS         0.2173
     45 H         -52.8920    0.1217  -23.0773 H         1 3QS         0.0531
     46 H         -52.2694    1.1243  -17.6734 H         1 3QS         0.0291
     47 H         -50.7251   -0.7939  -18.5279 H         1 3QS         0.0925
     48 H         -51.6465   -2.0185  -21.9139 H         1 3QS         0.0639
     49 H         -50.3412    0.2183  -22.6459 H         1 3QS         0.0294
     50 H         -49.6508   -1.3695  -23.1242 H         1 3QS         0.0294
     51 H         -48.8548    0.4064  -20.7215 H         1 3QS         0.0266
     52 H         -47.7850   -0.2947  -21.9827 H         1 3QS         0.0266
     53 H         -48.2397   -1.5484  -19.5299 H         1 3QS         0.0266
     54 H         -47.8653   -2.4608  -21.0312 H         1 3QS         0.0266
     55 H         -49.9819   -3.3818  -20.9989 H         1 3QS         0.0294
     56 H         -50.3567   -2.4685  -19.4982 H         1 3QS         0.0294
     57 H         -54.3077    2.7807  -19.1858 H         1 3QS         0.0736
@<TRIPOS>BOND
     1    2    1 1  
     2    1    9 1  
     3   12    2 1  
     4    3    7 ar 
     5   13    3 ar 
     6    4    5 1  
     7   12    4 1  
     8    5    9 1  
     9    6   12 1  
    10    6   13 ar 
    11    6   14 ar 
    12    7    8 ar 
    13    8   14 ar 
    14    8   15 1  
    15    9   11 1  
    16   11   10 1  
    17   15   16 1  
    18   16   17 ar 
    19   16   29 ar 
    20   17   18 ar 
    21   18   19 ar 
    22   18   22 1  
    23   19   20 1  
    24   19   28 ar 
    25   20   21 2  
    26   21   22 1  
    27   22   23 1  
    28   23   24 1  
    29   23   27 1  
    30   24   25 1  
    31   25   26 1  
    32   26   27 1  
    33   28   29 ar 
    34    1   30 1  
    35    1   31 1  
    36    2   32 1  
    37    2   33 1  
    38    3   34 1  
    39    4   35 1  
    40    4   36 1  
    41    5   37 1  
    42    5   38 1  
    43    7   39 1  
    44    9   40 1  
    45   10   41 1  
    46   10   42 1  
    47   10   43 1  
    48   15   44 1  
    49   17   45 1  
    50   20   46 1  
    51   21   47 1  
    52   23   48 1  
    53   24   49 1  
    54   24   50 1  
    55   25   51 1  
    56   25   52 1  
    57   26   53 1  
    58   26   54 1  
    59   27   55 1  
    60   27   56 1  
    61   28   57 1  
@<TRIPOS>SUBSTRUCTURE
     1 3QS         1

