### 
### Created by X-TOOL on Mon Sep 10 21:13:21 2018
### 

@<TRIPOS>MOLECULE
4rkx_ligand
   24    24     1     0     0
SMALL
GAST_HUCK


@<TRIPOS>ATOM
      1 N14        17.0990  -12.9310  -22.9950 N.1       1 3S9        -0.3014
      2 C13        16.2300  -12.7750  -23.7490 C.1       1 3S9         0.1146
      3 C12        15.1290  -12.5870  -24.7080 C.3       1 3S9         0.1569
      4 N11        14.4390  -11.3030  -24.5930 N.am      1 3S9        -0.2384
      5 C9         13.3220  -11.0330  -23.9150 C.2       1 3S9         0.3233
      6 O10        12.7300  -11.8730  -23.2550 O.2       1 3S9        -0.3774
      7 O8         12.7710   -9.6880  -23.9390 O.3       1 3S9        -0.2506
      8 C7         11.5020   -9.4510  -23.3310 C.3       1 3S9         0.1113
      9 C2         11.3550   -7.1950  -24.4480 C.ar      1 3S9        -0.0578
     10 C3         10.6360   -6.2210  -25.1320 C.ar      1 3S9        -0.0685
     11 C4          9.2980   -6.4320  -25.4500 C.ar      1 3S9        -0.0687
     12 C5          8.6840   -7.6200  -25.0810 C.ar      1 3S9        -0.0685
     13 C6          9.4040   -8.5910  -24.3940 C.ar      1 3S9        -0.0578
     14 C1         10.7400   -8.3830  -24.0800 C.ar      1 3S9        -0.0130
     15 H1         14.3928  -13.3884  -24.5477 H         1 3S9         0.0823
     16 H2         15.5414  -12.6658  -25.7247 H         1 3S9         0.0823
     17 H3         14.8540  -10.5351  -25.0810 H         1 3S9         0.1889
     18 H4         11.6552   -9.1233  -22.2922 H         1 3S9         0.0776
     19 H5         10.9183  -10.3833  -23.3391 H         1 3S9         0.0776
     20 H6         12.3971   -7.0260  -24.2020 H         1 3S9         0.0557
     21 H7         11.1196   -5.2941  -25.4185 H         1 3S9         0.0599
     22 H8          8.7383   -5.6721  -25.9833 H         1 3S9         0.0559
     23 H9          7.6426   -7.7913  -25.3283 H         1 3S9         0.0599
     24 H10         8.9193   -9.5156  -24.1020 H         1 3S9         0.0557
@<TRIPOS>BOND
     1    2    1 3  
     2    3    2 1  
     3    4    3 1  
     4    5    4 am 
     5    5    6 2  
     6    7    5 1  
     7    8    7 1  
     8   14    8 1  
     9    9   10 ar 
    10    9   14 ar 
    11   10   11 ar 
    12   11   12 ar 
    13   12   13 ar 
    14   13   14 ar 
    15    3   15 1  
    16    3   16 1  
    17    4   17 1  
    18    8   18 1  
    19    8   19 1  
    20    9   20 1  
    21   10   21 1  
    22   11   22 1  
    23   12   23 1  
    24   13   24 1  
@<TRIPOS>SUBSTRUCTURE
     1 3S9         1

