### 
### Created by X-TOOL on Mon Sep 10 21:13:16 2018
### 

@<TRIPOS>MOLECULE
4rlk_ligand
   38    41     1     0     0
SMALL
GAST_HUCK


@<TRIPOS>ATOM
      1 O01        23.1510    8.1190   13.2890 O.co2     1 E91        -0.5590
      2 C02        23.7610    7.7710   14.3130 C.2       1 E91         0.0672
      3 O03        24.6370    6.8650   14.3780 O.co2     1 E91        -0.5590
      4 C04        23.2190    8.3110   15.5520 C.ar      1 E91         0.0170
      5 C05        22.2910    9.3340   15.4920 C.ar      1 E91        -0.0394
      6 C06        21.6900    9.8340   16.6460 C.ar      1 E91        -0.0388
      7 C07        21.9840    9.2600   17.8510 C.ar      1 E91         0.0175
      8 C08        21.3670    9.7180   19.0460 C.2       1 E91         0.0499
      9 N09        21.4970    9.0740   20.1920 N.2       1 E91        -0.2110
     10 N10        21.0140    9.2790   21.3110 N.2       1 E91        -0.2054
     11 C11        20.9000    8.7050   22.4440 C.2       1 E91         0.0807
     12 C12        20.2550    9.1030   23.6760 C.ar      1 E91         0.0108
     13 C13        19.6860   10.3260   23.9760 C.ar      1 E91        -0.0498
     14 C14        19.1200   10.5000   25.2480 C.ar      1 E91        -0.0578
     15 C15        19.1560    9.4520   26.1600 C.ar      1 E91        -0.0583
     16 C16        19.7290    8.2060   25.8430 C.ar      1 E91        -0.0530
     17 C17        20.3000    8.0300   24.5920 C.ar      1 E91        -0.0121
     18 C18        20.9770    6.8840   23.9380 C.ar      1 E91        -0.0121
     19 C19        21.2990    5.5840   24.3490 C.ar      1 E91        -0.0530
     20 C20        21.9720    4.7120   23.4530 C.ar      1 E91        -0.0583
     21 C21        22.3230    5.1310   22.1770 C.ar      1 E91        -0.0578
     22 C22        22.0020    6.4390   21.7580 C.ar      1 E91        -0.0498
     23 C23        21.3420    7.2880   22.6440 C.ar      1 E91         0.0108
     24 C24        22.9120    8.2030   17.9340 C.ar      1 E91        -0.0388
     25 C25        23.5310    7.7410   16.7960 C.ar      1 E91        -0.0394
     26 H          22.0257    9.7553   14.5291 H         1 E91         0.0669
     27 H          20.9987   10.6670   16.5885 H         1 E91         0.0698
     28 H          20.7688   10.6275   19.0163 H         1 E91         0.1114
     29 H          19.6772   11.1293   23.2482 H         1 E91         0.0669
     30 H          18.6588   11.4434   25.5169 H         1 E91         0.0619
     31 H          18.7297    9.5986   27.1458 H         1 E91         0.0642
     32 H          19.7239    7.3975   26.5650 H         1 E91         0.0640
     33 H          21.0360    5.2459   25.3448 H         1 E91         0.0640
     34 H          22.2153    3.7043   23.7700 H         1 E91         0.0642
     35 H          22.8414    4.4560   21.5056 H         1 E91         0.0619
     36 H          22.2646    6.7783   20.7625 H         1 E91         0.0669
     37 H          23.1380    7.7541   18.8945 H         1 E91         0.0698
     38 H          24.2576    6.9391   16.8597 H         1 E91         0.0669
@<TRIPOS>BOND
     1    1    2 ar 
     2    2    3 ar 
     3    2    4 1  
     4    4    5 ar 
     5    4   25 ar 
     6    5    6 ar 
     7    6    7 ar 
     8    7    8 1  
     9    7   24 ar 
    10    8    9 2  
    11    9   10 1  
    12   10   11 2  
    13   11   12 1  
    14   11   23 1  
    15   12   13 ar 
    16   12   17 ar 
    17   13   14 ar 
    18   14   15 ar 
    19   15   16 ar 
    20   16   17 ar 
    21   17   18 1  
    22   18   19 ar 
    23   18   23 ar 
    24   19   20 ar 
    25   20   21 ar 
    26   21   22 ar 
    27   22   23 ar 
    28   24   25 ar 
    29    5   26 1  
    30    6   27 1  
    31    8   28 1  
    32   13   29 1  
    33   14   30 1  
    34   15   31 1  
    35   16   32 1  
    36   19   33 1  
    37   20   34 1  
    38   21   35 1  
    39   22   36 1  
    40   24   37 1  
    41   25   38 1  
@<TRIPOS>SUBSTRUCTURE
     1 E91         1

