### 
### Created by X-TOOL on Mon Sep 10 21:13:17 2018
### 

@<TRIPOS>MOLECULE
4rll_ligand
   38    41     1     0     0
SMALL
GAST_HUCK


@<TRIPOS>ATOM
      1 O01       -16.6750   10.9860   44.1910 O.co2     1 E91        -0.5590
      2 C02       -16.5340   11.2080   45.4210 C.2       1 E91         0.0672
      3 O03       -16.1620   10.3790   46.2670 O.co2     1 E91        -0.5590
      4 C04       -16.8210   12.6420   45.9220 C.ar      1 E91         0.0170
      5 C05       -16.9180   12.9520   47.2800 C.ar      1 E91        -0.0394
      6 C06       -17.1690   14.2600   47.7270 C.ar      1 E91        -0.0388
      7 C07       -17.3330   15.2920   46.8010 C.ar      1 E91         0.0175
      8 C08       -17.5940   16.6510   47.2020 C.2       1 E91         0.0499
      9 N09       -17.2830   17.7630   46.5320 N.2       1 E91        -0.2110
     10 N10       -17.4510   18.9760   46.7450 N.2       1 E91        -0.2054
     11 C11       -17.3570   20.1220   46.1670 C.2       1 E91         0.0807
     12 C12       -17.3660   21.5350   46.6460 C.ar      1 E91         0.0108
     13 C13       -17.5820   22.0230   47.9340 C.ar      1 E91        -0.0498
     14 C14       -17.5430   23.4180   48.1520 C.ar      1 E91        -0.0578
     15 C15       -17.2960   24.2740   47.0950 C.ar      1 E91        -0.0583
     16 C16       -17.0790   23.7770   45.7900 C.ar      1 E91        -0.0530
     17 C17       -17.1120   22.4000   45.5570 C.ar      1 E91        -0.0121
     18 C18       -16.9270   21.5750   44.3350 C.ar      1 E91        -0.0121
     19 C19       -16.6570   21.8920   43.0010 C.ar      1 E91        -0.0530
     20 C20       -16.5330   20.8650   42.0380 C.ar      1 E91        -0.0583
     21 C21       -16.6780   19.5420   42.3980 C.ar      1 E91        -0.0578
     22 C22       -16.9510   19.2050   43.7400 C.ar      1 E91        -0.0498
     23 C23       -17.0720   20.2210   44.6890 C.ar      1 E91         0.0108
     24 C24       -17.2330   14.9880   45.4440 C.ar      1 E91        -0.0388
     25 C25       -16.9820   13.6810   45.0180 C.ar      1 E91        -0.0394
     26 H         -16.7961   12.1605   48.0105 H         1 E91         0.0669
     27 H         -17.2352   14.4676   48.7889 H         1 E91         0.0698
     28 H         -18.1006   16.7859   48.1565 H         1 E91         0.1114
     29 H         -17.7768   21.3426   48.7551 H         1 E91         0.0669
     30 H         -17.7065   23.8168   49.1466 H         1 E91         0.0619
     31 H         -17.2683   25.3434   47.2699 H         1 E91         0.0642
     32 H         -16.8875   24.4623   44.9722 H         1 E91         0.0640
     33 H         -16.5424   22.9282   42.7041 H         1 E91         0.0640
     34 H         -16.3217   21.1201   41.0058 H         1 E91         0.0642
     35 H         -16.5824   18.7623   41.6510 H         1 E91         0.0619
     36 H         -17.0657   18.1672   44.0314 H         1 E91         0.0669
     37 H         -17.3516   15.7763   44.7094 H         1 E91         0.0698
     38 H         -16.9115   13.4746   43.9562 H         1 E91         0.0669
@<TRIPOS>BOND
     1    1    2 ar 
     2    2    3 ar 
     3    2    4 1  
     4    4    5 ar 
     5    4   25 ar 
     6    5    6 ar 
     7    6    7 ar 
     8    7    8 1  
     9    7   24 ar 
    10    8    9 2  
    11    9   10 1  
    12   10   11 2  
    13   11   12 1  
    14   11   23 1  
    15   12   13 ar 
    16   12   17 ar 
    17   13   14 ar 
    18   14   15 ar 
    19   15   16 ar 
    20   16   17 ar 
    21   17   18 1  
    22   18   19 ar 
    23   18   23 ar 
    24   19   20 ar 
    25   20   21 ar 
    26   21   22 ar 
    27   22   23 ar 
    28   24   25 ar 
    29    5   26 1  
    30    6   27 1  
    31    8   28 1  
    32   13   29 1  
    33   14   30 1  
    34   15   31 1  
    35   16   32 1  
    36   19   33 1  
    37   20   34 1  
    38   21   35 1  
    39   22   36 1  
    40   24   37 1  
    41   25   38 1  
@<TRIPOS>SUBSTRUCTURE
     1 E91         1

