### 
### Created by X-TOOL on Mon Sep 10 21:13:20 2018
### 

@<TRIPOS>MOLECULE
4rn0_ligand
   61    63     1     0     0
SMALL
GAST_HUCK


@<TRIPOS>ATOM
      1 C1         -2.7810   10.6540  -18.3900 C.3       1 L6G        -0.0028
      2 C2         -2.2410    9.8280  -19.5860 C.3       1 L6G        -0.0276
      3 C3         -2.4860    8.3490  -19.3460 C.2       1 L6G        -0.0956
      4 C4         -1.4460    7.5010  -19.4060 C.2       1 L6G        -0.0716
      5 C5         -1.6050    6.0120  -19.1790 C.3       1 L6G         0.0757
      6 C6         -0.5900    5.0220  -21.1570 C.2       1 L6G         0.2040
      7 C7          0.5470    4.2560  -21.7830 C.3       1 L6G         0.1334
      8 C8         -0.0370    3.1130  -22.6390 C.3       1 L6G        -0.0061
      9 C9         -0.9520    2.1750  -21.8490 C.3       1 L6G        -0.0584
     10 C10         1.0330    2.2470  -23.3250 C.3       1 L6G        -0.0584
     11 C11         2.7250    3.5820  -20.8950 C.2       1 L6G         0.2122
     12 C12         3.5020    2.8690  -19.8110 C.3       1 L6G         0.1018
     13 C13         4.6530    3.7850  -19.3930 C.3       1 L6G        -0.0450
     14 C14         3.9750    1.5450  -20.4320 C.3       1 L6G         0.0336
     15 C15         2.1890    1.3540  -18.6800 C.2       1 L6G         0.0841
     16 C16         1.1000    0.9960  -17.7620 C.2       1 L6G         0.0660
     17 C17         0.8470   -0.2780  -17.2530 C.2       1 L6G         0.0394
     18 C18        -0.7120    1.5720  -16.5150 C.2       1 L6G         0.1211
     19 C19        -1.7910    2.3860  -15.8650 C.3       1 L6G         0.1021
     20 C20        -1.9630    4.2810  -17.3700 C.2       1 L6G         0.1825
     21 C21        -1.5620    5.7100  -17.6940 C.3       1 L6G         0.0670
     22 N1         -0.5150    5.2680  -19.8520 N.am      1 L6G        -0.2718
     23 N2          1.4040    3.6470  -20.7710 N.am      1 L6G        -0.2638
     24 N3          2.6360    2.5410  -18.6770 N.2       1 L6G        -0.3442
     25 N4          0.2500    1.9730  -17.3430 N.2       1 L6G        -0.3038
     26 N5         -1.4530    3.7550  -16.2750 N.am      1 L6G        -0.2677
     27 O1         -1.5230    5.3580  -21.8670 O.2       1 L6G        -0.3943
     28 O2          3.3060    4.0550  -21.8710 O.2       1 L6G        -0.3435
     29 O3         -2.7330    3.6450  -18.0770 O.2       1 L6G        -0.3966
     30 S1         -2.8010   12.4400  -18.8280 S.3       1 L6G        -0.1764
     31 S2          2.9080    0.2970  -19.7680 S.3       1 L6G        -0.0641
     32 S3         -0.5340   -0.1330  -16.2320 S.3       1 L6G         0.0188
     33 H1         -2.1314   10.4993  -17.5159 H         1 L6G         0.0394
     34 H2         -3.8029   10.3250  -18.1502 H         1 L6G         0.0394
     35 H3         -1.1608   10.0058  -19.6938 H         1 L6G         0.0396
     36 H4         -2.7574   10.1384  -20.5063 H         1 L6G         0.0396
     37 H5         -3.4880    7.9818  -19.1289 H         1 L6G         0.0451
     38 H6         -0.4556    7.8973  -19.6251 H         1 L6G         0.0474
     39 H7         -2.5726    5.6874  -19.5892 H         1 L6G         0.0705
     40 H8          1.1421    4.9352  -22.4112 H         1 L6G         0.0804
     41 H9         -0.6404    3.5868  -23.4273 H         1 L6G         0.0343
     42 H10        -1.3325    1.3868  -22.5154 H         1 L6G         0.0235
     43 H11        -1.7969    2.7471  -21.4381 H         1 L6G         0.0235
     44 H12        -0.3845    1.7166  -21.0257 H         1 L6G         0.0235
     45 H13         1.7106    2.8917  -23.9040 H         1 L6G         0.0235
     46 H14         0.5455    1.5279  -23.9997 H         1 L6G         0.0235
     47 H15         1.6082    1.7021  -22.5620 H         1 L6G         0.0235
     48 H16         5.2419    3.2965  -18.6027 H         1 L6G         0.0227
     49 H17         4.2470    4.7344  -19.0139 H         1 L6G         0.0227
     50 H18         5.2982    3.9829  -20.2617 H         1 L6G         0.0227
     51 H19         5.0202    1.3431  -20.1551 H         1 L6G         0.0409
     52 H20         3.8866    1.5820  -21.5278 H         1 L6G         0.0409
     53 H21         1.4114   -1.1860  -17.4601 H         1 L6G         0.0908
     54 H22        -1.7622    2.2812  -14.7704 H         1 L6G         0.0782
     55 H23        -2.7851    2.0950  -16.2352 H         1 L6G         0.0782
     56 H24        -2.2509    6.3938  -17.1766 H         1 L6G         0.0545
     57 H25        -0.5373    5.8779  -17.3311 H         1 L6G         0.0545
     58 H26         0.2749    4.9516  -19.3267 H         1 L6G         0.1880
     59 H27         0.9797    3.2630  -19.9509 H         1 L6G         0.1889
     60 H28        -0.8262    4.2963  -15.7145 H         1 L6G         0.1889
     61 H29        -1.8644   12.7415  -19.0471 H         1 L6G         0.1018
@<TRIPOS>BOND
     1    2    1 1  
     2    1   30 1  
     3    3    2 1  
     4    4    3 2  
     5    5    4 1  
     6    5   21 1  
     7   22    5 1  
     8    7    6 1  
     9    6   22 am 
    10    6   27 2  
    11    7    8 1  
    12   23    7 1  
    13    8    9 1  
    14    8   10 1  
    15   12   11 1  
    16   11   23 am 
    17   11   28 2  
    18   12   13 1  
    19   14   12 1  
    20   24   12 1  
    21   31   14 1  
    22   16   15 1  
    23   15   24 2  
    24   15   31 1  
    25   16   17 2  
    26   25   16 1  
    27   17   32 1  
    28   18   19 1  
    29   18   25 2  
    30   18   32 1  
    31   19   26 1  
    32   21   20 1  
    33   20   26 am 
    34   20   29 2  
    35    1   33 1  
    36    1   34 1  
    37    2   35 1  
    38    2   36 1  
    39    3   37 1  
    40    4   38 1  
    41    5   39 1  
    42    7   40 1  
    43    8   41 1  
    44    9   42 1  
    45    9   43 1  
    46    9   44 1  
    47   10   45 1  
    48   10   46 1  
    49   10   47 1  
    50   13   48 1  
    51   13   49 1  
    52   13   50 1  
    53   14   51 1  
    54   14   52 1  
    55   17   53 1  
    56   19   54 1  
    57   19   55 1  
    58   21   56 1  
    59   21   57 1  
    60   22   58 1  
    61   23   59 1  
    62   26   60 1  
    63   30   61 1  
@<TRIPOS>SUBSTRUCTURE
     1 L6G         1

