### 
### Created by X-TOOL on Mon Sep 10 21:13:23 2018
### 

@<TRIPOS>MOLECULE
4rn1_ligand
   64    66     1     0     0
SMALL
GAST_HUCK


@<TRIPOS>ATOM
      1 C1         -2.9670   10.9080  -18.5120 C.3       1 L8G        -0.0028
      2 C2         -2.0440   10.0680  -19.3860 C.3       1 L8G        -0.0276
      3 C3         -2.2060    8.5990  -19.0780 C.2       1 L8G        -0.0956
      4 C4         -1.3490    7.7310  -19.6100 C.2       1 L8G        -0.0716
      5 C5         -1.4760    6.2520  -19.3310 C.3       1 L8G         0.0757
      6 C6         -0.5600    5.1120  -21.2520 C.2       1 L8G         0.2040
      7 C7          0.5700    4.3470  -21.8860 C.3       1 L8G         0.1334
      8 C8         -0.0080    3.2550  -22.7830 C.3       1 L8G        -0.0061
      9 C9         -0.8920    2.3020  -21.9900 C.3       1 L8G        -0.0584
     10 C10         1.0860    2.4840  -23.5160 C.3       1 L8G        -0.0584
     11 C11         2.7140    3.8440  -20.8730 C.2       1 L8G         0.2145
     12 C12         3.4920    3.0670  -19.8430 C.3       1 L8G         0.1111
     13 C13         4.6820    3.9010  -19.3880 C.3       1 L8G        -0.0428
     14 C14         3.9610    1.7620  -20.4910 C.3       1 L8G         0.0362
     15 C15         2.1710    1.5630  -18.6870 C.2       1 L8G         0.1089
     16 C16         1.1030    1.1270  -17.7300 C.ar      1 L8G         0.0912
     17 C17         0.9780   -0.2120  -17.3730 C.ar      1 L8G        -0.0208
     18 C18        -0.0230   -0.5940  -16.4860 C.ar      1 L8G        -0.0409
     19 C19        -0.8800    0.3740  -15.9790 C.ar      1 L8G        -0.0241
     20 C20        -0.7240    1.7020  -16.3660 C.ar      1 L8G         0.0570
     21 C21        -1.6510    2.7610  -15.8160 C.3       1 L8G         0.0813
     22 C22        -1.8130    4.6150  -17.4770 C.2       1 L8G         0.1820
     23 C23        -1.3210    5.9990  -17.8330 C.3       1 L8G         0.0669
     24 N1         -0.4110    5.5040  -19.9880 N.am      1 L8G        -0.2718
     25 N2          1.3980    3.6440  -20.9150 N.am      1 L8G        -0.2636
     26 N3          2.6340    2.7350  -18.7050 N.2       1 L8G        -0.3225
     27 N4          0.2550    2.0490  -17.2280 N.ar      1 L8G        -0.2767
     28 N5         -1.3240    4.0690  -16.3660 N.am      1 L8G        -0.2728
     29 O1         -1.5630    5.3680  -21.8990 O.2       1 L8G        -0.3943
     30 O2          3.2900    4.6020  -21.6350 O.2       1 L8G        -0.3433
     31 O3         -2.6340    4.0510  -18.1790 O.2       1 L8G        -0.3967
     32 S1         -2.7800   12.6600  -18.9340 S.3       1 L8G        -0.1764
     33 S2          2.8610    0.5670  -19.8180 S.3       1 L8G        -0.0581
     34 H1         -2.7064   10.7569  -17.4541 H         1 L8G         0.0394
     35 H2         -4.0097   10.6007  -18.6803 H         1 L8G         0.0394
     36 H3         -1.0013   10.3633  -19.1976 H         1 L8G         0.0396
     37 H4         -2.2896   10.2441  -20.4437 H         1 L8G         0.0396
     38 H5         -3.0114    8.2551  -18.4307 H         1 L8G         0.0451
     39 H6         -0.5475    8.0909  -20.2534 H         1 L8G         0.0474
     40 H7         -2.4570    5.8966  -19.6794 H         1 L8G         0.0705
     41 H8          1.1902    5.0417  -22.4714 H         1 L8G         0.0804
     42 H9         -0.6364    3.7458  -23.5408 H         1 L8G         0.0343
     43 H10        -1.2925    1.5286  -22.6619 H         1 L8G         0.0235
     44 H11        -1.7241    2.8629  -21.5394 H         1 L8G         0.0235
     45 H12        -0.2981    1.8259  -21.1959 H         1 L8G         0.0235
     46 H13         1.7137    3.1876  -24.0825 H         1 L8G         0.0235
     47 H14         0.6259    1.7637  -24.2085 H         1 L8G         0.0235
     48 H15         1.7071    1.9450  -22.7855 H         1 L8G         0.0235
     49 H16         5.2560    3.3407  -18.6353 H         1 L8G         0.0229
     50 H17         4.3228    4.8432  -18.9485 H         1 L8G         0.0229
     51 H18         5.3269    4.1214  -20.2514 H         1 L8G         0.0229
     52 H19         5.0028    1.5377  -20.2186 H         1 L8G         0.0411
     53 H20         3.8705    1.8098  -21.5862 H         1 L8G         0.0411
     54 H21         1.6557   -0.9520  -17.7831 H         1 L8G         0.0729
     55 H22        -0.1326   -1.6324  -16.1947 H         1 L8G         0.0734
     56 H23        -1.6660    0.0970  -15.2858 H         1 L8G         0.0704
     57 H24        -1.5511    2.7948  -14.7211 H         1 L8G         0.0716
     58 H25        -2.6876    2.5067  -16.0820 H         1 L8G         0.0716
     59 H26        -1.9070    6.7457  -17.2771 H         1 L8G         0.0545
     60 H27        -0.2595    6.0876  -17.5587 H         1 L8G         0.0545
     61 H28         0.4289    5.2859  -19.4910 H         1 L8G         0.1880
     62 H29         0.9738    3.0048  -20.2735 H         1 L8G         0.1889
     63 H30        -0.6611    4.6155  -15.8542 H         1 L8G         0.1881
     64 H31        -3.3923   13.2114  -18.3535 H         1 L8G         0.1018
@<TRIPOS>BOND
     1    2    1 1  
     2    1   32 1  
     3    3    2 1  
     4    4    3 2  
     5    5    4 1  
     6    5   23 1  
     7   24    5 1  
     8    7    6 1  
     9    6   24 am 
    10    6   29 2  
    11    7    8 1  
    12   25    7 1  
    13    8    9 1  
    14    8   10 1  
    15   12   11 1  
    16   11   25 am 
    17   11   30 2  
    18   12   13 1  
    19   12   14 1  
    20   26   12 1  
    21   14   33 1  
    22   15   16 1  
    23   15   26 2  
    24   15   33 1  
    25   16   17 ar 
    26   16   27 ar 
    27   17   18 ar 
    28   18   19 ar 
    29   19   20 ar 
    30   20   21 1  
    31   20   27 ar 
    32   21   28 1  
    33   23   22 1  
    34   22   28 am 
    35   22   31 2  
    36    1   34 1  
    37    1   35 1  
    38    2   36 1  
    39    2   37 1  
    40    3   38 1  
    41    4   39 1  
    42    5   40 1  
    43    7   41 1  
    44    8   42 1  
    45    9   43 1  
    46    9   44 1  
    47    9   45 1  
    48   10   46 1  
    49   10   47 1  
    50   10   48 1  
    51   13   49 1  
    52   13   50 1  
    53   13   51 1  
    54   14   52 1  
    55   14   53 1  
    56   17   54 1  
    57   18   55 1  
    58   19   56 1  
    59   21   57 1  
    60   21   58 1  
    61   23   59 1  
    62   23   60 1  
    63   24   61 1  
    64   25   62 1  
    65   28   63 1  
    66   32   64 1  
@<TRIPOS>SUBSTRUCTURE
     1 L8G         1

