### 
### Created by X-TOOL on Mon Sep 10 21:13:23 2018
### 

@<TRIPOS>MOLECULE
4rn2_ligand
   64    66     1     0     0
SMALL
GAST_HUCK


@<TRIPOS>ATOM
      1 C1         19.0610   28.6690   16.7710 C.3       1 L7G        -0.0028
      2 C2         19.3970   29.7090   17.8340 C.3       1 L7G        -0.0276
      3 C3         19.0710   31.0970   17.3340 C.2       1 L7G        -0.0956
      4 C4         19.4390   32.1500   18.0560 C.2       1 L7G        -0.0716
      5 C5         19.1330   33.5540   17.5920 C.3       1 L7G         0.0757
      6 C6         19.1500   34.9790   19.5270 C.2       1 L7G         0.2040
      7 C7         19.8390   35.9860   20.4090 C.3       1 L7G         0.1334
      8 C8         18.7950   36.9820   20.9070 C.3       1 L7G        -0.0061
      9 C9         18.2200   37.8010   19.7560 C.3       1 L7G        -0.0584
     10 C10        19.3570   37.8900   21.9960 C.3       1 L7G        -0.0584
     11 C11        22.0720   36.9380   20.2280 C.2       1 L7G         0.2145
     12 C12        23.0360   37.8010   19.4550 C.3       1 L7G         0.1111
     13 C13        24.4250   37.1810   19.5240 C.3       1 L7G        -0.0429
     14 C14        23.0300   39.1990   20.0810 C.3       1 L7G         0.0362
     15 C15        21.9060   38.9490   17.8090 C.2       1 L7G         0.1007
     16 C16        21.0540   39.0670   16.5830 C.ar      1 L7G         0.0410
     17 C17        20.5500   40.2950   16.1790 C.ar      1 L7G        -0.0215
     18 C18        19.7560   40.3610   15.0390 C.ar      1 L7G         0.0102
     19 C19        19.9530   38.0450   14.7160 C.ar      1 L7G         0.0574
     20 C20        20.7490   37.9300   15.8480 C.ar      1 L7G        -0.0109
     21 C21        19.6170   36.8170   13.9020 C.3       1 L7G         0.0810
     22 C22        19.1390   35.0070   15.5590 C.2       1 L7G         0.1820
     23 C23        19.6920   33.7500   16.1860 C.3       1 L7G         0.0669
     24 N1         19.7880   34.5350   18.4470 N.am      1 L7G        -0.2718
     25 N2         20.8420   36.7960   19.7260 N.am      1 L7G        -0.2636
     26 N3         22.5920   37.9240   18.0670 N.2       1 L7G        -0.3229
     27 N4         19.4760   39.2530   14.3390 N.ar      1 L7G        -0.2895
     28 N5         19.9110   35.6040   14.6540 N.am      1 L7G        -0.2730
     29 O1         18.0350   34.5810   19.8200 O.2       1 L7G        -0.3943
     30 O2         22.4270   36.4140   21.2720 O.2       1 L7G        -0.3433
     31 O3         18.0350   35.4240   15.8680 O.2       1 L7G        -0.3967
     32 S1         19.4900   27.0190   17.3850 S.3       1 L7G        -0.1764
     33 S2         22.0290   40.1240   18.9700 S.3       1 L7G        -0.0583
     34 H1         19.6345   28.8806   15.8565 H         1 L7G         0.0394
     35 H2         17.9849   28.7084   16.5464 H         1 L7G         0.0394
     36 H3         20.4696   29.6517   18.0709 H         1 L7G         0.0396
     37 H4         18.8096   29.5032   18.7410 H         1 L7G         0.0396
     38 H5         18.5405   31.2328   16.3927 H         1 L7G         0.0451
     39 H6         19.9686   31.9984   18.9954 H         1 L7G         0.0474
     40 H7         18.0449   33.7155   17.5976 H         1 L7G         0.0705
     41 H8         20.3068   35.4581   21.2531 H         1 L7G         0.0804
     42 H9         17.9705   36.4039   21.3496 H         1 L7G         0.0343
     43 H10        17.4727   38.5075   20.1463 H         1 L7G         0.0235
     44 H11        17.7430   37.1273   19.0290 H         1 L7G         0.0235
     45 H12        19.0295   38.3589   19.2627 H         1 L7G         0.0235
     46 H13        19.7643   37.2750   22.8120 H         1 L7G         0.0235
     47 H14        18.5550   38.5334   22.3870 H         1 L7G         0.0235
     48 H15        20.1570   38.5163   21.5745 H         1 L7G         0.0235
     49 H16        25.1340   37.8063   18.9615 H         1 L7G         0.0229
     50 H17        24.3985   36.1722   19.0862 H         1 L7G         0.0229
     51 H18        24.7461   37.1167   20.5741 H         1 L7G         0.0229
     52 H19        24.0478   39.6128   20.1345 H         1 L7G         0.0411
     53 H20        22.5886   39.1795   21.0884 H         1 L7G         0.0411
     54 H21        20.7724   41.1923   16.7451 H         1 L7G         0.0720
     55 H22        19.3604   41.3165   14.7140 H         1 L7G         0.0816
     56 H23        21.1283   36.9619   16.1545 H         1 L7G         0.0719
     57 H24        20.2134   36.8222   12.9777 H         1 L7G         0.0713
     58 H25        18.5469   36.8338   13.6480 H         1 L7G         0.0713
     59 H26        19.4158   32.8855   15.5644 H         1 L7G         0.0545
     60 H27        20.7879   33.8267   16.2412 H         1 L7G         0.0545
     61 H28        20.7039   34.8699   18.2254 H         1 L7G         0.1880
     62 H29        20.6050   37.2523   18.8683 H         1 L7G         0.1889
     63 H30        20.7931   35.1708   14.4691 H         1 L7G         0.1881
     64 H31        20.4762   26.9842   17.5905 H         1 L7G         0.1018
@<TRIPOS>BOND
     1    2    1 1  
     2    1   32 1  
     3    3    2 1  
     4    4    3 2  
     5    5    4 1  
     6    5   23 1  
     7   24    5 1  
     8    7    6 1  
     9    6   24 am 
    10    6   29 2  
    11    7    8 1  
    12   25    7 1  
    13    8    9 1  
    14    8   10 1  
    15   12   11 1  
    16   11   25 am 
    17   11   30 2  
    18   12   13 1  
    19   12   14 1  
    20   26   12 1  
    21   14   33 1  
    22   15   16 1  
    23   15   26 2  
    24   15   33 1  
    25   16   17 ar 
    26   16   20 ar 
    27   17   18 ar 
    28   18   27 ar 
    29   20   19 ar 
    30   19   21 1  
    31   19   27 ar 
    32   21   28 1  
    33   23   22 1  
    34   22   28 am 
    35   22   31 2  
    36    1   34 1  
    37    1   35 1  
    38    2   36 1  
    39    2   37 1  
    40    3   38 1  
    41    4   39 1  
    42    5   40 1  
    43    7   41 1  
    44    8   42 1  
    45    9   43 1  
    46    9   44 1  
    47    9   45 1  
    48   10   46 1  
    49   10   47 1  
    50   10   48 1  
    51   13   49 1  
    52   13   50 1  
    53   13   51 1  
    54   14   52 1  
    55   14   53 1  
    56   17   54 1  
    57   18   55 1  
    58   20   56 1  
    59   21   57 1  
    60   21   58 1  
    61   23   59 1  
    62   23   60 1  
    63   24   61 1  
    64   25   62 1  
    65   28   63 1  
    66   32   64 1  
@<TRIPOS>SUBSTRUCTURE
     1 L7G         1

