### 
### Created by X-TOOL on Mon Sep 10 21:13:22 2018
### 

@<TRIPOS>MOLECULE
4rn4_ligand
   63    67     1     0     0
SMALL
GAST_HUCK


@<TRIPOS>ATOM
      1 O01        15.7260    1.5200   18.0760 O.2       1 3T7        -0.1450
      2 S02        15.2870    1.3350   16.7250 S.o2      1 3T7         0.0999
      3 C03        15.9560    2.6290   15.7060 C.2       1 3T7         0.2585
      4 N04        17.3230    2.6820   15.4160 N.2       1 3T7        -0.2437
      5 N05        17.5720    3.8370   14.5390 N.2       1 3T7        -0.2547
      6 C06        16.4010    4.5380   14.2720 C.2       1 3T7         0.2044
      7 N07        16.3870    5.7340   13.4550 N.pl3     1 3T7        -0.2528
      8 C08        17.5210    6.0810   12.5960 C.3       1 3T7         0.0728
      9 C09        18.3900    7.1450   13.3230 C.2       1 3T7         0.0627
     10 C10        18.6390    8.4610   12.9480 C.2       1 3T7         0.0862
     11 N11        19.4300    8.9970   13.8950 N.pl3     1 3T7        -0.1375
     12 C12        19.9360   10.3210   13.9530 C.ar      1 3T7         0.1173
     13 C13        21.1630   10.5610   14.5600 C.ar      1 3T7        -0.0240
     14 C14        21.6520   11.8700   14.6320 C.ar      1 3T7        -0.0651
     15 C15        20.9090   12.9320   14.1050 C.ar      1 3T7        -0.0681
     16 C16        19.6770   12.6850   13.5070 C.ar      1 3T7        -0.0651
     17 C17        19.1900   11.3770   13.4360 C.ar      1 3T7        -0.0240
     18 N18        19.6740    8.0670   14.8440 N.2       1 3T7        -0.0892
     19 N19        19.0280    6.9150   14.4850 N.2       1 3T7        -0.2224
     20 C20        15.2170    6.5780   13.5110 C.3       1 3T7         0.0723
     21 C21        15.0700    7.3180   12.1800 C.2       1 3T7         0.0601
     22 C22        15.6290    8.5580   11.8870 C.2       1 3T7         0.0742
     23 N23        15.3090    8.8670   10.6460 N.pl3     1 3T7        -0.1506
     24 C24        15.7010   10.0510   10.0010 C.3       1 3T7         0.2151
     25 C25        15.3550    9.8940    8.5530 C.3       1 3T7         0.1413
     26 C26        15.1460   11.1900    7.8340 C.3       1 3T7         0.1148
     27 C27        15.6440   12.4040    8.5340 C.3       1 3T7         0.1119
     28 C28        15.2590   12.4970    9.9930 C.3       1 3T7         0.1136
     29 C29        14.0470   13.3670   10.1760 C.3       1 3T7         0.0730
     30 O30        12.9940   12.9840    9.2990 O.3       1 3T7        -0.3924
     31 O31        15.0130   11.1770   10.6410 O.3       1 3T7        -0.3346
     32 O32        17.1030   12.4460    8.4370 O.3       1 3T7        -0.3865
     33 O33        13.7200   11.3440    7.5530 O.3       1 3T7        -0.3864
     34 O34        16.4140    9.1290    7.9270 O.3       1 3T7        -0.3833
     35 N35        14.5520    7.8610   10.1110 N.2       1 3T7        -0.0996
     36 N36        14.4260    6.9000   11.0770 N.2       1 3T7        -0.2243
     37 S37        15.0860    3.8670   15.0170 S.3       1 3T7         0.0868
     38 N38        15.8490   -0.0630   16.1140 N.am      1 3T7        -0.2563
     39 O39        13.8670    1.4760   16.6630 O.2       1 3T7        -0.1450
     40 H1         17.1524    6.4916   11.6444 H         1 3T7         0.0651
     41 H2         18.1243    5.1826   12.3986 H         1 3T7         0.0651
     42 H3         18.2646    8.9624   12.0567 H         1 3T7         0.0908
     43 H4         21.7369    9.7402   14.9746 H         1 3T7         0.0593
     44 H5         22.6114   12.0623   15.0985 H         1 3T7         0.0602
     45 H6         21.2920   13.9445   14.1624 H         1 3T7         0.0563
     46 H7         19.0971   13.5043   13.0977 H         1 3T7         0.0602
     47 H8         18.2274   11.1837   12.9765 H         1 3T7         0.0593
     48 H9         15.3272    7.3068   14.3275 H         1 3T7         0.0649
     49 H10        14.3249    5.9597   13.6892 H         1 3T7         0.0649
     50 H11        16.2263    9.1667   12.5642 H         1 3T7         0.0900
     51 H12        16.7871   10.1947   10.0996 H         1 3T7         0.1031
     52 H13        14.4176    9.3223    8.4855 H         1 3T7         0.0679
     53 H14        15.6856   11.1233    6.8778 H         1 3T7         0.0648
     54 H15        15.2262   13.2817    8.0192 H         1 3T7         0.0647
     55 H16        16.1008   12.9706   10.5193 H         1 3T7         0.0647
     56 H17        14.3222   14.4118    9.9694 H         1 3T7         0.0584
     57 H18        13.6969   13.2786   11.2150 H         1 3T7         0.0584
     58 H19        12.2448   13.5512    9.4389 H         1 3T7         0.2095
     59 H20        17.3604   12.3884    7.5244 H         1 3T7         0.2100
     60 H21        13.2478   11.4567    8.3696 H         1 3T7         0.2100
     61 H22        16.1805    8.9468    7.0244 H         1 3T7         0.2101
     62 H23        15.6221   -0.3259   15.1762 H         1 3T7         0.1639
     63 H24        16.4216   -0.6600   16.6760 H         1 3T7         0.1639
@<TRIPOS>BOND
     1    1    2 2  
     2    2    3 1  
     3    2   38 am 
     4    2   39 2  
     5    3    4 2  
     6    3   37 1  
     7    4    5 1  
     8    5    6 2  
     9    6    7 1  
    10    6   37 1  
    11    7    8 1  
    12    7   20 1  
    13    8    9 1  
    14    9   10 2  
    15    9   19 1  
    16   10   11 1  
    17   11   12 1  
    18   11   18 1  
    19   12   13 ar 
    20   12   17 ar 
    21   13   14 ar 
    22   14   15 ar 
    23   15   16 ar 
    24   16   17 ar 
    25   18   19 2  
    26   20   21 1  
    27   21   22 2  
    28   21   36 1  
    29   22   23 1  
    30   23   24 1  
    31   23   35 1  
    32   24   25 1  
    33   24   31 1  
    34   25   26 1  
    35   25   34 1  
    36   26   27 1  
    37   26   33 1  
    38   27   28 1  
    39   27   32 1  
    40   28   29 1  
    41   28   31 1  
    42   29   30 1  
    43   35   36 2  
    44    8   40 1  
    45    8   41 1  
    46   10   42 1  
    47   13   43 1  
    48   14   44 1  
    49   15   45 1  
    50   16   46 1  
    51   17   47 1  
    52   20   48 1  
    53   20   49 1  
    54   22   50 1  
    55   24   51 1  
    56   25   52 1  
    57   26   53 1  
    58   27   54 1  
    59   28   55 1  
    60   29   56 1  
    61   29   57 1  
    62   30   58 1  
    63   32   59 1  
    64   33   60 1  
    65   34   61 1  
    66   38   62 1  
    67   38   63 1  
@<TRIPOS>SUBSTRUCTURE
     1 3T7         1

