### 
### Created by X-TOOL on Mon Sep 10 21:13:20 2018
### 

@<TRIPOS>MOLECULE
4rn6_ligand
   71    73     1     0     0
SMALL
GAST_HUCK


@<TRIPOS>ATOM
      1 S          -3.3940    3.4080    6.2250 S.o2      1 15U         0.0651
      2 O1         -4.0150    4.6840    6.4630 O.2       1 15U        -0.1523
      3 O2         -4.4040    2.4890    5.7660 O.2       1 15U        -0.1523
      4 C1         -2.4030    5.9910    9.7330 C.3       1 15U         0.0265
      5 C2         -1.1820    5.5740   10.5550 C.3       1 15U        -0.0168
      6 C3         -1.3410    4.1350   11.0560 C.3       1 15U        -0.0183
      7 C4         -1.7430    3.2240    9.9110 C.ar      1 15U        -0.0225
      8 C5         -1.5500    1.8470    9.9950 C.ar      1 15U        -0.0717
      9 C6         -1.9220    1.0100    8.9420 C.ar      1 15U        -0.0801
     10 C7         -2.5000    1.4980    7.7690 C.ar      1 15U        -0.0540
     11 C8         -2.7360    2.8610    7.5840 C.ar      1 15U         0.1188
     12 C9         -2.3560    3.7960    8.6800 C.ar      1 15U         0.0670
     13 C10        -0.9370    6.5440   11.7050 C.3       1 15U        -0.0591
     14 N          -2.5520    5.1310    8.5710 N.pl3     1 15U        -0.3240
     15 N1         -2.3080    3.6460    5.0640 N.am      1 15U        -0.2273
     16 CA         -1.0090    2.9920    5.0190 C.3       1 15U         0.1265
     17 C           0.0200    3.6740    5.8920 C.2       1 15U         0.2020
     18 O          -0.0800    4.8780    6.0640 O.2       1 15U        -0.3947
     19 CB         -0.5450    2.9200    3.5650 C.3       1 15U        -0.0128
     20 CG         -0.7020    4.2380    2.8210 C.3       1 15U        -0.0160
     21 CD          0.6460    4.7750    2.3580 C.3       1 15U         0.0627
     22 NE          0.5640    6.2090    2.1530 N.pl3     1 15U        -0.2723
     23 CZ          1.5870    6.9570    1.7490 C.cat     1 15U         0.2882
     24 NH1         1.3800    7.8550    0.7880 N.pl3     1 15U        -0.2849
     25 NH2         2.7320    6.8370    2.2660 N.pl3     1 15U        -0.2849
     26 N2          1.0200    2.9660    6.4560 N.am      1 15U        -0.2559
     27 C11         1.2600    1.5520    6.1040 C.3       1 15U         0.0973
     28 C21         1.4130    0.6960    7.3740 C.3       1 15U        -0.0151
     29 C31         2.4390    1.2540    8.3570 C.3       1 15U        -0.0384
     30 C41         2.0330    2.6840    8.6880 C.3       1 15U        -0.0296
     31 C51         1.9900    3.5280    7.4140 C.3       1 15U         0.0363
     32 C61         2.4410    1.3790    5.1740 C.2       1 15U         0.0603
     33 O11         3.0590    2.4000    4.7760 O.co2     1 15U        -0.5666
     34 O21         2.7620    0.2150    4.8220 O.co2     1 15U        -0.5666
     35 C71         2.5540    0.3990    9.6140 C.3       1 15U        -0.0622
     36 H          -2.2767    7.0315    9.3994 H         1 15U         0.0512
     37 H          -3.3044    5.9134   10.3587 H         1 15U         0.0512
     38 H          -0.3020    5.6067    9.8959 H         1 15U         0.0336
     39 H          -2.1176    4.1048   11.8344 H         1 15U         0.0402
     40 H          -0.3856    3.7891   11.4775 H         1 15U         0.0402
     41 H          -1.1062    1.4211   10.8876 H         1 15U         0.0519
     42 H          -1.7562   -0.0569    9.0385 H         1 15U         0.0488
     43 H          -2.7719    0.8022    6.9835 H         1 15U         0.0545
     44 H          -0.8282    7.5639   11.3075 H         1 15U         0.0234
     45 H          -0.0176    6.2577   12.2366 H         1 15U         0.0234
     46 H          -1.7884    6.5105   12.4007 H         1 15U         0.0234
     47 H          -2.8079    5.5390    7.6605 H         1 15U         0.1734
     48 H          -2.5392    4.2822    4.3279 H         1 15U         0.1704
     49 H          -1.1321    1.9650    5.3933 H         1 15U         0.0753
     50 H          -1.1381    2.1526    3.0461 H         1 15U         0.0309
     51 H           0.5172    2.6345    3.5505 H         1 15U         0.0309
     52 H          -1.1702    4.9742    3.4908 H         1 15U         0.0301
     53 H          -1.3455    4.0796    1.9430 H         1 15U         0.0301
     54 H           0.9275    4.2873    1.4131 H         1 15U         0.0689
     55 H           1.4065    4.5591    3.1229 H         1 15U         0.0689
     56 H          -0.3377    6.6742    2.3304 H         1 15U         0.2642
     57 H           2.1571    8.4455    0.4589 H         1 15U         0.2615
     58 H           0.4428    7.9591    0.3737 H         1 15U         0.2615
     59 H           2.8912    6.1420    3.0094 H         1 15U         0.2615
     60 H           3.5073    7.4340    1.9446 H         1 15U         0.2615
     61 H           0.3695    1.1925    5.5676 H         1 15U         0.0728
     62 H           1.7274   -0.3156    7.0777 H         1 15U         0.0308
     63 H           0.4375    0.6435    7.8796 H         1 15U         0.0308
     64 H           3.4238    1.2697    7.8672 H         1 15U         0.0301
     65 H           2.7642    3.1171    9.3864 H         1 15U         0.0287
     66 H           1.0372    2.6803    9.1553 H         1 15U         0.0287
     67 H           1.6923    4.5555    7.6702 H         1 15U         0.0524
     68 H           2.9888    3.5396    6.9534 H         1 15U         0.0524
     69 H           2.8480   -0.6239    9.3360 H         1 15U         0.0232
     70 H           1.5831    0.3738   10.1305 H         1 15U         0.0232
     71 H           3.3139    0.8300   10.2824 H         1 15U         0.0232
@<TRIPOS>BOND
     1    1    2 2  
     2    1    3 2  
     3   11    1 1  
     4    1   15 am 
     5    5    4 1  
     6    4   14 1  
     7    6    5 1  
     8    5   13 1  
     9    7    6 1  
    10    8    7 ar 
    11    7   12 ar 
    12    9    8 ar 
    13   10    9 ar 
    14   10   11 ar 
    15   11   12 ar 
    16   12   14 1  
    17   15   16 1  
    18   16   17 1  
    19   16   19 1  
    20   17   18 2  
    21   17   26 am 
    22   19   20 1  
    23   20   21 1  
    24   21   22 1  
    25   22   23 ar 
    26   23   24 ar 
    27   23   25 ar 
    28   26   27 1  
    29   26   31 1  
    30   27   28 1  
    31   27   32 1  
    32   28   29 1  
    33   29   30 1  
    34   29   35 1  
    35   30   31 1  
    36   32   33 ar 
    37   32   34 ar 
    38    4   36 1  
    39    4   37 1  
    40    5   38 1  
    41    6   39 1  
    42    6   40 1  
    43    8   41 1  
    44    9   42 1  
    45   10   43 1  
    46   13   44 1  
    47   13   45 1  
    48   13   46 1  
    49   14   47 1  
    50   15   48 1  
    51   16   49 1  
    52   19   50 1  
    53   19   51 1  
    54   20   52 1  
    55   20   53 1  
    56   21   54 1  
    57   21   55 1  
    58   22   56 1  
    59   24   57 1  
    60   24   58 1  
    61   25   59 1  
    62   25   60 1  
    63   27   61 1  
    64   28   62 1  
    65   28   63 1  
    66   29   64 1  
    67   30   65 1  
    68   30   66 1  
    69   31   67 1  
    70   31   68 1  
    71   35   69 1  
    72   35   70 1  
    73   35   71 1  
@<TRIPOS>SUBSTRUCTURE
     1 15U         1

