### 
### Created by X-TOOL on Mon Sep 10 21:13:17 2018
### 

@<TRIPOS>MOLECULE
4rpn_ligand
   13    13     1     0     0
SMALL
GAST_HUCK


@<TRIPOS>ATOM
      1 O1         48.5720   79.9620   76.1920 O.3       1 PCI        -0.3311
      2 C1         49.3480   80.2310   77.3130 C.ar      1 PCI         0.1175
      3 C2         50.2570   81.2710   77.2880 C.ar      1 PCI         0.0828
      4 CL1        50.4850   82.2530   75.8610 Cl        1 PCI        -0.0779
      5 C3         51.0010   81.5220   78.4220 C.ar      1 PCI         0.0604
      6 CL2        52.1430   82.8250   78.4380 Cl        1 PCI        -0.0719
      7 C4         50.8540   80.7620   79.5710 C.ar      1 PCI         0.0573
      8 CL3        51.8640   81.1500   80.9470 Cl        1 PCI        -0.0795
      9 C5         49.9410   79.7240   79.5860 C.ar      1 PCI         0.0604
     10 CL4        49.6900   78.7480   81.0150 Cl        1 PCI        -0.0719
     11 C6         49.1800   79.4620   78.4570 C.ar      1 PCI         0.0828
     12 CL5        48.0320   78.1410   78.4830 Cl        1 PCI        -0.0779
     13 H          48.0452   80.7243   75.9825 H         1 PCI         0.2491
@<TRIPOS>BOND
     1    1    2 1  
     2    2    3 ar 
     3    2   11 ar 
     4    3    4 1  
     5    3    5 ar 
     6    5    6 1  
     7    5    7 ar 
     8    7    8 1  
     9    7    9 ar 
    10    9   10 1  
    11    9   11 ar 
    12   11   12 1  
    13    1   13 1  
@<TRIPOS>SUBSTRUCTURE
     1 PCI         1

