### 
### Created by X-TOOL on Mon Sep 10 21:13:17 2018
### 

@<TRIPOS>MOLECULE
4rpo_ligand
   13    13     1     0     0
SMALL
GAST_HUCK


@<TRIPOS>ATOM
      1 CL2       -33.0760  -10.9110   20.0170 Cl        1 T6C        -0.0787
      2 C2        -31.8930  -12.1830   20.0640 C.ar      1 T6C         0.0690
      3 C1        -30.5600  -11.8800   20.2480 C.ar      1 T6C         0.1168
      4 C6        -29.6380  -12.9020   20.3280 C.ar      1 T6C         0.0690
      5 CL6       -27.9720  -12.5140   20.5490 Cl        1 T6C        -0.0787
      6 O1        -30.1580  -10.5400   20.3720 O.3       1 T6C        -0.3310
      7 C3        -32.2970  -13.4920   19.9250 C.ar      1 T6C        -0.0424
      8 C4        -31.3550  -14.4890   20.0020 C.ar      1 T6C         0.0297
      9 CL4       -31.9020  -16.1140   19.8720 Cl        1 T6C        -0.0809
     10 C5        -30.0230  -14.2210   20.2090 C.ar      1 T6C        -0.0424
     11 H         -29.7521  -10.4096   21.2209 H         1 T6C         0.2491
     12 H         -33.3408  -13.7318   19.7576 H         1 T6C         0.0603
     13 H         -29.2965  -15.0226   20.2767 H         1 T6C         0.0603
@<TRIPOS>BOND
     1    1    2 1  
     2    2    3 ar 
     3    2    7 ar 
     4    3    4 ar 
     5    3    6 1  
     6    4    5 1  
     7    4   10 ar 
     8    7    8 ar 
     9    8    9 1  
    10    8   10 ar 
    11    6   11 1  
    12    7   12 1  
    13   10   13 1  
@<TRIPOS>SUBSTRUCTURE
     1 T6C         1

