### 
### Created by X-TOOL on Mon Sep 10 21:13:25 2018
### 

@<TRIPOS>MOLECULE
4rpv_ligand
   51    55     1     0     0
SMALL
GAST_HUCK


@<TRIPOS>ATOM
      1 C14       -20.6940  -40.8390    3.8350 C.ar      1 3UR        -0.0310
      2 C8        -20.4090  -39.7290    4.6490 C.ar      1 3UR        -0.0651
      3 C9        -20.1780  -38.4880    3.9390 C.ar      1 3UR        -0.0310
      4 C10       -20.2390  -38.3760    2.4770 C.ar      1 3UR         0.1400
      5 C11       -20.5410  -39.5070    1.6370 C.ar      1 3UR         0.0504
      6 C12       -20.7530  -40.7400    2.4030 C.ar      1 3UR         0.1400
      7 F1        -19.9350  -37.1600    2.0300 F         1 3UR        -0.1825
      8 F2        -20.9650  -41.9700    1.9190 F         1 3UR        -0.1825
      9 C15       -15.5670  -34.7880   -1.5610 C.ar      1 3UR         0.0511
     10 C16       -16.3820  -35.5390   -0.6120 C.ar      1 3UR         0.1317
     11 N2        -17.3200  -36.4200   -1.1290 N.ar      1 3UR        -0.2692
     12 C17       -17.6000  -36.7290   -2.4840 C.ar      1 3UR         0.0951
     13 C13       -16.7700  -35.9920   -3.3830 C.ar      1 3UR         0.0301
     14 N3        -15.8300  -35.0850   -2.8830 N.ar      1 3UR        -0.2920
     15 N4        -16.1740  -35.5480    0.7310 N.pl3     1 3UR        -0.2842
     16 C18       -14.9650  -34.8950    1.2440 C.3       1 3UR         0.0737
     17 C19       -14.0280  -35.9200    1.8640 C.3       1 3UR        -0.0036
     18 C20       -14.8910  -36.8780    2.6990 C.3       1 3UR        -0.0060
     19 C21       -16.2530  -37.3840    2.2110 C.3       1 3UR        -0.0274
     20 C22       -17.0490  -36.2210    1.6870 C.3       1 3UR         0.0315
     21 C1        -20.6240  -39.4630    0.0710 C.ar      1 3UR        -0.0170
     22 C2        -19.6770  -38.5880   -0.6150 C.ar      1 3UR        -0.0432
     23 C3        -19.5530  -38.5060   -2.0630 C.ar      1 3UR         0.0347
     24 C4        -20.4040  -39.3190   -2.8820 C.ar      1 3UR         0.0212
     25 C5        -21.3960  -40.2220   -2.3380 C.ar      1 3UR        -0.0527
     26 C6        -21.5060  -40.2930   -0.8500 C.ar      1 3UR        -0.0555
     27 C7        -18.6560  -37.7240   -2.8520 C.2       1 3UR         0.1530
     28 N1        -18.9790  -38.0800   -4.1470 N.pl3     1 3UR        -0.2159
     29 N5        -20.0230  -39.0310   -4.1120 N.2       1 3UR        -0.2579
     30 N6        -13.1360  -35.0210    2.5890 N.4       1 3UR         0.2222
     31 H1        -20.8750  -41.8001    4.3026 H         1 3UR         0.0571
     32 H2        -20.3653  -39.7970    5.7300 H         1 3UR         0.0600
     33 H3        -19.9490  -37.5989    4.5153 H         1 3UR         0.0571
     34 H4        -14.8221  -34.0622   -1.2554 H         1 3UR         0.0768
     35 H5        -16.8687  -36.1357   -4.4529 H         1 3UR         0.0792
     36 H6        -15.2491  -34.1559    2.0075 H         1 3UR         0.0579
     37 H7        -14.4489  -34.3871    0.4160 H         1 3UR         0.0579
     38 H8        -13.4699  -36.4976    1.1125 H         1 3UR         0.0870
     39 H9        -15.0775  -36.3686    3.6559 H         1 3UR         0.0321
     40 H10       -14.2755  -37.7728    2.8737 H         1 3UR         0.0321
     41 H11       -16.7928  -37.8536    3.0465 H         1 3UR         0.0287
     42 H12       -16.1062  -38.1217    1.4084 H         1 3UR         0.0287
     43 H13       -17.9634  -36.5747    1.1882 H         1 3UR         0.0522
     44 H14       -17.3188  -35.5393    2.5071 H         1 3UR         0.0522
     45 H15       -19.0289  -37.9635   -0.0108 H         1 3UR         0.0620
     46 H16       -22.0308  -40.8201   -2.9818 H         1 3UR         0.0620
     47 H17       -22.2399  -40.9592   -0.4110 H         1 3UR         0.0611
     48 H18       -18.5318  -37.7122   -4.9988 H         1 3UR         0.2987
     49 H19       -12.6291  -34.4487    1.9320 H         1 3UR         0.1997
     50 H20       -12.4846  -35.5625    3.1354 H         1 3UR         0.1997
     51 H21       -13.6781  -34.4307    3.2004 H         1 3UR         0.1997
@<TRIPOS>BOND
     1    1    2 ar 
     2    6    1 ar 
     3    3    2 ar 
     4    4    3 ar 
     5    5    4 ar 
     6    4    7 1  
     7    5    6 ar 
     8   21    5 1  
     9    6    8 1  
    10   10    9 ar 
    11   14    9 ar 
    12   11   10 ar 
    13   10   15 1  
    14   12   11 ar 
    15   12   13 ar 
    16   27   12 1  
    17   13   14 ar 
    18   15   16 1  
    19   15   20 1  
    20   16   17 1  
    21   17   18 1  
    22   17   30 1  
    23   19   18 1  
    24   20   19 1  
    25   22   21 ar 
    26   21   26 ar 
    27   23   22 ar 
    28   23   24 ar 
    29   23   27 2  
    30   24   25 ar 
    31   24   29 2  
    32   25   26 ar 
    33   27   28 1  
    34   28   29 1  
    35    1   31 1  
    36    2   32 1  
    37    3   33 1  
    38    9   34 1  
    39   13   35 1  
    40   16   36 1  
    41   16   37 1  
    42   17   38 1  
    43   18   39 1  
    44   18   40 1  
    45   19   41 1  
    46   19   42 1  
    47   20   43 1  
    48   20   44 1  
    49   22   45 1  
    50   25   46 1  
    51   26   47 1  
    52   28   48 1  
    53   30   49 1  
    54   30   50 1  
    55   30   51 1  
@<TRIPOS>SUBSTRUCTURE
     1 3UR         1

