### 
### Created by X-TOOL on Mon Sep 10 21:13:16 2018
### 

@<TRIPOS>MOLECULE
4rqk_ligand
   32    35     1     0     0
SMALL
GAST_HUCK


@<TRIPOS>ATOM
      1 CL1       -15.8170   17.6650  -14.3270 Cl        1 R1S        -0.0809
      2 C02       -14.4680   17.9080  -13.2630 C.ar      1 R1S         0.0257
      3 C03       -14.6450   17.5310  -11.9410 C.ar      1 R1S        -0.0410
      4 C04       -13.6040   17.7090  -11.0470 C.ar      1 R1S         0.0464
      5 C05       -12.3900   18.2470  -11.4560 C.ar      1 R1S         0.0031
      6 C06       -12.2110   18.6310  -12.8030 C.ar      1 R1S        -0.0652
      7 C07       -13.2560   18.4590  -13.7010 C.ar      1 R1S        -0.0633
      8 N08       -11.3770   18.3830  -10.4170 N.2       1 R1S        -0.3164
      9 C09       -11.8870   17.9230   -9.2160 C.2       1 R1S         0.2068
     10 N10       -11.2450   17.9170   -7.9530 N.am      1 R1S        -0.1412
     11 S11        -9.9020   17.0690   -7.6820 S.o2      1 R1S         0.0911
     12 O12        -8.8300   17.4520   -8.5560 O.2       1 R1S        -0.1456
     13 O13        -9.3320   17.2910   -6.3840 O.2       1 R1S        -0.1456
     14 C14       -10.5250   15.4390   -7.9250 C.2       1 R1S         0.1171
     15 C15       -11.6570   14.8660   -7.2680 C.2       1 R1S         0.0241
     16 S16       -11.8720   13.3310   -7.8410 S.3       1 R1S        -0.0359
     17 C17       -10.6240   13.2300   -8.9360 C.ar      1 R1S         0.0396
     18 C18       -10.1620   12.2350   -9.7870 C.ar      1 R1S        -0.0498
     19 C19        -9.0530   12.5060  -10.5920 C.ar      1 R1S        -0.0705
     20 C20        -8.3800   13.7430  -10.5620 C.ar      1 R1S        -0.0717
     21 C21        -8.8340   14.7240   -9.7160 C.ar      1 R1S        -0.0648
     22 C22        -9.9530   14.4560   -8.9040 C.ar      1 R1S         0.0018
     23 S23       -13.4460   17.3740   -9.4340 S.3       1 R1S         0.0266
     24 H         -15.5851   17.1030  -11.6123 H         1 R1S         0.0558
     25 H         -11.2692   19.0549  -13.1320 H         1 R1S         0.0523
     26 H         -13.1347   18.7501  -14.7381 H         1 R1S         0.0548
     27 H         -11.6373   18.4554   -7.2072 H         1 R1S         0.2385
     28 H         -12.2736   15.3575   -6.5169 H         1 R1S         0.0818
     29 H         -10.6514   11.2685   -9.8259 H         1 R1S         0.0570
     30 H          -8.6968   11.7349  -11.2655 H         1 R1S         0.0566
     31 H          -7.5183   13.9173  -11.1961 H         1 R1S         0.0556
     32 H          -8.3399   15.6879   -9.6737 H         1 R1S         0.0571
@<TRIPOS>BOND
     1    1    2 1  
     2    2    3 ar 
     3    2    7 ar 
     4    3    4 ar 
     5    4    5 ar 
     6    4   23 1  
     7    5    6 ar 
     8    5    8 1  
     9    6    7 ar 
    10    8    9 2  
    11    9   10 1  
    12    9   23 1  
    13   10   11 am 
    14   11   12 2  
    15   11   13 2  
    16   11   14 1  
    17   14   15 2  
    18   14   22 1  
    19   15   16 1  
    20   16   17 1  
    21   17   18 ar 
    22   17   22 ar 
    23   18   19 ar 
    24   19   20 ar 
    25   20   21 ar 
    26   21   22 ar 
    27    3   24 1  
    28    6   25 1  
    29    7   26 1  
    30   10   27 1  
    31   15   28 1  
    32   18   29 1  
    33   19   30 1  
    34   20   31 1  
    35   21   32 1  
@<TRIPOS>SUBSTRUCTURE
     1 R1S         1

