### 
### Created by X-TOOL on Mon Sep 10 21:13:16 2018
### 

@<TRIPOS>MOLECULE
4rqv_ligand
   32    35     1     0     0
SMALL
GAST_HUCK


@<TRIPOS>ATOM
      1 CL1       -16.7030   16.8390  -14.1770 Cl        1 R2S        -0.0809
      2 C02       -15.3440   17.4660  -13.3210 C.ar      1 R2S         0.0257
      3 C03       -15.2530   17.2270  -11.9600 C.ar      1 R2S        -0.0410
      4 C04       -14.1710   17.7170  -11.2560 C.ar      1 R2S         0.0464
      5 C05       -13.2010   18.4350  -11.9220 C.ar      1 R2S         0.0031
      6 C06       -13.2980   18.6800  -13.2960 C.ar      1 R2S        -0.0652
      7 C07       -14.3750   18.1940  -13.9920 C.ar      1 R2S        -0.0633
      8 N08       -12.0830   18.9030  -11.1440 N.2       1 R2S        -0.3164
      9 C09       -12.2790   18.5170   -9.8430 C.2       1 R2S         0.2071
     10 N10       -11.3760   18.8680   -8.8380 N.am      1 R2S        -0.1369
     11 S11       -11.2830   18.0210   -7.4700 S.o2      1 R2S         0.1128
     12 O12       -12.4570   18.1020   -6.7160 O.2       1 R2S        -0.1405
     13 O13       -10.2890   18.5440   -6.6320 O.2       1 R2S        -0.1405
     14 C14       -10.9700   16.3810   -8.0320 C.2       1 R2S         0.1743
     15 C15       -10.0000   15.9450   -8.9870 C.2       1 R2S        -0.0328
     16 C16       -10.1760   14.4470   -9.1500 C.ar      1 R2S        -0.0235
     17 C17        -9.4250   13.6190   -9.9870 C.ar      1 R2S        -0.0666
     18 C18        -9.7120   12.2640  -10.0130 C.ar      1 R2S        -0.0718
     19 C19       -10.7230   11.6990   -9.2190 C.ar      1 R2S        -0.0705
     20 C20       -11.4700   12.5280   -8.3920 C.ar      1 R2S        -0.0498
     21 C21       -11.1870   13.8960   -8.3660 C.ar      1 R2S         0.0396
     22 S22       -11.8540   15.1290   -7.5090 S.3       1 R2S        -0.0084
     23 S23       -13.6990   17.6550   -9.6710 S.3       1 R2S         0.0266
     24 H         -16.0246   16.6601  -11.4517 H         1 R2S         0.0558
     25 H         -12.5288   19.2488  -13.8058 H         1 R2S         0.0523
     26 H         -14.4672   18.3776  -15.0564 H         1 R2S         0.0548
     27 H         -10.7770   19.6580   -8.9690 H         1 R2S         0.2389
     28 H          -9.2716   16.5705   -9.5009 H         1 R2S         0.0443
     29 H          -8.6333   14.0284  -10.6040 H         1 R2S         0.0570
     30 H          -9.1374   11.6188  -10.6677 H         1 R2S         0.0556
     31 H         -10.9173   10.6330   -9.2510 H         1 R2S         0.0566
     32 H         -12.2620   12.1191   -7.7750 H         1 R2S         0.0570
@<TRIPOS>BOND
     1    1    2 1  
     2    2    3 ar 
     3    2    7 ar 
     4    3    4 ar 
     5    4    5 ar 
     6    4   23 1  
     7    5    6 ar 
     8    5    8 1  
     9    6    7 ar 
    10    8    9 2  
    11    9   10 1  
    12    9   23 1  
    13   10   11 am 
    14   11   12 2  
    15   11   13 2  
    16   11   14 1  
    17   14   15 2  
    18   14   22 1  
    19   15   16 1  
    20   16   17 ar 
    21   16   21 ar 
    22   17   18 ar 
    23   18   19 ar 
    24   19   20 ar 
    25   20   21 ar 
    26   21   22 1  
    27    3   24 1  
    28    6   25 1  
    29    7   26 1  
    30   10   27 1  
    31   15   28 1  
    32   17   29 1  
    33   18   30 1  
    34   19   31 1  
    35   20   32 1  
@<TRIPOS>SUBSTRUCTURE
     1 R2S         1

