### 
### Created by X-TOOL on Mon Sep 10 21:13:24 2018
### 

@<TRIPOS>MOLECULE
4rqz_ligand
   61    62     1     0     0
SMALL
GAST_HUCK


@<TRIPOS>ATOM
      1 N          19.7510  -10.8500   11.1310 N.4       1 TYR         0.2392
      2 CA         20.2530  -11.1050   12.4740 C.3       1 TYR         0.0730
      3 C          19.0770  -11.3610   13.4250 C.2       1 TYR         0.2286
      4 O          19.1470  -12.2510   14.2760 O.2       1 TYR        -0.3905
      5 CB         21.1160   -9.9350   12.9570 C.3       1 TYR         0.0365
      6 CG         22.0900  -10.3040   14.0530 C.ar      1 TYR        -0.0460
      7 CD1        23.2160  -11.0790   13.7800 C.ar      1 TYR        -0.0684
      8 CD2        21.8880   -9.8760   15.3590 C.ar      1 TYR        -0.0684
      9 CE1        24.1100  -11.4170   14.7840 C.ar      1 TYR        -0.0398
     10 CE2        22.7730  -10.2080   16.3660 C.ar      1 TYR        -0.0398
     11 CZ         23.8800  -10.9780   16.0760 C.ar      1 TYR         0.0805
     12 OH         24.7510  -11.2990   17.0900 O.3       1 TYR        -0.3376
     13 N          17.9950  -10.5940   13.2740 N.am      1 GLN        -0.2607
     14 CA         16.7500  -10.8770   13.9990 C.3       1 GLN         0.1331
     15 C          15.5190  -10.1890   13.3790 C.2       1 GLN         0.2036
     16 O          15.1500   -9.0730   13.7510 O.2       1 GLN        -0.3944
     17 CB         16.8940  -10.4950   15.4820 C.3       1 GLN         0.0045
     18 CG         17.2430   -9.0480   15.8120 C.3       1 GLN         0.0412
     19 CD         17.1290   -8.7860   17.3020 C.2       1 GLN         0.1737
     20 OE1        16.9130   -9.7100   18.0860 O.2       1 GLN        -0.3973
     21 NE2        17.2650   -7.5280   17.7010 N.am      1 GLN        -0.3009
     22 N          14.8890  -10.8820   12.4310 N.am      1 PHE        -0.2677
     23 CA         13.6610  -10.4120   11.7880 C.3       1 PHE         0.1039
     24 C          12.4920  -11.3930   11.9380 C.2       1 PHE         0.0621
     25 O          11.3260  -11.0590   11.7080 O.co2     1 PHE        -0.5664
     26 CB         13.9140  -10.1520   10.3040 C.3       1 PHE         0.0159
     27 CG         14.4240  -11.3500    9.5490 C.ar      1 PHE        -0.0392
     28 CD1        15.7430  -11.7630    9.6570 C.ar      1 PHE        -0.0602
     29 CD2        13.5810  -12.0460    8.7090 C.ar      1 PHE        -0.0602
     30 CE1        16.1950  -12.8600    8.9480 C.ar      1 PHE        -0.0686
     31 CE2        14.0270  -13.1350    8.0030 C.ar      1 PHE        -0.0686
     32 CZ         15.3330  -13.5440    8.1220 C.ar      1 PHE        -0.0687
     33 OXT        12.6770  -12.5510   12.2970 O.co2     1 PHE        -0.5664
     34 H1         20.5261  -10.6822   10.5088 H         1 TYR         0.2017
     35 H2         19.1501  -10.0408   11.1449 H         1 TYR         0.2017
     36 H3         19.2294  -11.6504   10.8096 H         1 TYR         0.2017
     37 H4         20.8810  -12.0077   12.4475 H         1 TYR         0.1120
     38 H5         20.4495   -9.1467   13.3369 H         1 TYR         0.0486
     39 H6         21.6884   -9.5499   12.1002 H         1 TYR         0.0486
     40 H7         23.3952  -11.4225   12.7676 H         1 TYR         0.0530
     41 H8         21.0198   -9.2703   15.5921 H         1 TYR         0.0530
     42 H9         24.9821  -12.0202   14.5589 H         1 TYR         0.0525
     43 H10        22.5984   -9.8651   17.3794 H         1 TYR         0.0525
     44 H11        25.4588  -11.8286   16.7422 H         1 TYR         0.2458
     45 H12        18.0332   -9.8102   12.6541 H         1 GLN         0.1885
     46 H13        16.5793  -11.9624   13.9459 H         1 GLN         0.0801
     47 H14        17.6851  -11.1289   15.9089 H         1 GLN         0.0337
     48 H15        15.9367  -10.7221   15.9739 H         1 GLN         0.0337
     49 H16        16.5525   -8.3804   15.2758 H         1 GLN         0.0504
     50 H17        18.2747   -8.8444   15.4892 H         1 GLN         0.0504
     51 H18        17.1984   -7.3017   18.6728 H         1 GLN         0.1814
     52 H19        17.4341   -6.8061   17.0300 H         1 GLN         0.1814
     53 H20        15.2717  -11.7610   12.1467 H         1 PHE         0.1877
     54 H21        13.3722   -9.4641   12.2656 H         1 PHE         0.0749
     55 H22        14.6575   -9.3461   10.2162 H         1 PHE         0.0467
     56 H23        12.9683   -9.8302    9.8434 H         1 PHE         0.0467
     57 H24        16.4251  -11.2214   10.3024 H         1 PHE         0.0557
     58 H25        12.5499  -11.7281    8.6046 H         1 PHE         0.0557
     59 H26        17.2262  -13.1807    9.0425 H         1 PHE         0.0599
     60 H27        13.3483  -13.6728    7.3510 H         1 PHE         0.0599
     61 H28        15.6843  -14.4053    7.5654 H         1 PHE         0.0559
@<TRIPOS>BOND
     1    1    2 1  
     2    2    3 1  
     3    2    5 1  
     4    3    4 2  
     5    3   13 am 
     6    5    6 1  
     7    6    7 ar 
     8    6    8 ar 
     9    7    9 ar 
    10    8   10 ar 
    11    9   11 ar 
    12   10   11 ar 
    13   11   12 1  
    14   13   14 1  
    15   14   15 1  
    16   14   17 1  
    17   15   16 2  
    18   15   22 am 
    19   17   18 1  
    20   18   19 1  
    21   19   20 2  
    22   19   21 am 
    23   22   23 1  
    24   23   24 1  
    25   23   26 1  
    26   24   25 ar 
    27   24   33 ar 
    28   26   27 1  
    29   27   28 ar 
    30   27   29 ar 
    31   28   30 ar 
    32   29   31 ar 
    33   30   32 ar 
    34   31   32 ar 
    35    1   34 1  
    36    1   35 1  
    37    1   36 1  
    38    2   37 1  
    39    5   38 1  
    40    5   39 1  
    41    7   40 1  
    42    8   41 1  
    43    9   42 1  
    44   10   43 1  
    45   12   44 1  
    46   13   45 1  
    47   14   46 1  
    48   17   47 1  
    49   17   48 1  
    50   18   49 1  
    51   18   50 1  
    52   21   51 1  
    53   21   52 1  
    54   22   53 1  
    55   23   54 1  
    56   26   55 1  
    57   26   56 1  
    58   28   57 1  
    59   29   58 1  
    60   30   59 1  
    61   31   60 1  
    62   32   61 1  
@<TRIPOS>SUBSTRUCTURE
     1 TYR         1

