### 
### Created by X-TOOL on Mon Sep 10 21:13:23 2018
### 

@<TRIPOS>MOLECULE
4rr6_ligand
   45    47     1     0     0
SMALL
GAST_HUCK


@<TRIPOS>ATOM
      1 O5'        15.3090   -2.4730   -5.8320 O.3       1 A3S        -0.3924
      2 C5'        14.9510   -3.8420   -6.0550 C.3       1 A3S         0.0728
      3 C4'        14.7700   -4.5290   -4.7390 C.3       1 A3S         0.1105
      4 O4'        16.0290   -4.4600   -4.0160 O.3       1 A3S        -0.3371
      5 C1'        15.7310   -3.9270   -2.6910 C.3       1 A3S         0.2007
      6 N9         16.5160   -2.6300   -2.5220 N.pl3     1 A3S        -0.1919
      7 C4         16.3740   -1.7930   -1.4920 C.ar      1 A3S         0.1613
      8 N3         15.5470   -1.8140   -0.4370 N.ar      1 A3S        -0.2714
      9 C2         15.6340   -0.8380    0.4740 C.ar      1 A3S         0.0533
     10 N1         16.5370    0.1200    0.3500 N.ar      1 A3S        -0.2698
     11 C6         17.3920    0.2080   -0.6900 C.ar      1 A3S         0.1298
     12 N6         18.2800    1.2090   -0.7870 N.pl3     1 A3S        -0.3152
     13 C5         17.3150   -0.7930   -1.6490 C.ar      1 A3S         0.1045
     14 N7         17.9690   -1.0290   -2.7940 N.2       1 A3S        -0.2958
     15 C8         17.5020   -2.1690   -3.3270 C.2       1 A3S         0.1123
     16 C2'        14.2210   -4.0000   -2.5010 C.3       1 A3S         0.1355
     17 O2'        13.8330   -5.2990   -2.0720 O.3       1 A3S        -0.3839
     18 C3'        13.7590   -3.7320   -3.9270 C.3       1 A3S         0.1016
     19 N8         12.4300   -4.2550   -4.0930 N.am      1 A3S        -0.2740
     20 N           9.0940   -3.9600   -2.9500 N.4       1 A3S         0.2396
     21 CA         10.0420   -4.1950   -4.0810 C.3       1 A3S         0.0883
     22 CB          9.3970   -3.7480   -5.4180 C.3       1 A3S         0.1041
     23 OG          8.3330   -4.6810   -5.7630 O.3       1 A3S        -0.3870
     24 C          11.3760   -3.5090   -3.8960 C.2       1 A3S         0.2271
     25 O          11.4660   -2.1840   -3.6120 O.2       1 A3S        -0.3908
     26 H1         15.4240   -2.0367   -6.6680 H         1 A3S         0.2095
     27 H2         15.7491   -4.3421   -6.6233 H         1 A3S         0.0584
     28 H3         14.0113   -3.8874   -6.6249 H         1 A3S         0.0584
     29 H4         14.4430   -5.5701   -4.8772 H         1 A3S         0.0644
     30 H5         16.1496   -4.6154   -1.9421 H         1 A3S         0.0996
     31 H6         14.9581   -0.8325    1.3215 H         1 A3S         0.0996
     32 H7         18.9214    1.2523   -1.5918 H         1 A3S         0.1820
     33 H8         18.3203    1.9342   -0.0567 H         1 A3S         0.1820
     34 H9         17.8538   -2.6394   -4.2440 H         1 A3S         0.1349
     35 H10        13.8516   -3.2418   -1.7949 H         1 A3S         0.0673
     36 H11        12.8901   -5.3255   -1.9590 H         1 A3S         0.2101
     37 H12        13.7845   -2.6617   -4.1797 H         1 A3S         0.0610
     38 H13        12.3101   -5.2098   -4.3650 H         1 A3S         0.1858
     39 H14         8.2274   -4.4413   -3.1325 H         1 A3S         0.2016
     40 H15         8.9169   -2.9718   -2.8598 H         1 A3S         0.2016
     41 H16         9.4982   -4.3084   -2.0948 H         1 A3S         0.2016
     42 H17        10.2306   -5.2773   -4.1357 H         1 A3S         0.1122
     43 H18        10.1578   -3.7453   -6.2124 H         1 A3S         0.0640
     44 H19         8.9795   -2.7364   -5.3067 H         1 A3S         0.0640
     45 H20         7.6786   -4.6819   -5.0744 H         1 A3S         0.2099
@<TRIPOS>BOND
     1    2    1 1  
     2    3    2 1  
     3    3    4 1  
     4   18    3 1  
     5    5    4 1  
     6    5    6 1  
     7   16    5 1  
     8    6    7 1  
     9    6   15 1  
    10    7    8 ar 
    11    7   13 ar 
    12    8    9 ar 
    13    9   10 ar 
    14   11   10 ar 
    15   11   12 1  
    16   13   11 ar 
    17   14   13 1  
    18   15   14 2  
    19   16   17 1  
    20   18   16 1  
    21   19   18 1  
    22   24   19 am 
    23   21   20 1  
    24   21   22 1  
    25   21   24 1  
    26   22   23 1  
    27   24   25 2  
    28    1   26 1  
    29    2   27 1  
    30    2   28 1  
    31    3   29 1  
    32    5   30 1  
    33    9   31 1  
    34   12   32 1  
    35   12   33 1  
    36   15   34 1  
    37   16   35 1  
    38   17   36 1  
    39   18   37 1  
    40   19   38 1  
    41   20   39 1  
    42   20   40 1  
    43   20   41 1  
    44   21   42 1  
    45   22   43 1  
    46   22   44 1  
    47   23   45 1  
@<TRIPOS>SUBSTRUCTURE
     1 A3S         1

