### 
### Created by X-TOOL on Mon Sep 10 21:13:24 2018
### 

@<TRIPOS>MOLECULE
4rra_ligand
   48    50     1     0     0
SMALL
GAST_HUCK


@<TRIPOS>ATOM
      1 C          11.9970   -3.1810   -3.8830 C.2       1 A3T         0.2274
      2 N           9.8250   -3.6250   -2.8400 N.4       1 A3T         0.2398
      3 O          11.9820   -1.8440   -3.5440 O.2       1 A3T        -0.3908
      4 N1         17.1530    0.4620    0.5100 N.ar      1 A3T        -0.2698
      5 C2         16.1680   -0.5100    0.6500 C.ar      1 A3T         0.0533
      6 N3         16.0760   -1.5700   -0.2970 N.ar      1 A3T        -0.2714
      7 C4         16.9990   -1.5570   -1.3060 C.ar      1 A3T         0.1613
      8 C5         17.9450   -0.5900   -1.4060 C.ar      1 A3T         0.1045
      9 C6         18.0130    0.4330   -0.4980 C.ar      1 A3T         0.1298
     10 N6         18.9420    1.3810   -0.5550 N.pl3     1 A3T        -0.3152
     11 N7         18.6780   -0.8920   -2.4910 N.2       1 A3T        -0.2958
     12 C8         18.1830   -2.0070   -3.0530 C.2       1 A3T         0.1123
     13 N8         13.1030   -3.9590   -4.0290 N.am      1 A3T        -0.2739
     14 N9         17.1280   -2.4310   -2.3270 N.pl3     1 A3T        -0.1919
     15 CA         10.6350   -3.8600   -4.0920 C.3       1 A3T         0.0909
     16 CB          9.9210   -3.3810   -5.4060 C.3       1 A3T         0.1120
     17 OG          9.1040   -4.4680   -5.9760 O.3       1 A3T        -0.3840
     18 C1'        16.3580   -3.7260   -2.6070 C.3       1 A3T         0.2007
     19 C2'        14.8620   -3.8020   -2.4350 C.3       1 A3T         0.1355
     20 O2'        14.4260   -5.1980   -2.0430 O.3       1 A3T        -0.3839
     21 C3'        14.4160   -3.3860   -3.8090 C.3       1 A3T         0.1016
     22 C4'        15.4570   -3.9490   -4.7560 C.3       1 A3T         0.1105
     23 O4'        16.6440   -4.1970   -3.9250 O.3       1 A3T        -0.3371
     24 C5'        15.7340   -2.8230   -5.7590 C.3       1 A3T         0.0728
     25 O5'        17.0780   -2.9770   -6.2040 O.3       1 A3T        -0.3924
     26 CG2        10.9120   -2.8440   -6.4750 C.3       1 A3T        -0.0314
     27 H1         10.3410   -3.9544   -2.0392 H         1 A3T         0.2016
     28 H2          8.9520   -4.1246   -2.9059 H         1 A3T         0.2016
     29 H3          9.6412   -2.6391   -2.7388 H         1 A3T         0.2016
     30 H4         15.4711   -0.4609    1.4789 H         1 A3T         0.0996
     31 H5         19.6254    1.3867   -1.3256 H         1 A3T         0.1820
     32 H6         18.9789    2.1103    0.1715 H         1 A3T         0.1820
     33 H7         18.5703   -2.4901   -3.9489 H         1 A3T         0.1349
     34 H8         13.0108   -4.9208   -4.2867 H         1 A3T         0.1858
     35 H9         10.8006   -4.9428   -4.1924 H         1 A3T         0.1124
     36 H10         9.2474   -2.5552   -5.1334 H         1 A3T         0.0674
     37 H11         8.6799   -4.1615   -6.7690 H         1 A3T         0.2102
     38 H12        16.7710   -4.4561   -1.8954 H         1 A3T         0.0996
     39 H13        14.5060   -3.0920   -1.6740 H         1 A3T         0.0673
     40 H14        13.4816   -5.2169   -1.9417 H         1 A3T         0.2101
     41 H15        14.3679   -2.2909   -3.9007 H         1 A3T         0.0610
     42 H16        15.1185   -4.8660   -5.2605 H         1 A3T         0.0644
     43 H17        15.6080   -1.8448   -5.2719 H         1 A3T         0.0584
     44 H18        15.0435   -2.8996   -6.6118 H         1 A3T         0.0584
     45 H19        17.6657   -2.9149   -5.4602 H         1 A3T         0.2095
     46 H20        10.3522   -2.5259   -7.3669 H         1 A3T         0.0258
     47 H21        11.6201   -3.6392   -6.7509 H         1 A3T         0.0258
     48 H22        11.4653   -1.9866   -6.0643 H         1 A3T         0.0258
@<TRIPOS>BOND
     1    1    3 2  
     2   13    1 am 
     3    1   15 1  
     4   15    2 1  
     5    5    4 ar 
     6    9    4 ar 
     7    6    5 ar 
     8    7    6 ar 
     9    7    8 ar 
    10   14    7 1  
    11    8    9 ar 
    12   11    8 1  
    13    9   10 1  
    14   12   11 2  
    15   14   12 1  
    16   21   13 1  
    17   18   14 1  
    18   15   16 1  
    19   16   17 1  
    20   16   26 1  
    21   19   18 1  
    22   18   23 1  
    23   19   20 1  
    24   19   21 1  
    25   21   22 1  
    26   22   23 1  
    27   22   24 1  
    28   24   25 1  
    29    2   27 1  
    30    2   28 1  
    31    2   29 1  
    32    5   30 1  
    33   10   31 1  
    34   10   32 1  
    35   12   33 1  
    36   13   34 1  
    37   15   35 1  
    38   16   36 1  
    39   17   37 1  
    40   18   38 1  
    41   19   39 1  
    42   20   40 1  
    43   21   41 1  
    44   22   42 1  
    45   24   43 1  
    46   24   44 1  
    47   25   45 1  
    48   26   46 1  
    49   26   47 1  
    50   26   48 1  
@<TRIPOS>SUBSTRUCTURE
     1 A3T         1

