### 
### Created by X-TOOL on Mon Sep 10 21:13:24 2018
### 

@<TRIPOS>MOLECULE
4rrf_ligand
   45    47     1     0     0
SMALL
GAST_HUCK


@<TRIPOS>ATOM
      1 O5'         9.1110   -2.9260    8.5920 O.3       1 A3S        -0.3924
      2 C5'         9.0740   -4.2610    8.0790 C.3       1 A3S         0.0728
      3 C4'         9.7990   -4.3240    6.7820 C.3       1 A3S         0.1105
      4 O4'         9.1590   -3.3630    6.0490 O.3       1 A3S        -0.3371
      5 C1'        10.1810   -2.5780    5.3500 C.3       1 A3S         0.2007
      6 N9         10.0100   -1.1430    5.6860 N.pl3     1 A3S        -0.1919
      7 C4         10.8330   -0.1590    5.3750 C.ar      1 A3S         0.1613
      8 N3         12.1230   -0.1130    4.9270 N.ar      1 A3S        -0.2714
      9 C2         12.7150    1.0860    4.7330 C.ar      1 A3S         0.0533
     10 N1         12.1400    2.2630    5.0090 N.ar      1 A3S        -0.2698
     11 C6         10.8350    2.2390    5.4550 C.ar      1 A3S         0.1298
     12 N6         10.2410    3.4070    5.7170 N.pl3     1 A3S        -0.3152
     13 C5         10.1770    1.0260    5.6870 C.ar      1 A3S         0.1045
     14 N7          8.8820    0.6950    6.1110 N.2       1 A3S        -0.2958
     15 C8          8.7850   -0.6460    6.0780 C.2       1 A3S         0.1123
     16 C2'        11.5000   -3.2430    5.5180 C.3       1 A3S         0.1355
     17 O2'        11.6180   -4.2450    4.4880 O.3       1 A3S        -0.3839
     18 C3'        11.2590   -3.8120    6.9450 C.3       1 A3S         0.1016
     19 N8         12.1520   -4.9360    7.1330 N.am      1 A3S        -0.2740
     20 N          15.7330   -5.6500    7.7290 N.4       1 A3S         0.2396
     21 CA         14.3200   -6.0330    7.4930 C.3       1 A3S         0.0883
     22 CB         13.9240   -7.0190    8.6120 C.3       1 A3S         0.1041
     23 OG         14.7060   -8.2030    8.3800 O.3       1 A3S        -0.3870
     24 C          13.4210   -4.7770    7.4790 C.2       1 A3S         0.2271
     25 O          13.9670   -3.5540    7.7000 O.2       1 A3S        -0.3908
     26 H1          8.6967   -2.3379    7.9715 H         1 A3S         0.2095
     27 H2          8.0277   -4.5648    7.9273 H         1 A3S         0.0584
     28 H3          9.5529   -4.9417    8.7982 H         1 A3S         0.0584
     29 H4          9.7630   -5.3246    6.3264 H         1 A3S         0.0644
     30 H5          9.9642   -2.6447    4.2737 H         1 A3S         0.0996
     31 H6         13.7204    1.0955    4.3277 H         1 A3S         0.0996
     32 H7          9.2671    3.4258    6.0517 H         1 A3S         0.1820
     33 H8         10.7571    4.2884    5.5843 H         1 A3S         0.1820
     34 H9          7.8995   -1.2329    6.3175 H         1 A3S         0.1349
     35 H10        12.3551   -2.5520    5.4815 H         1 A3S         0.0673
     36 H11        12.4547   -4.6870    4.5722 H         1 A3S         0.2101
     37 H12        11.3719   -3.0646    7.7442 H         1 A3S         0.0610
     38 H13        11.7997   -5.8620    6.9974 H         1 A3S         0.1858
     39 H14        16.3087   -6.4774    7.7359 H         1 A3S         0.2016
     40 H15        15.8098   -5.1799    8.6173 H         1 A3S         0.2016
     41 H16        16.0410   -5.0325    6.9942 H         1 A3S         0.2016
     42 H17        14.2326   -6.5372    6.5193 H         1 A3S         0.1122
     43 H18        12.8503   -7.2513    8.5566 H         1 A3S         0.0640
     44 H19        14.1565   -6.5928    9.5991 H         1 A3S         0.0640
     45 H20        15.6296   -7.9844    8.4218 H         1 A3S         0.2099
@<TRIPOS>BOND
     1    2    1 1  
     2    3    2 1  
     3    3    4 1  
     4   18    3 1  
     5    5    4 1  
     6    5    6 1  
     7   16    5 1  
     8    6    7 1  
     9    6   15 1  
    10    7    8 ar 
    11    7   13 ar 
    12    8    9 ar 
    13    9   10 ar 
    14   11   10 ar 
    15   11   12 1  
    16   13   11 ar 
    17   14   13 1  
    18   15   14 2  
    19   16   17 1  
    20   18   16 1  
    21   19   18 1  
    22   24   19 am 
    23   21   20 1  
    24   21   22 1  
    25   21   24 1  
    26   22   23 1  
    27   24   25 2  
    28    1   26 1  
    29    2   27 1  
    30    2   28 1  
    31    3   29 1  
    32    5   30 1  
    33    9   31 1  
    34   12   32 1  
    35   12   33 1  
    36   15   34 1  
    37   16   35 1  
    38   17   36 1  
    39   18   37 1  
    40   19   38 1  
    41   20   39 1  
    42   20   40 1  
    43   20   41 1  
    44   21   42 1  
    45   22   43 1  
    46   22   44 1  
    47   23   45 1  
@<TRIPOS>SUBSTRUCTURE
     1 A3S         1

