### 
### Created by X-TOOL on Mon Sep 10 21:13:24 2018
### 

@<TRIPOS>MOLECULE
4rrg_ligand
   48    50     1     0     0
SMALL
GAST_HUCK


@<TRIPOS>ATOM
      1 C          -1.9720    7.6120   41.4790 C.2       1 A3T         0.2274
      2 N           0.3640    7.7710   40.8430 N.4       1 A3T         0.2398
      3 O          -1.7800    6.3410   41.9310 O.2       1 A3T        -0.3908
      4 N1         -4.0000    3.8280   47.5900 N.ar      1 A3T        -0.2698
      5 C2         -3.0610    4.6840   47.1890 C.ar      1 A3T         0.0533
      6 N3         -3.3950    5.8090   46.5480 N.ar      1 A3T        -0.2714
      7 C4         -4.6870    6.1070   46.2810 C.ar      1 A3T         0.1613
      8 C5         -5.6850    5.2340   46.6890 C.ar      1 A3T         0.1045
      9 C6         -5.3120    4.0710   47.3580 C.ar      1 A3T         0.1298
     10 N6         -6.2530    3.2140   47.7610 N.pl3     1 A3T        -0.3152
     11 N7         -6.8590    5.7520   46.3080 N.2       1 A3T        -0.2958
     12 C8         -6.6180    6.9100   45.6940 C.2       1 A3T         0.1123
     13 N8         -2.9420    8.4380   41.8680 N.am      1 A3T        -0.2739
     14 N9         -5.2960    7.1270   45.6670 N.pl3     1 A3T        -0.1919
     15 CA         -0.9950    8.1530   40.4470 C.3       1 A3T         0.0909
     16 CB         -1.3130    7.5930   39.0590 C.3       1 A3T         0.1120
     17 OG         -0.4800    8.2790   38.1350 O.3       1 A3T        -0.3840
     18 C1'        -4.6240    8.3340   45.0940 C.3       1 A3T         0.2007
     19 C2'        -3.3970    8.0180   44.2430 C.3       1 A3T         0.1355
     20 O2'        -2.4270    9.0460   44.4510 O.3       1 A3T        -0.3839
     21 C3'        -3.9780    8.0580   42.8390 C.3       1 A3T         0.1016
     22 C4'        -5.0520    9.1580   42.9200 C.3       1 A3T         0.1105
     23 O4'        -5.5270    9.1580   44.2880 O.3       1 A3T        -0.3371
     24 C5'        -6.2480    8.8780   41.9870 C.3       1 A3T         0.0728
     25 O5'        -6.7950    7.5820   42.2680 O.3       1 A3T        -0.3924
     26 CG2        -2.7850    7.7680   38.6520 C.3       1 A3T        -0.0314
     27 H1          0.5647    8.1438   41.7577 H         1 A3T         0.2016
     28 H2          1.0244    8.1406   40.1772 H         1 A3T         0.2016
     29 H3          0.4372    6.7659   40.8664 H         1 A3T         0.2016
     30 H4         -2.0171    4.4665   47.3841 H         1 A3T         0.0996
     31 H5         -7.2461    3.4151   47.5759 H         1 A3T         0.1820
     32 H6         -5.9859    2.3517   48.2570 H         1 A3T         0.1820
     33 H7         -7.3751    7.5743   45.2800 H         1 A3T         0.1349
     34 H8         -2.9665    9.3599   41.4813 H         1 A3T         0.1858
     35 H9         -1.0710    9.2499   40.4159 H         1 A3T         0.1124
     36 H10        -1.0750    6.5192   39.0455 H         1 A3T         0.0674
     37 H11         0.4308    8.1276   38.3585 H         1 A3T         0.2102
     38 H12        -4.2879    8.9406   45.9478 H         1 A3T         0.0996
     39 H13        -2.9665    7.0330   44.4764 H         1 A3T         0.0673
     40 H14        -1.6560    8.8630   43.9270 H         1 A3T         0.2101
     41 H15        -4.4176    7.0887   42.5611 H         1 A3T         0.0610
     42 H16        -4.6092   10.1317   42.6637 H         1 A3T         0.0644
     43 H17        -5.9099    8.9119   40.9408 H         1 A3T         0.0584
     44 H18        -7.0221    9.6429   42.1472 H         1 A3T         0.0584
     45 H19        -7.0883    7.5523   43.1711 H         1 A3T         0.2095
     46 H20        -2.9407    7.3449   37.6486 H         1 A3T         0.0258
     47 H21        -3.0379    8.8385   38.6418 H         1 A3T         0.0258
     48 H22        -3.4297    7.2458   39.3742 H         1 A3T         0.0258
@<TRIPOS>BOND
     1    1    3 2  
     2   13    1 am 
     3    1   15 1  
     4   15    2 1  
     5    5    4 ar 
     6    9    4 ar 
     7    6    5 ar 
     8    7    6 ar 
     9    7    8 ar 
    10   14    7 1  
    11    8    9 ar 
    12   11    8 1  
    13    9   10 1  
    14   12   11 2  
    15   14   12 1  
    16   21   13 1  
    17   18   14 1  
    18   15   16 1  
    19   16   17 1  
    20   16   26 1  
    21   19   18 1  
    22   18   23 1  
    23   19   20 1  
    24   19   21 1  
    25   21   22 1  
    26   22   23 1  
    27   22   24 1  
    28   24   25 1  
    29    2   27 1  
    30    2   28 1  
    31    2   29 1  
    32    5   30 1  
    33   10   31 1  
    34   10   32 1  
    35   12   33 1  
    36   13   34 1  
    37   15   35 1  
    38   16   36 1  
    39   17   37 1  
    40   18   38 1  
    41   19   39 1  
    42   20   40 1  
    43   21   41 1  
    44   22   42 1  
    45   24   43 1  
    46   24   44 1  
    47   25   45 1  
    48   26   46 1  
    49   26   47 1  
    50   26   48 1  
@<TRIPOS>SUBSTRUCTURE
     1 A3T         1

