### 
### Created by X-TOOL on Mon Sep 10 21:13:18 2018
### 

@<TRIPOS>MOLECULE
4rrn_ligand
   48    52     1     0     0
SMALL
GAST_HUCK


@<TRIPOS>ATOM
      1 C1         25.2580   14.3130    8.9900 C.ar      1 3UW         0.0398
      2 C2         26.1010   13.2200    8.6550 C.ar      1 3UW         0.1313
      3 C3         27.5050   13.3480    8.7960 C.ar      1 3UW         0.0030
      4 C4         28.0840   14.5560    9.2580 C.ar      1 3UW        -0.0321
      5 C5         27.2430   15.6530    9.5970 C.ar      1 3UW         0.0080
      6 C6         25.8380   15.5220    9.4470 C.ar      1 3UW        -0.0346
      7 C7         23.7370   14.2120    8.8220 C.3       1 3UW         0.2034
      8 C8         23.2910   12.7610    8.6210 C.3       1 3UW         0.1186
      9 C9         24.2480   11.9930    7.6880 C.3       1 3UW         0.1134
     10 O10        25.5750   12.0230    8.2060 O.3       1 3UW        -0.2851
     11 O11        21.9360   12.6930    8.1770 O.3       1 3UW        -0.3793
     12 C12        21.4060   11.3690    8.0390 C.3       1 3UW         0.0471
     13 C13        22.2840   10.5030    7.1110 C.3       1 3UW        -0.0266
     14 C14        23.7670   10.5310    7.5580 C.3       1 3UW        -0.0166
     15 C15        27.7810   16.8960   10.0260 C.ar      1 3UW         0.0488
     16 C16        27.3340   17.5990   11.1780 C.ar      1 3UW         0.2208
     17 N17        27.8280   18.7990   11.5590 N.ar      1 3UW        -0.2657
     18 C18        28.7950   19.3720   10.8100 C.ar      1 3UW         0.0039
     19 C19        29.3070   18.7590    9.6360 C.ar      1 3UW        -0.0422
     20 C20        28.7840   17.5050    9.2230 C.ar      1 3UW        -0.0399
     21 F21        26.3790   17.0780   11.9700 F         1 3UW        -0.1521
     22 N22        22.9580   14.7530    9.9300 N.pl3     1 3UW        -0.2677
     23 C23        22.2650   15.7610    9.5280 C.cat     1 3UW         0.3204
     24 N24        22.4280   16.0760    8.2160 N.am      1 3UW        -0.2187
     25 C25        23.3120   15.1800    7.6950 C.2       1 3UW         0.2094
     26 O26        23.7240   15.1310    6.5290 O.2       1 3UW        -0.3657
     27 C27        21.7820   17.1650    7.4750 C.3       1 3UW         0.0236
     28 N28        21.3980   16.4910   10.3080 N.pl3     1 3UW        -0.2548
     29 H          28.1455   12.5097    8.5468 H         1 3UW         0.0635
     30 H          29.1603   14.6440    9.3526 H         1 3UW         0.0840
     31 H          25.1967   16.3625    9.6865 H         1 3UW         0.0796
     32 H          23.3348   12.2682    9.6035 H         1 3UW         0.0554
     33 H          24.2405   12.4662    6.6950 H         1 3UW         0.0690
     34 H          20.3925   11.4318    7.6161 H         1 3UW         0.0559
     35 H          21.3606   10.8967    9.0314 H         1 3UW         0.0559
     36 H          22.2113   10.8901    6.0839 H         1 3UW         0.0288
     37 H          21.9204    9.4652    7.1384 H         1 3UW         0.0288
     38 H          23.8645   10.0268    8.5308 H         1 3UW         0.0297
     39 H          24.3832   10.0091    6.8111 H         1 3UW         0.0297
     40 H          29.1938   20.3326   11.1156 H         1 3UW         0.0789
     41 H          30.0885   19.2429    9.0614 H         1 3UW         0.0646
     42 H          29.1402   17.0245    8.3190 H         1 3UW         0.0710
     43 H          22.9617   14.3835   10.8914 H         1 3UW         0.3096
     44 H          21.1196   17.7259    8.1508 H         1 3UW         0.0484
     45 H          21.1912   16.7454    6.6474 H         1 3UW         0.0484
     46 H          22.5507   17.8403    7.0713 H         1 3UW         0.0484
     47 H          21.2744   16.2524   11.3023 H         1 3UW         0.3199
     48 H          20.8726   17.2761    9.8976 H         1 3UW         0.3199
@<TRIPOS>BOND
     1    1    2 ar 
     2    1    6 ar 
     3    1    7 1  
     4    2    3 ar 
     5    2   10 1  
     6    3    4 ar 
     7    4    5 ar 
     8    5    6 ar 
     9    5   15 1  
    10    7    8 1  
    11    7   22 1  
    12    7   25 1  
    13    8    9 1  
    14    8   11 1  
    15    9   10 1  
    16    9   14 1  
    17   11   12 1  
    18   12   13 1  
    19   13   14 1  
    20   15   16 ar 
    21   15   20 ar 
    22   16   17 ar 
    23   16   21 1  
    24   17   18 ar 
    25   18   19 ar 
    26   19   20 ar 
    27   22   23 ar 
    28   23   24 ar 
    29   23   28 ar 
    30   24   25 am 
    31   24   27 1  
    32   25   26 2  
    33    3   29 1  
    34    4   30 1  
    35    6   31 1  
    36    8   32 1  
    37    9   33 1  
    38   12   34 1  
    39   12   35 1  
    40   13   36 1  
    41   13   37 1  
    42   14   38 1  
    43   14   39 1  
    44   18   40 1  
    45   19   41 1  
    46   20   42 1  
    47   22   43 1  
    48   27   44 1  
    49   27   45 1  
    50   27   46 1  
    51   28   47 1  
    52   28   48 1  
@<TRIPOS>SUBSTRUCTURE
     1 3UW         1

