### 
### Created by X-TOOL on Mon Sep 10 21:13:18 2018
### 

@<TRIPOS>MOLECULE
4rro_ligand
   51    55     1     0     0
SMALL
GAST_HUCK


@<TRIPOS>ATOM
      1 C1         26.9660   15.4910    9.6340 C.ar      1 3UX         0.0080
      2 C2         27.6890   14.2810    9.4550 C.ar      1 3UX        -0.0321
      3 C3         27.0290   13.1140    8.9880 C.ar      1 3UX         0.0030
      4 C4         25.6410   13.1240    8.6950 C.ar      1 3UX         0.1317
      5 C5         24.9200   14.3370    8.8690 C.ar      1 3UX         0.0398
      6 C6         25.5810   15.5080    9.3220 C.ar      1 3UX        -0.0346
      7 C7         27.5930   16.6950   10.0520 C.ar      1 3UX         0.0488
      8 O8         25.0180   11.9600    8.2500 O.3       1 3UX        -0.2822
      9 C9         23.5980   11.8290    8.3330 C.3       1 3UX         0.1211
     10 C10        23.0120   13.1420    7.7570 C.3       1 3UX         0.1211
     11 C11        23.4330   14.4010    8.5240 C.3       1 3UX         0.2036
     12 C12        23.1550   10.6320    7.4490 C.3       1 3UX        -0.0140
     13 C13        21.6430   10.6940    7.1010 C.3       1 3UX        -0.0263
     14 C14        21.1690   12.1000    6.6390 C.3       1 3UX         0.0471
     15 O15        21.6020   13.1060    7.5750 O.3       1 3UX        -0.3790
     16 N16        22.5820   14.7050    9.6740 N.pl3     1 3UX        -0.2677
     17 C17        21.9890   15.8360    9.4760 C.cat     1 3UX         0.3204
     18 N18        22.2750   16.4260    8.2870 N.am      1 3UX        -0.2187
     19 C19        23.1550   15.6220    7.6460 C.2       1 3UX         0.2094
     20 O20        23.6700   15.7870    6.5380 O.2       1 3UX        -0.3657
     21 N21        21.1140   16.4680   10.3360 N.pl3     1 3UX        -0.2548
     22 C22        23.1750   11.5710    9.8070 C.3       1 3UX        -0.0279
     23 C23        21.7760   17.6970    7.7620 C.3       1 3UX         0.0236
     24 C24        28.7080   17.1820    9.3140 C.ar      1 3UX        -0.0399
     25 C25        29.3010   18.4030    9.7250 C.ar      1 3UX        -0.0422
     26 C26        28.7600   19.1020   10.8350 C.ar      1 3UX         0.0039
     27 N27        27.6900   18.6440   11.5210 N.ar      1 3UX        -0.2657
     28 C28        27.1210   17.4780   11.1390 C.ar      1 3UX         0.2208
     29 F29        26.0610   17.0630   11.8640 F         1 3UX        -0.1521
     30 H          28.7497   14.2488    9.6761 H         1 3UX         0.0840
     31 H          27.5954   12.1996    8.8530 H         1 3UX         0.0635
     32 H          25.0202   16.4292    9.4315 H         1 3UX         0.0796
     33 H          23.4461   13.2405    6.7511 H         1 3UX         0.0557
     34 H          23.3565    9.6964    7.9912 H         1 3UX         0.0299
     35 H          23.7353   10.6466    6.5146 H         1 3UX         0.0299
     36 H          21.0683   10.4094    7.9947 H         1 3UX         0.0288
     37 H          21.4424    9.9761    6.2921 H         1 3UX         0.0288
     38 H          20.0708   12.1106    6.5772 H         1 3UX         0.0559
     39 H          21.5942   12.3190    5.6484 H         1 3UX         0.0559
     40 H          22.4727   14.1119   10.5090 H         1 3UX         0.3096
     41 H          20.8829   16.0383   11.2431 H         1 3UX         0.3199
     42 H          20.6920   17.3694   10.0707 H         1 3UX         0.3199
     43 H          22.0809   11.4714    9.8624 H         1 3UX         0.0263
     44 H          23.4985   12.4146   10.4344 H         1 3UX         0.0263
     45 H          23.6462   10.6445   10.1669 H         1 3UX         0.0263
     46 H          21.0757   18.1423    8.4840 H         1 3UX         0.0484
     47 H          21.2568   17.5213    6.8083 H         1 3UX         0.0484
     48 H          22.6202   18.3831    7.5990 H         1 3UX         0.0484
     49 H          29.0934   16.6349    8.4613 H         1 3UX         0.0710
     50 H          30.1602   18.7988    9.1957 H         1 3UX         0.0646
     51 H          29.2203   20.0340   11.1426 H         1 3UX         0.0789
@<TRIPOS>BOND
     1    1    2 ar 
     2    1    6 ar 
     3    1    7 1  
     4    2    3 ar 
     5    3    4 ar 
     6    4    5 ar 
     7    4    8 1  
     8    5    6 ar 
     9    5   11 1  
    10    7   24 ar 
    11    7   28 ar 
    12    8    9 1  
    13    9   10 1  
    14    9   12 1  
    15    9   22 1  
    16   10   11 1  
    17   10   15 1  
    18   11   16 1  
    19   11   19 1  
    20   12   13 1  
    21   13   14 1  
    22   14   15 1  
    23   16   17 ar 
    24   17   18 ar 
    25   17   21 ar 
    26   18   19 am 
    27   18   23 1  
    28   19   20 2  
    29   24   25 ar 
    30   25   26 ar 
    31   26   27 ar 
    32   27   28 ar 
    33   28   29 1  
    34    2   30 1  
    35    3   31 1  
    36    6   32 1  
    37   10   33 1  
    38   12   34 1  
    39   12   35 1  
    40   13   36 1  
    41   13   37 1  
    42   14   38 1  
    43   14   39 1  
    44   16   40 1  
    45   21   41 1  
    46   21   42 1  
    47   22   43 1  
    48   22   44 1  
    49   22   45 1  
    50   23   46 1  
    51   23   47 1  
    52   23   48 1  
    53   24   49 1  
    54   25   50 1  
    55   26   51 1  
@<TRIPOS>SUBSTRUCTURE
     1 3UX         1

