### 
### Created by X-TOOL on Mon Sep 10 21:13:24 2018
### 

@<TRIPOS>MOLECULE
4rrq_ligand
   45    47     1     0     0
SMALL
GAST_HUCK


@<TRIPOS>ATOM
      1 O5'        25.9600    6.5750   -3.4680 O.3       1 A3S        -0.3924
      2 C5'        25.3730    7.8040   -3.9060 C.3       1 A3S         0.0728
      3 C4'        24.2520    7.5170   -4.9090 C.3       1 A3S         0.1105
      4 O4'        24.7680    6.7550   -6.0150 O.3       1 A3S        -0.3371
      5 C1'        23.9440    5.5940   -6.2190 C.3       1 A3S         0.2007
      6 N9         24.7300    4.4050   -5.8140 N.pl3     1 A3S        -0.1919
      7 C4         24.2760    3.2420   -5.3520 C.ar      1 A3S         0.1613
      8 N3         23.0570    2.7900   -5.0190 N.ar      1 A3S        -0.2714
      9 C2         22.8880    1.5550   -4.5760 C.ar      1 A3S         0.0533
     10 N1         23.9120    0.7260   -4.4510 N.ar      1 A3S        -0.2698
     11 C6         25.1590    1.1070   -4.7640 C.ar      1 A3S         0.1298
     12 N6         26.1770    0.2560   -4.6570 N.pl3     1 A3S        -0.3152
     13 C5         25.3720    2.4000   -5.2280 C.ar      1 A3S         0.1045
     14 N7         26.4490    3.0790   -5.6090 N.2       1 A3S        -0.2958
     15 C8         26.0500    4.2980   -5.9600 C.2       1 A3S         0.1123
     16 C2'        22.6540    5.8450   -5.4350 C.3       1 A3S         0.1355
     17 O2'        21.7750    6.6620   -6.2130 O.3       1 A3S        -0.3839
     18 C3'        23.1950    6.6350   -4.2460 C.3       1 A3S         0.1016
     19 N8         22.1690    7.4800   -3.6160 N.am      1 A3S        -0.2740
     20 N          19.4280    7.3890   -1.1960 N.4       1 A3S         0.2396
     21 CA         20.4260    8.0990   -2.0090 C.3       1 A3S         0.0883
     22 CB         21.1340    9.1480   -1.1480 C.3       1 A3S         0.1041
     23 OG         20.1810   10.1080   -0.6830 O.3       1 A3S        -0.3870
     24 C          21.4540    7.1070   -2.5590 C.2       1 A3S         0.2271
     25 O          21.5730    5.8980   -1.9490 O.2       1 A3S        -0.3908
     26 H1         26.6541    6.7607   -2.8465 H         1 A3S         0.2095
     27 H2         26.1429    8.4250   -4.3872 H         1 A3S         0.0584
     28 H3         24.9587    8.3398   -3.0392 H         1 A3S         0.0584
     29 H4         23.8094    8.4608   -5.2600 H         1 A3S         0.0644
     30 H5         23.6903    5.4911   -7.2844 H         1 A3S         0.0996
     31 H6         21.8931    1.2160   -4.3107 H         1 A3S         0.0996
     32 H7         27.1304    0.5604   -4.9004 H         1 A3S         0.1820
     33 H8         26.0113   -0.7068   -4.3308 H         1 A3S         0.1820
     34 H9         26.7056    5.0919   -6.3146 H         1 A3S         0.1349
     35 H10        22.1542    4.9137   -5.1302 H         1 A3S         0.0673
     36 H11        20.9745    6.8173   -5.7256 H         1 A3S         0.2101
     37 H12        23.6363    5.9659   -3.4926 H         1 A3S         0.0610
     38 H13        21.9998    8.3858   -4.0045 H         1 A3S         0.1858
     39 H14        18.7554    8.0489   -0.8379 H         1 A3S         0.2016
     40 H15        19.8879    6.9273   -0.4270 H         1 A3S         0.2016
     41 H16        18.9563    6.7041   -1.7656 H         1 A3S         0.2016
     42 H17        19.9203    8.5987   -2.8484 H         1 A3S         0.1122
     43 H18        21.9029    9.6563   -1.7483 H         1 A3S         0.0640
     44 H19        21.6079    8.6553   -0.2862 H         1 A3S         0.0640
     45 H20        20.6226   10.7579   -0.1490 H         1 A3S         0.2099
@<TRIPOS>BOND
     1    2    1 1  
     2    3    2 1  
     3    3    4 1  
     4   18    3 1  
     5    5    4 1  
     6    5    6 1  
     7   16    5 1  
     8    6    7 1  
     9    6   15 1  
    10    7    8 ar 
    11    7   13 ar 
    12    8    9 ar 
    13    9   10 ar 
    14   11   10 ar 
    15   11   12 1  
    16   13   11 ar 
    17   14   13 1  
    18   15   14 2  
    19   16   17 1  
    20   18   16 1  
    21   19   18 1  
    22   24   19 am 
    23   21   20 1  
    24   21   22 1  
    25   21   24 1  
    26   22   23 1  
    27   24   25 2  
    28    1   26 1  
    29    2   27 1  
    30    2   28 1  
    31    3   29 1  
    32    5   30 1  
    33    9   31 1  
    34   12   32 1  
    35   12   33 1  
    36   15   34 1  
    37   16   35 1  
    38   17   36 1  
    39   18   37 1  
    40   19   38 1  
    41   20   39 1  
    42   20   40 1  
    43   20   41 1  
    44   21   42 1  
    45   22   43 1  
    46   22   44 1  
    47   23   45 1  
@<TRIPOS>SUBSTRUCTURE
     1 A3S         1

