### 
### Created by X-TOOL on Mon Sep 10 21:13:24 2018
### 

@<TRIPOS>MOLECULE
4rrr_ligand
   48    50     1     0     0
SMALL
GAST_HUCK


@<TRIPOS>ATOM
      1 C          -7.9850    4.1970   14.1550 C.2       1 A3T         0.2274
      2 N          -7.9310    2.0520   12.9710 N.4       1 A3T         0.2398
      3 O          -9.2100    4.4690   13.6320 O.2       1 A3T        -0.3908
      4 N1        -14.0350    7.2120   16.6140 N.ar      1 A3T        -0.2698
      5 C2        -13.3870    6.0640   16.6980 C.ar      1 A3T         0.0533
      6 N3        -12.1200    6.0040   17.0710 N.ar      1 A3T        -0.2714
      7 C4        -11.4460    7.1210   17.3760 C.ar      1 A3T         0.1613
      8 C5        -12.0910    8.3470   17.2970 C.ar      1 A3T         0.1045
      9 C6        -13.4250    8.3700   16.9070 C.ar      1 A3T         0.1298
     10 N6        -14.0870    9.5210   16.8460 N.pl3     1 A3T        -0.3152
     11 N7        -11.2160    9.2880   17.6320 N.2       1 A3T        -0.2958
     12 C8        -10.0640    8.6840   17.9140 C.2       1 A3T         0.1123
     13 N8         -7.5020    4.7720   15.2530 N.am      1 A3T        -0.2739
     14 N9        -10.1990    7.3670   17.7680 N.pl3     1 A3T        -0.1919
     15 CA         -7.1000    3.1680   13.4470 C.3       1 A3T         0.0909
     16 CB         -6.3950    3.8210   12.2560 C.3       1 A3T         0.1120
     17 OG         -5.4170    2.9180   11.7330 O.3       1 A3T        -0.3840
     18 C1'        -9.1510    6.3770   18.1070 C.3       1 A3T         0.2007
     19 C2'        -9.0640    5.1800   17.1580 C.3       1 A3T         0.1355
     20 O2'        -8.3280    4.1320   17.7950 O.3       1 A3T        -0.3839
     21 C3'        -8.2330    5.7850   16.0290 C.3       1 A3T         0.1016
     22 C4'        -7.2290    6.6450   16.7970 C.3       1 A3T         0.1105
     23 O4'        -7.8810    7.0450   18.0150 O.3       1 A3T        -0.3371
     24 C5'        -6.8700    7.8670   15.9470 C.3       1 A3T         0.0728
     25 O5'        -8.0610    8.5560   15.5560 O.3       1 A3T        -0.3924
     26 CG2        -5.7620    5.1590   12.6440 C.3       1 A3T        -0.0314
     27 H1         -8.3959    1.6211   13.7548 H         1 A3T         0.2016
     28 H2         -7.3475    1.3711   12.5107 H         1 A3T         0.2016
     29 H3         -8.6193    2.3988   12.3214 H         1 A3T         0.2016
     30 H4        -13.9086    5.1455   16.4543 H         1 A3T         0.0996
     31 H5        -13.6073   10.4037   17.0734 H         1 A3T         0.1820
     32 H6        -15.0797    9.5302   16.5713 H         1 A3T         0.1820
     33 H7         -9.1491    9.1902   18.2182 H         1 A3T         0.1349
     34 H8         -6.5925    4.5007   15.5678 H         1 A3T         0.1858
     35 H9         -6.3467    2.7882   14.1529 H         1 A3T         0.1124
     36 H10        -7.1436    4.0139   11.4734 H         1 A3T         0.0674
     37 H11        -4.9782    3.3218   10.9934 H         1 A3T         0.2102
     38 H12        -9.3245    6.0132   19.1305 H         1 A3T         0.0996
     39 H13       -10.0491    4.8250   16.8210 H         1 A3T         0.0673
     40 H14        -8.2709    3.3858   17.2098 H         1 A3T         0.2101
     41 H15        -8.8595    6.3883   15.3556 H         1 A3T         0.0610
     42 H16        -6.3194    6.0694   17.0236 H         1 A3T         0.0644
     43 H17        -6.3268    7.5392   15.0484 H         1 A3T         0.0584
     44 H18        -6.2327    8.5448   16.5339 H         1 A3T         0.0584
     45 H19        -7.8297    9.3121   15.0295 H         1 A3T         0.2095
     46 H20        -5.2658    5.5981   11.7660 H         1 A3T         0.0258
     47 H21        -5.0213    4.9969   13.4409 H         1 A3T         0.0258
     48 H22        -6.5439    5.8439   13.0040 H         1 A3T         0.0258
@<TRIPOS>BOND
     1    1    3 2  
     2   13    1 am 
     3    1   15 1  
     4   15    2 1  
     5    5    4 ar 
     6    9    4 ar 
     7    6    5 ar 
     8    7    6 ar 
     9    7    8 ar 
    10   14    7 1  
    11    8    9 ar 
    12   11    8 1  
    13    9   10 1  
    14   12   11 2  
    15   14   12 1  
    16   21   13 1  
    17   18   14 1  
    18   15   16 1  
    19   16   17 1  
    20   16   26 1  
    21   19   18 1  
    22   18   23 1  
    23   19   20 1  
    24   19   21 1  
    25   21   22 1  
    26   22   23 1  
    27   22   24 1  
    28   24   25 1  
    29    2   27 1  
    30    2   28 1  
    31    2   29 1  
    32    5   30 1  
    33   10   31 1  
    34   10   32 1  
    35   12   33 1  
    36   13   34 1  
    37   15   35 1  
    38   16   36 1  
    39   17   37 1  
    40   18   38 1  
    41   19   39 1  
    42   20   40 1  
    43   21   41 1  
    44   22   42 1  
    45   24   43 1  
    46   24   44 1  
    47   25   45 1  
    48   26   46 1  
    49   26   47 1  
    50   26   48 1  
@<TRIPOS>SUBSTRUCTURE
     1 A3T         1

