### 
### Created by X-TOOL on Mon Sep 10 21:13:18 2018
### 

@<TRIPOS>MOLECULE
4rrs_ligand
   48    52     1     0     0
SMALL
GAST_HUCK


@<TRIPOS>ATOM
      1 C1         27.5370   14.5940    9.1390 C.ar      1 3UY        -0.0327
      2 C2         26.8040   15.7900    9.3670 C.ar      1 3UY         0.0077
      3 C3         25.4180   15.8210    9.0760 C.ar      1 3UY        -0.0349
      4 C4         24.7740   14.6590    8.5840 C.ar      1 3UY         0.0323
      5 C5         25.5050   13.4550    8.3610 C.ar      1 3UY         0.1306
      6 C6         26.8940   13.4330    8.6430 C.ar      1 3UY         0.0023
      7 C7         27.4190   16.9770    9.8340 C.ar      1 3UY         0.0484
      8 O8         24.8970   12.3040    7.8940 O.3       1 3UY        -0.2828
      9 C9         23.4790   12.1470    8.0450 C.3       1 3UY         0.1211
     10 C10        22.8600   13.4740    7.5260 C.3       1 3UY         0.1142
     11 C11        23.2890   14.7530    8.2620 C.3       1 3UY         0.1478
     12 C12        23.0020   16.0270    7.4340 C.3       1 3UY         0.0699
     13 O13        22.0630   16.7940    8.2060 O.3       1 3UY        -0.3277
     14 C14        21.8640   16.1540    9.3910 C.cat     1 3UY         0.3440
     15 N15        22.4670   14.9680    9.4340 N.pl3     1 3UY        -0.2681
     16 N16        21.0790   16.7670   10.2980 N.pl3     1 3UY        -0.2513
     17 O17        21.4480   13.4160    7.2950 O.3       1 3UY        -0.3786
     18 C18        21.0720   12.3960    6.3640 C.3       1 3UY         0.0473
     19 C19        21.5090   11.0070    6.8940 C.3       1 3UY        -0.0263
     20 C20        23.0330   10.9570    7.1650 C.3       1 3UY        -0.0140
     21 C21        23.1140   11.8510    9.5280 C.3       1 3UY        -0.0278
     22 C22        27.0070   17.6420   11.0170 C.ar      1 3UY         0.2206
     23 N23        27.5540   18.8010   11.4490 N.ar      1 3UY        -0.2659
     24 C24        28.5570   19.3570   10.7440 C.ar      1 3UY         0.0038
     25 C25        29.0370   18.7720    9.5470 C.ar      1 3UY        -0.0423
     26 C26        28.4600   17.5690    9.0710 C.ar      1 3UY        -0.0401
     27 F27        26.0120   17.1390   11.7670 F         1 3UY        -0.1522
     28 H          28.6006   14.5697    9.3470 H         1 3UY         0.0835
     29 H          24.8512   16.7322    9.2295 H         1 3UY         0.0801
     30 H          27.4652   12.5264    8.4789 H         1 3UY         0.0633
     31 H          23.2947   13.5876    6.5220 H         1 3UY         0.0562
     32 H          22.5684   15.7603    6.4589 H         1 3UY         0.0488
     33 H          23.9283   16.5997    7.2791 H         1 3UY         0.0488
     34 H          22.3621   14.2903   10.2025 H         1 3UY         0.3107
     35 H          20.8996   16.3211   11.2090 H         1 3UY         0.3201
     36 H          20.6582   17.6816   10.0805 H         1 3UY         0.3201
     37 H          21.5607   12.5871    5.3973 H         1 3UY         0.0559
     38 H          19.9801   12.4082    6.2317 H         1 3UY         0.0559
     39 H          21.2538   10.2423    6.1456 H         1 3UY         0.0288
     40 H          20.9723   10.7968    7.8309 H         1 3UY         0.0288
     41 H          23.2757   10.0168    7.6817 H         1 3UY         0.0299
     42 H          23.5703   10.9976    6.2060 H         1 3UY         0.0299
     43 H          22.0242   11.7344    9.6211 H         1 3UY         0.0263
     44 H          23.4489   12.6855   10.1616 H         1 3UY         0.0263
     45 H          23.6107   10.9238    9.8499 H         1 3UY         0.0263
     46 H          29.0085   20.2754   11.1015 H         1 3UY         0.0788
     47 H          29.8434   19.2432    8.9968 H         1 3UY         0.0646
     48 H          28.8037   17.1129    8.1496 H         1 3UY         0.0710
@<TRIPOS>BOND
     1    1    2 ar 
     2    1    6 ar 
     3    2    3 ar 
     4    2    7 1  
     5    3    4 ar 
     6    4    5 ar 
     7    4   11 1  
     8    5    6 ar 
     9    5    8 1  
    10    7   22 ar 
    11    7   26 ar 
    12    8    9 1  
    13    9   10 1  
    14    9   20 1  
    15    9   21 1  
    16   10   11 1  
    17   10   17 1  
    18   11   12 1  
    19   11   15 1  
    20   12   13 1  
    21   13   14 1  
    22   14   15 ar 
    23   14   16 ar 
    24   17   18 1  
    25   18   19 1  
    26   19   20 1  
    27   22   23 ar 
    28   22   27 1  
    29   23   24 ar 
    30   24   25 ar 
    31   25   26 ar 
    32    1   28 1  
    33    3   29 1  
    34    6   30 1  
    35   10   31 1  
    36   12   32 1  
    37   12   33 1  
    38   15   34 1  
    39   16   35 1  
    40   16   36 1  
    41   18   37 1  
    42   18   38 1  
    43   19   39 1  
    44   19   40 1  
    45   20   41 1  
    46   20   42 1  
    47   21   43 1  
    48   21   44 1  
    49   21   45 1  
    50   24   46 1  
    51   25   47 1  
    52   26   48 1  
@<TRIPOS>SUBSTRUCTURE
     1 3UY         1

