### 
### Created by X-TOOL on Mon Sep 10 21:13:22 2018
### 

@<TRIPOS>MOLECULE
4rs0_ligand
   32    32     1     0     0
SMALL
GAST_HUCK


@<TRIPOS>ATOM
      1 C1          9.1830  -22.4180  -72.5250 C.2       1 IBP         0.0481
      2 C2          2.9730  -20.4990  -72.6990 C.3       1 IBP        -0.0199
      3 C3          2.4440  -21.2090  -71.5000 C.3       1 IBP        -0.0379
      4 C4          2.7150  -20.3960  -70.2820 C.3       1 IBP        -0.0610
      5 C5          0.9700  -21.3790  -71.6580 C.3       1 IBP        -0.0610
      6 C6          8.5900  -21.5200  -73.5610 C.3       1 IBP         0.0390
      7 C7          8.7930  -22.1190  -74.9140 C.3       1 IBP        -0.0419
      8 C8          7.1300  -21.2840  -73.3340 C.ar      1 IBP        -0.0341
      9 C9          6.7130  -20.0750  -72.8040 C.ar      1 IBP        -0.0649
     10 C10         5.3650  -19.8310  -72.5990 C.ar      1 IBP        -0.0665
     11 C11         4.4210  -20.7940  -72.9240 C.ar      1 IBP        -0.0493
     12 C12         4.8330  -22.0050  -73.4650 C.ar      1 IBP        -0.0665
     13 C13         6.1870  -22.2480  -73.6680 C.ar      1 IBP        -0.0649
     14 O1          9.9920  -21.9490  -71.6790 O.co2     1 IBP        -0.5663
     15 O2          8.8900  -23.6440  -72.5010 O.co2     1 IBP        -0.5663
     16 H1          2.8484  -19.4156  -72.5552 H         1 IBP         0.0416
     17 H2          2.4026  -20.8195  -73.5833 H         1 IBP         0.0416
     18 H3          2.9266  -22.1929  -71.4052 H         1 IBP         0.0316
     19 H4          2.3246  -20.9200  -69.3971 H         1 IBP         0.0234
     20 H5          2.2208  -19.4178  -70.3766 H         1 IBP         0.0234
     21 H6          3.7997  -20.2498  -70.1726 H         1 IBP         0.0234
     22 H7          0.7644  -21.9791  -72.5567 H         1 IBP         0.0234
     23 H8          0.4959  -20.3917  -71.7600 H         1 IBP         0.0234
     24 H9          0.5631  -21.8916  -70.7739 H         1 IBP         0.0234
     25 H10         9.1088  -20.5510  -73.5184 H         1 IBP         0.0608
     26 H11         9.8663  -22.2925  -75.0809 H         1 IBP         0.0270
     27 H12         8.4093  -21.4304  -75.6812 H         1 IBP         0.0270
     28 H13         8.2530  -23.0753  -74.9764 H         1 IBP         0.0270
     29 H14         7.4441  -19.3165  -72.5485 H         1 IBP         0.0542
     30 H15         5.0461  -18.8824  -72.1824 H         1 IBP         0.0540
     31 H16         4.1004  -22.7593  -73.7285 H         1 IBP         0.0540
     32 H17         6.5082  -23.1940  -74.0888 H         1 IBP         0.0542
@<TRIPOS>BOND
     1    6    1 1  
     2    1   14 ar 
     3    1   15 ar 
     4    2    3 1  
     5   11    2 1  
     6    3    4 1  
     7    3    5 1  
     8    6    7 1  
     9    8    6 1  
    10    9    8 ar 
    11    8   13 ar 
    12   10    9 ar 
    13   10   11 ar 
    14   11   12 ar 
    15   12   13 ar 
    16    2   16 1  
    17    2   17 1  
    18    3   18 1  
    19    4   19 1  
    20    4   20 1  
    21    4   21 1  
    22    5   22 1  
    23    5   23 1  
    24    5   24 1  
    25    6   25 1  
    26    7   26 1  
    27    7   27 1  
    28    7   28 1  
    29    9   29 1  
    30   10   30 1  
    31   12   31 1  
    32   13   32 1  
@<TRIPOS>SUBSTRUCTURE
     1 IBP         1

