### 
### Created by X-TOOL on Mon Sep 10 21:13:21 2018
### 

@<TRIPOS>MOLECULE
4rsc_ligand
   45    46     1     0     0
SMALL
GAST_HUCK


@<TRIPOS>ATOM
      1 O         -35.4840  133.9560    9.0630 O.3       1 A3V        -0.3793
      2 C2        -36.6370  133.2270    9.4840 C.3       1 A3V         0.0915
      3 C1        -37.1620  132.4070    8.3250 C.3       1 A3V         0.0232
      4 C         -36.1940  131.3730    7.7880 C.3       1 A3V        -0.0312
      5 N         -34.8290  131.7640    7.5580 N.4       1 A3V         0.2187
      6 C3        -37.6790  134.1300   10.1220 C.ar      1 A3V        -0.0235
      7 C15       -38.4680  135.0140    9.3870 C.ar      1 A3V        -0.0298
      8 C7        -39.3330  135.8960   10.0500 C.ar      1 A3V         0.0845
      9 C6        -39.4290  135.8720   11.4190 C.ar      1 A3V        -0.0401
     10 C5        -38.6720  134.9730   12.1310 C.ar      1 A3V        -0.0771
     11 C4        -37.7990  134.1220   11.4940 C.ar      1 A3V        -0.0690
     12 O1        -40.1100  136.7970    9.3800 O.3       1 A3V        -0.3195
     13 C8        -40.1020  136.8590    7.9570 C.3       1 A3V         0.0731
     14 C9        -40.9470  138.0730    7.6400 C.3       1 A3V        -0.0132
     15 C14       -40.2710  139.3510    8.1480 C.3       1 A3V        -0.0478
     16 C13       -41.0480  140.6300    7.8310 C.3       1 A3V        -0.0527
     17 C12       -41.4060  140.7270    6.3630 C.3       1 A3V        -0.0530
     18 C11       -42.0800  139.4520    5.8820 C.3       1 A3V        -0.0527
     19 C10       -41.2170  138.2220    6.1590 C.3       1 A3V        -0.0478
     20 H1        -35.1536  134.4711    9.7897 H         1 A3V         0.2130
     21 H2        -36.3154  132.5192   10.2622 H         1 A3V         0.0757
     22 H3        -37.4160  133.0958    7.5058 H         1 A3V         0.0364
     23 H4        -38.0702  131.8842    8.6594 H         1 A3V         0.0364
     24 H5        -36.5966  131.0195    6.8273 H         1 A3V         0.0815
     25 H6        -36.1764  130.5406    8.5068 H         1 A3V         0.0815
     26 H7        -34.3091  130.9765    7.2034 H         1 A3V         0.1994
     27 H8        -34.4181  132.0753    8.4242 H         1 A3V         0.1994
     28 H9        -34.8031  132.5141    6.8852 H         1 A3V         0.1994
     29 H10       -38.4127  135.0193    8.3044 H         1 A3V         0.0479
     30 H11       -40.0952  136.5552   11.9332 H         1 A3V         0.0486
     31 H12       -38.7641  134.9339   13.2104 H         1 A3V         0.0572
     32 H13       -37.1976  133.4361   12.0795 H         1 A3V         0.0465
     33 H14       -40.5447  135.9502    7.5233 H         1 A3V         0.0616
     34 H15       -39.0776  136.9853    7.5767 H         1 A3V         0.0616
     35 H16       -41.9115  137.9568    8.1559 H         1 A3V         0.0327
     36 H17       -39.2768  139.4254    7.6833 H         1 A3V         0.0269
     37 H18       -40.1606  139.2742    9.2397 H         1 A3V         0.0269
     38 H19       -40.4298  141.4980    8.1038 H         1 A3V         0.0265
     39 H20       -41.9745  140.6388    8.4238 H         1 A3V         0.0265
     40 H21       -40.4885  140.8914    5.7789 H         1 A3V         0.0265
     41 H22       -42.0917  141.5743    6.2150 H         1 A3V         0.0265
     42 H23       -42.2564  139.5279    4.7989 H         1 A3V         0.0265
     43 H24       -43.0420  139.3380    6.4031 H         1 A3V         0.0265
     44 H25       -41.7414  137.3255    5.7967 H         1 A3V         0.0269
     45 H26       -40.2597  138.3269    5.6274 H         1 A3V         0.0269
@<TRIPOS>BOND
     1    1    2 1  
     2    2    3 1  
     3    2    6 1  
     4    3    4 1  
     5    4    5 1  
     6    6    7 ar 
     7    6   11 ar 
     8    7    8 ar 
     9    8    9 ar 
    10    8   12 1  
    11    9   10 ar 
    12   10   11 ar 
    13   12   13 1  
    14   13   14 1  
    15   14   15 1  
    16   14   19 1  
    17   15   16 1  
    18   16   17 1  
    19   17   18 1  
    20   18   19 1  
    21    1   20 1  
    22    2   21 1  
    23    3   22 1  
    24    3   23 1  
    25    4   24 1  
    26    4   25 1  
    27    5   26 1  
    28    5   27 1  
    29    5   28 1  
    30    7   29 1  
    31    9   30 1  
    32   10   31 1  
    33   11   32 1  
    34   13   33 1  
    35   13   34 1  
    36   14   35 1  
    37   15   36 1  
    38   15   37 1  
    39   16   38 1  
    40   16   39 1  
    41   17   40 1  
    42   17   41 1  
    43   18   42 1  
    44   18   43 1  
    45   19   44 1  
    46   19   45 1  
@<TRIPOS>SUBSTRUCTURE
     1 A3V         1

