### 
### Created by X-TOOL on Mon Sep 10 21:13:24 2018
### 

@<TRIPOS>MOLECULE
4rse_ligand
   52    53     1     0     0
SMALL
GAST_HUCK


@<TRIPOS>ATOM
      1 O1        -35.5600  133.6960    9.1730 O.3       1 A6V        -0.3793
      2 C9        -36.7100  132.9970    9.6350 C.3       1 A6V         0.0915
      3 C10       -37.2450  132.2400    8.4230 C.3       1 A6V         0.0232
      4 C11       -36.2850  131.1420    7.9850 C.3       1 A6V        -0.0312
      5 N         -35.1080  131.5750    7.2280 N.4       1 A6V         0.2187
      6 C8        -37.6960  133.9690   10.2500 C.ar      1 A6V        -0.0235
      7 C7        -37.9300  133.9630   11.6150 C.ar      1 A6V        -0.0690
      8 C6        -38.8280  134.8490   12.1840 C.ar      1 A6V        -0.0771
      9 C5        -39.5060  135.7660   11.3980 C.ar      1 A6V        -0.0399
     10 C12       -38.3610  134.9000    9.4600 C.ar      1 A6V        -0.0296
     11 C4        -39.2500  135.7960   10.0340 C.ar      1 A6V         0.0869
     12 O         -39.7570  136.6870    9.1250 O.3       1 A6V        -0.3103
     13 C3        -40.6860  137.6790    9.5400 C.3       1 A6V         0.0918
     14 C2        -41.0010  138.6240    8.4080 C.2       1 A6V        -0.0445
     15 C13       -41.3100  137.9930    7.0340 C.3       1 A6V        -0.0896
     16 C14       -40.0090  137.5710    6.3290 C.3       1 A6V        -0.1161
     17 C15       -42.2220  136.7690    7.1960 C.3       1 A6V        -0.1161
     18 C16       -42.0650  138.9940    6.1470 C.3       1 A6V        -0.0998
     19 C17       -41.4090  140.3600    6.1330 C.3       1 A6V        -0.0414
     20 C18       -41.3720  140.9420    7.5270 C.3       1 A6V         0.0276
     21 C1        -41.0480  139.9470    8.6110 C.2       1 A6V         0.0118
     22 C         -40.8060  140.6150    9.9390 C.3       1 A6V         0.0179
     23 H1        -35.1812  134.1896    9.8909 H         1 A6V         0.2130
     24 H2        -36.4191  132.2712   10.4087 H         1 A6V         0.0757
     25 H3        -37.3830  132.9471    7.5918 H         1 A6V         0.0364
     26 H4        -38.2128  131.7863    8.6830 H         1 A6V         0.0364
     27 H5        -36.8472  130.4360    7.3561 H         1 A6V         0.0815
     28 H6        -35.9308  130.6256    8.8894 H         1 A6V         0.0815
     29 H7        -34.5464  130.7720    6.9917 H         1 A6V         0.1994
     30 H8        -34.5639  132.2123    7.7882 H         1 A6V         0.1994
     31 H9        -35.4037  132.0386    6.3832 H         1 A6V         0.1994
     32 H10       -37.4033  133.2557   12.2454 H         1 A6V         0.0465
     33 H11       -39.0022  134.8251   13.2536 H         1 A6V         0.0572
     34 H12       -40.2235  136.4479   11.8400 H         1 A6V         0.0486
     35 H13       -38.1837  134.9255    8.3909 H         1 A6V         0.0479
     36 H14       -40.2554  138.2490   10.3765 H         1 A6V         0.0745
     37 H15       -41.6140  137.1889    9.8695 H         1 A6V         0.0745
     38 H16       -40.2492  137.1242    5.3530 H         1 A6V         0.0034
     39 H17       -39.4784  136.8336    6.9492 H         1 A6V         0.0034
     40 H18       -39.3694  138.4535    6.1807 H         1 A6V         0.0034
     41 H19       -43.1525  137.0693    7.6999 H         1 A6V         0.0034
     42 H20       -41.7081  136.0061    7.7992 H         1 A6V         0.0034
     43 H21       -42.4590  136.3546    6.2050 H         1 A6V         0.0034
     44 H22       -43.0919  139.0988    6.5271 H         1 A6V         0.0074
     45 H23       -42.0926  138.6045    5.1186 H         1 A6V         0.0074
     46 H24       -41.9821  141.0304    5.4757 H         1 A6V         0.0303
     47 H25       -40.3812  140.2644    5.7530 H         1 A6V         0.0303
     48 H26       -42.3586  141.3772    7.7439 H         1 A6V         0.0681
     49 H27       -40.6090  141.7341    7.5485 H         1 A6V         0.0681
     50 H28       -40.5740  139.8518   10.6964 H         1 A6V         0.0646
     51 H29       -41.7073  141.1688   10.2406 H         1 A6V         0.0646
     52 H30       -39.9599  141.3122    9.8500 H         1 A6V         0.0646
@<TRIPOS>BOND
     1    1    2 1  
     2    2    3 1  
     3    2    6 1  
     4    3    4 1  
     5    4    5 1  
     6    6    7 ar 
     7    6   10 ar 
     8    7    8 ar 
     9    8    9 ar 
    10    9   11 ar 
    11   10   11 ar 
    12   11   12 1  
    13   12   13 1  
    14   13   14 1  
    15   14   15 1  
    16   14   21 2  
    17   15   16 1  
    18   15   17 1  
    19   15   18 1  
    20   18   19 1  
    21   19   20 1  
    22   20   21 1  
    23   21   22 1  
    24    1   23 1  
    25    2   24 1  
    26    3   25 1  
    27    3   26 1  
    28    4   27 1  
    29    4   28 1  
    30    5   29 1  
    31    5   30 1  
    32    5   31 1  
    33    7   32 1  
    34    8   33 1  
    35    9   34 1  
    36   10   35 1  
    37   13   36 1  
    38   13   37 1  
    39   16   38 1  
    40   16   39 1  
    41   16   40 1  
    42   17   41 1  
    43   17   42 1  
    44   17   43 1  
    45   18   44 1  
    46   18   45 1  
    47   19   46 1  
    48   19   47 1  
    49   20   48 1  
    50   20   49 1  
    51   22   50 1  
    52   22   51 1  
    53   22   52 1  
@<TRIPOS>SUBSTRUCTURE
     1 A6V         1

