### 
### Created by X-TOOL on Mon Sep 10 21:13:21 2018
### 

@<TRIPOS>MOLECULE
4rsp_ligand
   97    97     1     0     0
SMALL
GAST_HUCK


@<TRIPOS>ATOM
      1 O1        -23.9000  -10.4190    0.6950 O.2       1 BOC        -0.3774
      2 C         -23.3740  -10.5510   -0.3940 C.2       1 BOC         0.3224
      3 O2        -24.1440  -10.8590   -1.5600 O.3       1 BOC        -0.2580
      4 CT        -25.3550  -11.6340   -1.4540 C.3       1 BOC         0.0905
      5 C1        -25.0720  -12.9040   -0.6980 C.3       1 BOC        -0.0320
      6 C2        -25.6900  -11.9250   -2.9310 C.3       1 BOC        -0.0320
      7 C3        -26.4490  -10.8050   -0.8210 C.3       1 BOC        -0.0320
      8 N         -22.2650   -9.7150   -0.7830 N.am      1 SER        -0.2389
      9 CA        -21.6370   -8.8800    0.1830 C.3       1 SER         0.1556
     10 C         -22.6330   -7.7870    0.5420 C.2       1 SER         0.2061
     11 O         -23.5830   -7.4970   -0.1780 O.2       1 SER        -0.3943
     12 CB        -20.3660   -8.3290   -0.4070 C.3       1 SER         0.0843
     13 OG        -20.6730   -7.8110   -1.6740 O.3       1 SER        -0.3903
     14 N         -22.4510   -7.1000    1.8060 N.am      1 VAL        -0.2634
     15 CA        -23.3520   -6.0960    2.2060 C.3       1 VAL         0.1332
     16 C         -22.5800   -4.8030    2.3730 C.2       1 VAL         0.2041
     17 O         -21.6090   -4.7820    3.0890 O.2       1 VAL        -0.3944
     18 CB        -23.8530   -6.4820    3.6040 C.3       1 VAL        -0.0063
     19 CG1       -24.7920   -5.3920    4.2050 C.3       1 VAL        -0.0584
     20 CG2       -24.5480   -7.8610    3.5930 C.3       1 VAL        -0.0584
     21 N         -23.0050   -3.6000    1.7120 N.am      1 LEU        -0.2637
     22 CA        -22.2510   -2.4100    1.9110 C.3       1 LEU         0.1311
     23 C         -22.6360   -1.9090    3.3120 C.2       1 LEU         0.2019
     24 O         -23.7860   -1.8980    3.6950 O.2       1 LEU        -0.3945
     25 CB        -22.6210   -1.3660    0.8610 C.3       1 LEU        -0.0101
     26 CG        -22.1570   -1.8470   -0.5470 C.3       1 LEU        -0.0425
     27 CD1       -22.6500   -0.8510   -1.6160 C.3       1 LEU        -0.0625
     28 CD2       -20.6450   -1.9960   -0.5730 C.3       1 LEU        -0.0625
     29 O1        -25.0900    1.4450    4.1190 O.3       1 CEV        -0.2771
     30 C3        -26.4380    1.3920    4.6340 C.3       1 CEV         0.0740
     31 C5        -27.2660    0.5230    3.7010 C.3       1 CEV        -0.0371
     32 N49       -21.6060   -1.4390    4.2080 N.am      1 CEV        -0.2817
     33 C57       -21.9770   -0.9880    5.5280 C.3       1 CEV         0.0466
     34 C59       -21.2320   -1.8070    6.5820 C.3       1 CEV        -0.0099
     35 C61       -21.7240   -3.2490    6.6510 C.3       1 CEV         0.0525
     36 C63       -21.6680    0.4850    5.6120 C.3       1 CEV        -0.0115
     37 C65       -21.0080   -4.0170    7.6740 C.2       1 CEV         0.1792
     38 O66       -19.7960   -4.0580    7.8660 O.2       1 CEV        -0.3968
     39 N69       -21.9940   -4.8080    8.4230 N.am      1 CEV        -0.2866
     40 C71       -23.2920   -4.5590    7.9250 C.3       1 CEV         0.0332
     41 C73       -23.1500   -3.2360    7.1500 C.3       1 CEV        -0.0129
     42 C82       -22.5860    1.3250    4.6820 C.3       1 CEV         0.0508
     43 C84       -24.0990    1.3500    5.1430 C.2       1 CEV         0.2338
     44 O88       -24.4920    0.9420    6.2370 O.2       1 CEV        -0.3704
     45 H1        -25.9956  -13.4959   -0.6167 H         1 BOC         0.0260
     46 H2        -24.7049  -12.6572    0.3091 H         1 BOC         0.0260
     47 H3        -24.3087  -13.4873   -1.2338 H         1 BOC         0.0260
     48 H4        -26.6121  -12.5221   -2.9870 H         1 BOC         0.0260
     49 H5        -24.8624  -12.4845   -3.3914 H         1 BOC         0.0260
     50 H6        -25.8345  -10.9760   -3.4681 H         1 BOC         0.0260
     51 H7        -27.3672  -11.4060   -0.7453 H         1 BOC         0.0260
     52 H8        -26.6419   -9.9173   -1.4413 H         1 BOC         0.0260
     53 H9        -26.1341  -10.4885    0.1843 H         1 BOC         0.0260
     54 H10       -21.9386   -9.7221   -1.7282 H         1 SER         0.1900
     55 H11       -21.3920   -9.4612    1.0842 H         1 SER         0.0823
     56 H12       -19.6185   -9.1305   -0.5011 H         1 SER         0.0606
     57 H13       -19.9689   -7.5311    0.2377 H         1 SER         0.0606
     58 H14       -21.0190   -8.5047   -2.2231 H         1 SER         0.2097
     59 H15       -21.6809   -7.3411    2.3966 H         1 VAL         0.1883
     60 H16       -24.1786   -5.9855    1.4887 H         1 VAL         0.0802
     61 H17       -22.9729   -6.5585    4.2593 H         1 VAL         0.0343
     62 H18       -25.1273   -5.7073    5.2041 H         1 VAL         0.0234
     63 H19       -25.6657   -5.2590    3.5501 H         1 VAL         0.0234
     64 H20       -24.2455   -4.4407    4.2850 H         1 VAL         0.0234
     65 H21       -23.8668   -8.6115    3.1654 H         1 VAL         0.0234
     66 H22       -25.4621   -7.8061    2.9836 H         1 VAL         0.0234
     67 H23       -24.8100   -8.1478    4.6221 H         1 VAL         0.0234
     68 H24       -23.8140   -3.5992    1.1242 H         1 LEU         0.1883
     69 H25       -21.1730   -2.6221    1.8581 H         1 LEU         0.0800
     70 H26       -22.1267   -0.4135    1.1028 H         1 LEU         0.0315
     71 H27       -23.7116   -1.2225    0.8569 H         1 LEU         0.0315
     72 H28       -22.6059   -2.8300   -0.7523 H         1 LEU         0.0298
     73 H29       -22.3233   -1.1890   -2.6105 H         1 LEU         0.0232
     74 H30       -22.2299    0.1447   -1.4110 H         1 LEU         0.0232
     75 H31       -23.7484   -0.7982   -1.5892 H         1 LEU         0.0232
     76 H32       -20.3338   -2.7124    0.2015 H         1 LEU         0.0232
     77 H33       -20.1769   -1.0197   -0.3787 H         1 LEU         0.0232
     78 H34       -20.3297   -2.3638   -1.5606 H         1 LEU         0.0232
     79 H35       -26.8623    2.4061    4.6735 H         1 CEV         0.0610
     80 H36       -26.4344    0.9564    5.6441 H         1 CEV         0.0610
     81 H37       -28.2997    0.4670    4.0730 H         1 CEV         0.0255
     82 H38       -26.8349   -0.4883    3.6628 H         1 CEV         0.0255
     83 H39       -27.2627    0.9614    2.6922 H         1 CEV         0.0255
     84 H40       -20.6490   -1.4261    3.9181 H         1 CEV         0.1855
     85 H41       -23.0575   -1.1332    5.6742 H         1 CEV         0.0559
     86 H42       -21.3795   -1.3359    7.5650 H         1 CEV         0.0315
     87 H43       -20.1603   -1.8107    6.3342 H         1 CEV         0.0315
     88 H44       -21.6395   -3.7276    5.6642 H         1 CEV         0.0539
     89 H45       -20.6206    0.6458    5.3168 H         1 CEV         0.0313
     90 H46       -21.8120    0.8197    6.6499 H         1 CEV         0.0313
     91 H47       -21.7778   -5.4310    9.1748 H         1 CEV         0.1851
     92 H48       -24.0128   -4.4532    8.7492 H         1 CEV         0.0521
     93 H49       -23.6160   -5.3702    7.2564 H         1 CEV         0.0521
     94 H50       -23.8574   -3.1992    6.3084 H         1 CEV         0.0312
     95 H51       -23.3235   -2.3753    7.8127 H         1 CEV         0.0312
     96 H52       -22.5379    0.8995    3.6688 H         1 CEV         0.0519
     97 H53       -22.2106    2.3588    4.6638 H         1 CEV         0.0519
@<TRIPOS>BOND
     1    2    1 2  
     2    2    3 1  
     3    8    2 am 
     4    3    4 1  
     5    4    5 1  
     6    4    6 1  
     7    4    7 1  
     8    9    8 1  
     9   10    9 1  
    10    9   12 1  
    11   10   11 2  
    12   14   10 am 
    13   12   13 1  
    14   15   14 1  
    15   16   15 1  
    16   15   18 1  
    17   16   17 2  
    18   21   16 am 
    19   18   19 1  
    20   18   20 1  
    21   22   21 1  
    22   23   22 1  
    23   22   25 1  
    24   23   24 2  
    25   32   23 am 
    26   25   26 1  
    27   26   27 1  
    28   26   28 1  
    29   29   30 1  
    30   43   29 1  
    31   30   31 1  
    32   33   32 1  
    33   33   34 1  
    34   36   33 1  
    35   34   35 1  
    36   35   37 1  
    37   35   41 1  
    38   42   36 1  
    39   37   38 2  
    40   37   39 am 
    41   40   39 1  
    42   41   40 1  
    43   42   43 1  
    44   43   44 2  
    45    5   45 1  
    46    5   46 1  
    47    5   47 1  
    48    6   48 1  
    49    6   49 1  
    50    6   50 1  
    51    7   51 1  
    52    7   52 1  
    53    7   53 1  
    54    8   54 1  
    55    9   55 1  
    56   12   56 1  
    57   12   57 1  
    58   13   58 1  
    59   14   59 1  
    60   15   60 1  
    61   18   61 1  
    62   19   62 1  
    63   19   63 1  
    64   19   64 1  
    65   20   65 1  
    66   20   66 1  
    67   20   67 1  
    68   21   68 1  
    69   22   69 1  
    70   25   70 1  
    71   25   71 1  
    72   26   72 1  
    73   27   73 1  
    74   27   74 1  
    75   27   75 1  
    76   28   76 1  
    77   28   77 1  
    78   28   78 1  
    79   30   79 1  
    80   30   80 1  
    81   31   81 1  
    82   31   82 1  
    83   31   83 1  
    84   32   84 1  
    85   33   85 1  
    86   34   86 1  
    87   34   87 1  
    88   35   88 1  
    89   36   89 1  
    90   36   90 1  
    91   39   91 1  
    92   40   92 1  
    93   40   93 1  
    94   41   94 1  
    95   41   95 1  
    96   42   96 1  
    97   42   97 1  
@<TRIPOS>SUBSTRUCTURE
     1 BOC         1

