### 
### Created by X-TOOL on Mon Sep 10 21:13:25 2018
### 

@<TRIPOS>MOLECULE
4rss_ligand
   59    63     1     0     0
SMALL
GAST_HUCK


@<TRIPOS>ATOM
      1 CAD       -23.4660   -4.3730  -13.8210 C.3       1 4MG         0.0366
      2 NBD       -22.2070   -5.1250  -13.4870 N.pl3     1 4MG        -0.2753
      3 CAW       -22.1160   -6.0420  -12.5490 C.2       1 4MG         0.0347
      4 CAC       -23.2580   -6.5220  -11.6660 C.3       1 4MG        -0.0127
      5 CAV       -20.8140   -6.4920  -12.5250 C.2       1 4MG        -0.0555
      6 CAB       -20.2790   -7.5710  -11.6130 C.3       1 4MG        -0.0552
      7 CAZ       -20.1030   -5.7970  -13.4910 C.ar      1 4MG        -0.0423
      8 CAJ       -18.7770   -5.8310  -13.9190 C.ar      1 4MG        -0.0585
      9 CBA       -21.0220   -4.9440  -14.0720 C.ar      1 4MG         0.0489
     10 CAI       -20.6290   -4.0940  -15.0980 C.ar      1 4MG        -0.0538
     11 CAH       -19.3190   -4.1020  -15.5290 C.ar      1 4MG        -0.0539
     12 CAS       -18.3700   -4.9690  -14.9480 C.ar      1 4MG         0.0441
     13 NAP       -17.1320   -4.9040  -15.4940 N.pl3     1 4MG        -0.2515
     14 C2        -16.0650   -5.5850  -15.1320 C.ar      1 4MG         0.2003
     15 N3        -16.0220   -6.3740  -14.0350 N.ar      1 4MG        -0.2208
     16 N1        -14.9620   -5.3720  -15.8470 N.ar      1 4MG        -0.2625
     17 C6        -13.8230   -5.9710  -15.5590 C.ar      1 4MG         0.0078
     18 C5        -13.7480   -6.8480  -14.4600 C.ar      1 4MG         0.0116
     19 C4        -14.8720   -7.0060  -13.7030 C.ar      1 4MG         0.1809
     20 NBE       -14.8800   -7.8920  -12.6830 N.pl3     1 4MG        -0.1595
     21 CAK       -15.9950   -8.2960  -12.0540 C.2       1 4MG         0.0684
     22 NAO       -13.8810   -8.5450  -12.3290 N.2       1 4MG        -0.2130
     23 CAT       -14.2660   -9.3760  -11.3580 C.2       1 4MG         0.0185
     24 CAA       -13.2970  -10.3150  -10.6460 C.3       1 4MG        -0.0271
     25 CAU       -15.6500   -9.2400  -11.1730 C.2       1 4MG         0.0211
     26 CAL       -16.6620   -9.9730  -10.2130 C.3       1 4MG        -0.0105
     27 NBC       -17.1360  -11.1170  -10.9930 N.4       1 4MG         0.2461
     28 CAN       -18.0820  -10.9490  -12.0810 C.3       1 4MG         0.0007
     29 CAM       -18.2840  -11.8430  -10.3130 C.3       1 4MG         0.0007
     30 CBB       -18.7680  -12.2190  -11.6910 C.3       1 4MG         0.1343
     31 OAE       -20.1810  -11.9830  -11.9390 O.3       1 4MG        -0.3815
     32 H1        -24.2868   -4.7299  -13.1815 H         1 4MG         0.0553
     33 H2        -23.7243   -4.5410  -14.8770 H         1 4MG         0.0553
     34 H3        -23.3078   -3.2982  -13.6487 H         1 4MG         0.0553
     35 H4        -22.8875   -7.2929  -10.9743 H         1 4MG         0.0407
     36 H5        -24.0546   -6.9460  -12.2950 H         1 4MG         0.0407
     37 H6        -23.6576   -5.6742  -11.0902 H         1 4MG         0.0407
     38 H7        -21.0857   -7.9297  -10.9568 H         1 4MG         0.0283
     39 H8        -19.4625   -7.1615  -11.0001 H         1 4MG         0.0283
     40 H9        -19.8993   -8.4075  -12.2180 H         1 4MG         0.0283
     41 H10       -18.0698   -6.5143  -13.4629 H         1 4MG         0.0401
     42 H11       -21.3491   -3.4271  -15.5580 H         1 4MG         0.0515
     43 H12       -19.0143   -3.4327  -16.3254 H         1 4MG         0.0449
     44 H13       -17.0121   -4.2489  -16.2798 H         1 4MG         0.2146
     45 H14       -12.9450   -5.7883  -16.1680 H         1 4MG         0.0867
     46 H15       -12.8320   -7.3775  -14.2243 H         1 4MG         0.0632
     47 H16       -17.0021   -7.9210  -12.2303 H         1 4MG         0.0895
     48 H17       -13.8414  -10.8985   -9.8890 H         1 4MG         0.0376
     49 H18       -12.5078   -9.7253  -10.1566 H         1 4MG         0.0376
     50 H19       -12.8432  -10.9982  -11.3790 H         1 4MG         0.0376
     51 H20       -17.4979   -9.3091   -9.9476 H         1 4MG         0.0902
     52 H21       -16.1556  -10.3094   -9.2963 H         1 4MG         0.0902
     53 H22       -16.3415  -11.6876  -11.2364 H         1 4MG         0.2043
     54 H23       -17.6242  -10.9761  -13.0808 H         1 4MG         0.0842
     55 H24       -18.7136  -10.0529  -11.9910 H         1 4MG         0.0842
     56 H25       -18.9678  -11.1933   -9.7472 H         1 4MG         0.0842
     57 H26       -17.9818  -12.6934   -9.6842 H         1 4MG         0.0842
     58 H27       -18.4144  -13.1761  -12.1019 H         1 4MG         0.0701
     59 H28       -20.3942  -12.2476  -12.8262 H         1 4MG         0.2103
@<TRIPOS>BOND
     1    1    2 1  
     2    2    3 1  
     3    2    9 1  
     4    3    4 1  
     5    3    5 2  
     6    5    6 1  
     7    5    7 1  
     8    7    8 ar 
     9    7    9 ar 
    10    8   12 ar 
    11    9   10 ar 
    12   10   11 ar 
    13   11   12 ar 
    14   12   13 1  
    15   13   14 1  
    16   14   15 ar 
    17   14   16 ar 
    18   15   19 ar 
    19   16   17 ar 
    20   17   18 ar 
    21   18   19 ar 
    22   19   20 1  
    23   20   21 1  
    24   20   22 1  
    25   21   25 2  
    26   22   23 2  
    27   23   24 1  
    28   23   25 1  
    29   25   26 1  
    30   26   27 1  
    31   27   28 1  
    32   27   29 1  
    33   28   30 1  
    34   29   30 1  
    35   30   31 1  
    36    1   32 1  
    37    1   33 1  
    38    1   34 1  
    39    4   35 1  
    40    4   36 1  
    41    4   37 1  
    42    6   38 1  
    43    6   39 1  
    44    6   40 1  
    45    8   41 1  
    46   10   42 1  
    47   11   43 1  
    48   13   44 1  
    49   17   45 1  
    50   18   46 1  
    51   21   47 1  
    52   24   48 1  
    53   24   49 1  
    54   24   50 1  
    55   26   51 1  
    56   26   52 1  
    57   27   53 1  
    58   28   54 1  
    59   28   55 1  
    60   29   56 1  
    61   29   57 1  
    62   30   58 1  
    63   31   59 1  
@<TRIPOS>SUBSTRUCTURE
     1 4MG         1

