### 
### Created by X-TOOL on Mon Sep 10 21:13:19 2018
### 

@<TRIPOS>MOLECULE
4ruu_ligand
   50    50     1     0     0
SMALL
GAST_HUCK


@<TRIPOS>ATOM
      1 C1          6.9630   -1.7770    5.7420 C.3       1 RET        -0.0970
      2 C2          7.2490   -2.7830    6.8400 C.3       1 RET        -0.1037
      3 C3          7.8290   -4.0500    6.2490 C.3       1 RET        -0.0389
      4 C4          6.7200   -4.7300    5.4660 C.3       1 RET         0.0374
      5 C5          6.1470   -3.7760    4.4430 C.2       1 RET         0.0234
      6 C6          6.2520   -2.4370    4.5740 C.2       1 RET        -0.0560
      7 C7          5.7070   -1.4970    3.5670 C.2       1 RET        -0.0696
      8 C8          4.4220   -1.3320    3.2700 C.2       1 RET        -0.0618
      9 C9          4.0860   -0.3230    2.2560 C.2       1 RET        -0.0512
     10 C10         2.8730   -0.2580    1.7050 C.2       1 RET        -0.0715
     11 C11         2.6210    0.7850    0.7150 C.2       1 RET        -0.0806
     12 C12         1.4200    0.9030    0.1630 C.2       1 RET        -0.0756
     13 C13         1.1650    1.9610   -0.8290 C.2       1 RET        -0.0610
     14 C14        -0.0840    2.4140   -0.9800 C.2       1 RET        -0.0818
     15 C15        -0.3710    3.4630   -1.9540 C.3       1 RET        -0.0401
     16 C16         8.2550   -1.1620    5.2150 C.3       1 RET        -0.1205
     17 C17         6.0980   -0.6710    6.3400 C.3       1 RET        -0.1205
     18 C18         5.4450   -4.4010    3.2670 C.3       1 RET         0.0278
     19 C19         5.1270    0.6720    1.8580 C.3       1 RET        -0.0323
     20 C20         2.2830    2.5130   -1.6660 C.3       1 RET        -0.0402
     21 H1          6.3132   -3.0227    7.3662 H         1 RET         0.0062
     22 H2          7.9689   -2.3507    7.5505 H         1 RET         0.0062
     23 H3          8.1836   -4.7124    7.0524 H         1 RET         0.0308
     24 H4          8.6666   -3.8044    5.5797 H         1 RET         0.0308
     25 H5          5.9242   -5.0421    6.1583 H         1 RET         0.0732
     26 H6          7.1263   -5.6136    4.9521 H         1 RET         0.0732
     27 H7          6.4240   -0.8860    3.0207 H         1 RET         0.0605
     28 H8          3.6482   -1.9217    3.7592 H         1 RET         0.0560
     29 H9          2.0923   -0.9634    1.9858 H         1 RET         0.0484
     30 H10         3.4200    1.4674    0.4290 H         1 RET         0.0518
     31 H11         0.6223    0.2168    0.4439 H         1 RET         0.0522
     32 H12        -0.8890    1.9995   -0.3750 H         1 RET         0.0575
     33 H13        -1.4450    3.6998   -1.9320 H         1 RET         0.0401
     34 H14        -0.0927    3.1155   -2.9599 H         1 RET         0.0401
     35 H15         0.2083    4.3640   -1.7039 H         1 RET         0.0401
     36 H16         8.0192   -0.4376    4.4215 H         1 RET         0.0022
     37 H17         8.8992   -1.9552    4.8078 H         1 RET         0.0022
     38 H18         8.7785   -0.6495    6.0355 H         1 RET         0.0022
     39 H19         5.1625   -1.1042    6.7236 H         1 RET         0.0022
     40 H20         5.8663    0.0733    5.5640 H         1 RET         0.0022
     41 H21         6.6417   -0.1850    7.1635 H         1 RET         0.0022
     42 H22         5.0747   -3.6100    2.5983 H         1 RET         0.0698
     43 H23         4.5981   -5.0053    3.6243 H         1 RET         0.0698
     44 H24         6.1492   -5.0443    2.7191 H         1 RET         0.0698
     45 H25         6.0577    0.4687    2.4079 H         1 RET         0.0396
     46 H26         4.7746    1.6865    2.0960 H         1 RET         0.0396
     47 H27         5.3152    0.5934    0.7771 H         1 RET         0.0396
     48 H28         3.2253    2.0151   -1.3936 H         1 RET         0.0350
     49 H29         2.3750    3.5946   -1.4878 H         1 RET         0.0350
     50 H30         2.0678    2.3336   -2.7297 H         1 RET         0.0350
@<TRIPOS>BOND
     1    1    2 1  
     2    1    6 1  
     3    1   16 1  
     4    1   17 1  
     5    2    3 1  
     6    3    4 1  
     7    4    5 1  
     8    5    6 2  
     9    5   18 1  
    10    6    7 1  
    11    7    8 2  
    12    8    9 1  
    13    9   10 2  
    14    9   19 1  
    15   10   11 1  
    16   11   12 2  
    17   12   13 1  
    18   13   14 2  
    19   13   20 1  
    20   14   15 1  
    21    2   21 1  
    22    2   22 1  
    23    3   23 1  
    24    3   24 1  
    25    4   25 1  
    26    4   26 1  
    27    7   27 1  
    28    8   28 1  
    29   10   29 1  
    30   11   30 1  
    31   12   31 1  
    32   14   32 1  
    33   15   33 1  
    34   15   34 1  
    35   15   35 1  
    36   16   36 1  
    37   16   37 1  
    38   16   38 1  
    39   17   39 1  
    40   17   40 1  
    41   17   41 1  
    42   18   42 1  
    43   18   43 1  
    44   18   44 1  
    45   19   45 1  
    46   19   46 1  
    47   19   47 1  
    48   20   48 1  
    49   20   49 1  
    50   20   50 1  
@<TRIPOS>SUBSTRUCTURE
     1 RET         1

