### 
### Created by X-TOOL on Mon Sep 10 21:13:20 2018
### 

@<TRIPOS>MOLECULE
4rux_ligand
   27    27     1     0     0
SMALL
GAST_HUCK


@<TRIPOS>ATOM
      1 CAC        -5.5560    4.6420   14.9200 C.ar      1 3W3        -0.0313
      2 CAB        -6.1200    3.4530   15.6310 C.ar      1 3W3        -0.0441
      3 CAA        -5.3290    2.3870   15.8500 C.ar      1 3W3         0.0967
      4 SAG        -5.9580    0.9990   16.7160 S.o2      1 3W3         0.0609
      5 OAL        -5.4280    1.1170   18.0640 O.2       1 3W3        -0.1519
      6 OAM        -7.3760    1.1050   16.6060 O.2       1 3W3        -0.1519
      7 NAN        -5.4020   -0.3510   16.0360 N.am      1 3W3        -0.2621
      8 CAF        -3.9010    2.3690   15.4130 C.ar      1 3W3        -0.0441
      9 CAE        -3.3940    3.4340   14.7770 C.ar      1 3W3        -0.0313
     10 CAD        -4.2740    4.6240   14.5360 C.ar      1 3W3         0.0912
     11 OAH        -3.7880    5.7560   13.8930 O.3       1 3W3        -0.3180
     12 CAI        -2.4240    5.8000   13.5280 C.3       1 3W3         0.0702
     13 CAJ        -2.0740    7.2390   13.2220 C.3       1 3W3        -0.0279
     14 CAK        -1.9970    8.0640   14.4890 C.3       1 3W3        -0.0628
     15 H1         -6.1775    5.5070   14.7184 H         1 3W3         0.0542
     16 H2         -7.1513    3.4503   15.9650 H         1 3W3         0.0608
     17 H3         -5.6637   -1.2421   16.4068 H         1 3W3         0.1633
     18 H4         -4.7950   -0.2981   15.2430 H         1 3W3         0.1633
     19 H5         -3.2802    1.5022   15.6085 H         1 3W3         0.0608
     20 H6         -2.3631    3.4352   14.4418 H         1 3W3         0.0542
     21 H7         -2.2544    5.1762   12.6380 H         1 3W3         0.0613
     22 H8         -1.8025    5.4320   14.3576 H         1 3W3         0.0613
     23 H9         -2.8457    7.6639   12.5633 H         1 3W3         0.0288
     24 H10        -1.0994    7.2710   12.7131 H         1 3W3         0.0288
     25 H11        -1.7414    9.1033   14.2348 H         1 3W3         0.0231
     26 H12        -1.2236    7.6477   15.1512 H         1 3W3         0.0231
     27 H13        -2.9700    8.0406   15.0015 H         1 3W3         0.0231
@<TRIPOS>BOND
     1    1    2 ar 
     2    1   10 ar 
     3    2    3 ar 
     4    3    4 1  
     5    3    8 ar 
     6    4    5 2  
     7    4    6 2  
     8    4    7 am 
     9    8    9 ar 
    10    9   10 ar 
    11   10   11 1  
    12   11   12 1  
    13   12   13 1  
    14   13   14 1  
    15    1   15 1  
    16    2   16 1  
    17    7   17 1  
    18    7   18 1  
    19    8   19 1  
    20    9   20 1  
    21   12   21 1  
    22   12   22 1  
    23   13   23 1  
    24   13   24 1  
    25   14   25 1  
    26   14   26 1  
    27   14   27 1  
@<TRIPOS>SUBSTRUCTURE
     1 3W3         1

