### 
### Created by X-TOOL on Mon Sep 10 21:13:24 2018
### 

@<TRIPOS>MOLECULE
4ruy_ligand
   27    27     1     0     0
SMALL
GAST_HUCK


@<TRIPOS>ATOM
      1 CAN        -1.9780    8.0000   14.4900 C.3       1 3W6        -0.0628
      2 CAM        -2.0740    7.2250   13.1970 C.3       1 3W6        -0.0279
      3 CAL        -2.4050    5.7910   13.5120 C.3       1 3W6         0.0702
      4 OAH        -3.7560    5.7300   13.8940 O.3       1 3W6        -0.3180
      5 CAD        -4.1800    4.5680   14.5130 C.ar      1 3W6         0.0912
      6 CAC        -5.6130    4.5940   14.9480 C.ar      1 3W6        -0.0313
      7 CAB        -6.1210    3.5290   15.5770 C.ar      1 3W6        -0.0441
      8 CAA        -5.2520    2.3280   15.8240 C.ar      1 3W6         0.0967
      9 SAG        -5.9380    0.9620   16.6870 S.o2      1 3W6         0.0609
     10 OAI        -5.4240    1.0920   18.0360 O.2       1 3W6        -0.1519
     11 OAJ        -7.3860    1.0700   16.6190 O.2       1 3W6        -0.1519
     12 NAK        -5.3910   -0.3980   16.0050 N.am      1 3W6        -0.2621
     13 CAF        -3.9590    2.3140   15.4400 C.ar      1 3W6        -0.0441
     14 CAE        -3.3840    3.5040   14.7350 C.ar      1 3W6        -0.0313
     15 H1         -1.7362    9.0505   14.2707 H         1 3W6         0.0231
     16 H2         -1.1878    7.5657   15.1200 H         1 3W6         0.0231
     17 H3         -2.9401    7.9483   15.0208 H         1 3W6         0.0231
     18 H4         -1.1125    7.2737   12.6649 H         1 3W6         0.0288
     19 H5         -2.8648    7.6564   12.5657 H         1 3W6         0.0288
     20 H6         -1.7682    5.4331   14.3344 H         1 3W6         0.0613
     21 H7         -2.2404    5.1659   12.6220 H         1 3W6         0.0613
     22 H8         -6.2299    5.4643   14.7555 H         1 3W6         0.0542
     23 H9         -7.1536    3.5319   15.9068 H         1 3W6         0.0608
     24 H10        -5.6757   -1.2869   16.3639 H         1 3W6         0.1633
     25 H11        -4.7680   -0.3503   15.2242 H         1 3W6         0.1633
     26 H12        -3.3399    1.4470   15.6403 H         1 3W6         0.0608
     27 H13        -2.3497    3.5089   14.4104 H         1 3W6         0.0542
@<TRIPOS>BOND
     1    1    2 1  
     2    2    3 1  
     3    3    4 1  
     4    4    5 1  
     5    5    6 ar 
     6    5   14 ar 
     7    6    7 ar 
     8    7    8 ar 
     9    8    9 1  
    10    8   13 ar 
    11    9   10 2  
    12    9   11 2  
    13    9   12 am 
    14   13   14 ar 
    15    1   15 1  
    16    1   16 1  
    17    1   17 1  
    18    2   18 1  
    19    2   19 1  
    20    3   20 1  
    21    3   21 1  
    22    6   22 1  
    23    7   23 1  
    24   12   24 1  
    25   12   25 1  
    26   13   26 1  
    27   14   27 1  
@<TRIPOS>SUBSTRUCTURE
     1 3W6         1

