### 
### Created by X-TOOL on Mon Sep 10 21:13:20 2018
### 

@<TRIPOS>MOLECULE
4ruz_ligand
   24    24     1     0     0
SMALL
GAST_HUCK


@<TRIPOS>ATOM
      1 CAM        -2.1510    7.2420   12.9790 C.3       1 3W8        -0.0372
      2 CAL        -2.4600    5.8620   13.5080 C.3       1 3W8         0.0676
      3 OAH        -3.8340    5.8460   13.8130 O.3       1 3W8        -0.3183
      4 CAD        -4.2930    4.7080   14.4950 C.ar      1 3W8         0.0912
      5 CAC        -5.7380    4.6560   14.8940 C.ar      1 3W8        -0.0313
      6 CAB        -6.2320    3.5870   15.5530 C.ar      1 3W8        -0.0441
      7 CAA        -5.3110    2.4440   15.8740 C.ar      1 3W8         0.0967
      8 SAG        -5.9470    1.0690   16.7570 S.o2      1 3W8         0.0609
      9 OAI        -5.4420    1.1680   18.1100 O.2       1 3W8        -0.1519
     10 OAJ        -7.3800    1.1120   16.8140 O.2       1 3W8        -0.1519
     11 NAK        -5.4030   -0.2880   16.0380 N.am      1 3W8        -0.2621
     12 CAF        -4.0040    2.4840   15.5240 C.ar      1 3W8        -0.0441
     13 CAE        -3.4670    3.6740   14.7830 C.ar      1 3W8        -0.0313
     14 H1         -1.0828    7.3064   12.7245 H         1 3W8         0.0256
     15 H2         -2.3906    7.9915   13.7476 H         1 3W8         0.0256
     16 H3         -2.7544    7.4335   12.0794 H         1 3W8         0.0256
     17 H4         -1.8681    5.6613   14.4132 H         1 3W8         0.0611
     18 H5         -2.2319    5.1033   12.7449 H         1 3W8         0.0611
     19 H6         -6.3920    5.4855   14.6505 H         1 3W8         0.0542
     20 H7         -7.2752    3.5535   15.8457 H         1 3W8         0.0608
     21 H8         -5.6606   -1.1837   16.4005 H         1 3W8         0.1633
     22 H9         -4.8115   -0.2253   15.2342 H         1 3W8         0.1633
     23 H10        -3.3474    1.6597   15.7779 H         1 3W8         0.0608
     24 H11        -2.4264    3.7055   14.4808 H         1 3W8         0.0542
@<TRIPOS>BOND
     1    1    2 1  
     2    2    3 1  
     3    3    4 1  
     4    4    5 ar 
     5    4   13 ar 
     6    5    6 ar 
     7    6    7 ar 
     8    7    8 1  
     9    7   12 ar 
    10    8    9 2  
    11    8   10 2  
    12    8   11 am 
    13   12   13 ar 
    14    1   14 1  
    15    1   15 1  
    16    1   16 1  
    17    2   17 1  
    18    2   18 1  
    19    5   19 1  
    20    6   20 1  
    21   11   21 1  
    22   11   22 1  
    23   12   23 1  
    24   13   24 1  
@<TRIPOS>SUBSTRUCTURE
     1 3W8         1

