### 
### Created by X-TOOL on Mon Sep 10 21:13:25 2018
### 

@<TRIPOS>MOLECULE
4rvk_ligand
   38    41     1     0     0
SMALL
GAST_HUCK


@<TRIPOS>ATOM
      1 C7          6.1790    8.4660   18.0430 C.ar      1 3XK         0.0347
      2 C9          8.0770    7.5930   16.8230 C.ar      1 3XK         0.1546
      3 N1          3.9530   10.3230   20.0220 N.ar      1 3XK        -0.2772
      4 C2          2.7730    9.6780   19.9590 C.ar      1 3XK         0.0077
      5 N2          6.2490   10.3100   19.2990 N.pl3     1 3XK        -0.2479
      6 C10         6.7120    7.5030   17.1750 C.ar      1 3XK        -0.0039
      7 C4          4.9190    8.6540   18.6010 C.ar      1 3XK         0.0369
      8 N3          8.8030    8.6340   17.2680 N.ar      1 3XK        -0.2757
      9 N5          9.1680    6.1310   15.1470 N.1       1 3XK        -0.3294
     10 C6          6.9940    9.5020   18.5020 C.ar      1 3XK         0.1072
     11 C19         8.6620    6.7750   15.9940 C.1       1 3XK         0.1095
     12 C8          8.2990    9.5680   18.0760 C.ar      1 3XK         0.0447
     13 C3          4.9890    9.8050   19.3520 C.ar      1 3XK         0.1461
     14 C5          3.7020    7.9720   18.5080 C.ar      1 3XK        -0.0371
     15 C1          2.6070    8.5050   19.2210 C.ar      1 3XK        -0.0043
     16 C11         1.2360    7.9040   19.1800 C.ar      1 3XK        -0.0316
     17 C16         0.3130    8.2090   20.1960 C.ar      1 3XK        -0.0352
     18 C15        -0.9820    7.6920   20.2080 C.ar      1 3XK         0.0657
     19 N4         -1.8910    7.9770   21.2490 N.am      1 3XK        -0.2345
     20 C17        -1.7120    8.6950   22.3760 C.2       1 3XK         0.2004
     21 O1         -0.6760    9.2240   22.7460 O.2       1 3XK        -0.3852
     22 C18        -2.9330    8.8090   23.2350 C.3       1 3XK         0.0316
     23 C14        -1.3960    6.8940   19.1420 C.ar      1 3XK        -0.0418
     24 C13        -0.5010    6.6100   18.0960 C.ar      1 3XK        -0.0754
     25 C12         0.8060    7.1280   18.0960 C.ar      1 3XK        -0.0703
     26 H1          1.9245   10.0827   20.4988 H         1 3XK         0.0803
     27 H2          6.5812   11.1582   19.7797 H         1 3XK         0.2257
     28 H3          6.0902    6.7066   16.7824 H         1 3XK         0.0790
     29 H4          8.9269   10.3898   18.4009 H         1 3XK         0.0797
     30 H5          3.6037    7.0713   17.9130 H         1 3XK         0.0724
     31 H6          0.6192    8.8699   20.9989 H         1 3XK         0.0496
     32 H7         -2.8050    7.5881   21.1335 H         1 3XK         0.2255
     33 H8         -2.6986    9.4073   24.1278 H         1 3XK         0.0472
     34 H9         -3.2603    7.8048   23.5422 H         1 3XK         0.0472
     35 H10        -3.7371    9.2987   22.6662 H         1 3XK         0.0472
     36 H11        -2.4035    6.4945   19.1201 H         1 3XK         0.0499
     37 H12        -0.8242    5.9805   17.2748 H         1 3XK         0.0577
     38 H13         1.4740    6.9290   17.2658 H         1 3XK         0.0490
@<TRIPOS>BOND
     1    1    6 ar 
     2    1    7 1  
     3   10    1 ar 
     4    6    2 ar 
     5    2    8 ar 
     6    2   11 1  
     7    3    4 ar 
     8   13    3 ar 
     9    4   15 ar 
    10    5   10 1  
    11    5   13 1  
    12    7   13 ar 
    13    7   14 ar 
    14    8   12 ar 
    15   11    9 3  
    16   10   12 ar 
    17   14   15 ar 
    18   15   16 1  
    19   16   17 ar 
    20   16   25 ar 
    21   17   18 ar 
    22   18   19 1  
    23   18   23 ar 
    24   19   20 am 
    25   20   21 2  
    26   20   22 1  
    27   23   24 ar 
    28   24   25 ar 
    29    4   26 1  
    30    5   27 1  
    31    6   28 1  
    32   12   29 1  
    33   14   30 1  
    34   17   31 1  
    35   19   32 1  
    36   22   33 1  
    37   22   34 1  
    38   22   35 1  
    39   23   36 1  
    40   24   37 1  
    41   25   38 1  
@<TRIPOS>SUBSTRUCTURE
     1 3XK         1

