### 
### Created by X-TOOL on Mon Sep 10 21:13:23 2018
### 

@<TRIPOS>MOLECULE
4rvl_ligand
   32    35     1     0     0
SMALL
GAST_HUCK


@<TRIPOS>ATOM
      1 N4          9.2500    5.9600   15.1670 N.1       1 3XL        -0.3295
      2 C17         8.6280    6.6340   15.8910 C.1       1 3XL         0.1094
      3 C9          8.0480    7.4680   16.6950 C.ar      1 3XL         0.1545
      4 N3          8.7920    8.5070   17.1360 N.ar      1 3XL        -0.2758
      5 C8          8.3000    9.4330   17.9700 C.ar      1 3XL         0.0446
      6 C6          6.9810    9.3620   18.3880 C.ar      1 3XL         0.1068
      7 N2          6.2190   10.1520   19.1920 N.pl3     1 3XL        -0.2487
      8 C3          4.9630    9.6280   19.2500 C.ar      1 3XL         0.1446
      9 N1          3.9080   10.1030   19.9310 N.ar      1 3XL        -0.2791
     10 C2          2.7440    9.4420   19.8650 C.ar      1 3XL         0.0053
     11 C10         6.6950    7.3510   17.0750 C.ar      1 3XL        -0.0040
     12 C7          6.1710    8.3240   17.9360 C.ar      1 3XL         0.0342
     13 C4          4.9060    8.4870   18.4840 C.ar      1 3XL         0.0350
     14 C5          3.7030    7.7690   18.3950 C.ar      1 3XL        -0.0397
     15 C1          2.5900    8.2640   19.1250 C.ar      1 3XL        -0.0043
     16 C11         1.2170    7.6620   19.1120 C.ar      1 3XL         0.0126
     17 C16         0.3250    7.8690   20.1820 C.ar      1 3XL        -0.0627
     18 C15        -0.9630    7.3400   20.1510 C.ar      1 3XL        -0.0726
     19 C14        -1.3950    6.6130   19.0480 C.ar      1 3XL        -0.0708
     20 C13        -0.5330    6.4170   17.9700 C.ar      1 3XL        -0.0323
     21 C12         0.7570    6.9530   17.9960 C.ar      1 3XL         0.0971
     22 O1          1.5600    6.7210   16.9190 O.3       1 3XL        -0.3310
     23 H1          8.9352   10.2394   18.3184 H         1 3XL         0.0796
     24 H2          6.5383   11.0035   19.6757 H         1 3XL         0.2253
     25 H3          1.8898    9.8344   20.4049 H         1 3XL         0.0788
     26 H4          6.0805    6.5348   16.7127 H         1 3XL         0.0790
     27 H5          3.6266    6.8713   17.7922 H         1 3XL         0.0706
     28 H6          0.6451    8.4476   21.0410 H         1 3XL         0.0588
     29 H7         -1.6311    7.4959   20.9903 H         1 3XL         0.0525
     30 H8         -2.3972    6.2005   19.0261 H         1 3XL         0.0586
     31 H9         -0.8645    5.8473   17.1094 H         1 3XL         0.0540
     32 H10         2.4034    7.1352   17.0592 H         1 3XL         0.2494
@<TRIPOS>BOND
     1    1    2 3  
     2    2    3 1  
     3    3    4 ar 
     4    3   11 ar 
     5    4    5 ar 
     6    5    6 ar 
     7    6    7 1  
     8    6   12 ar 
     9    7    8 1  
    10    8    9 ar 
    11    8   13 ar 
    12    9   10 ar 
    13   10   15 ar 
    14   11   12 ar 
    15   12   13 1  
    16   13   14 ar 
    17   14   15 ar 
    18   15   16 1  
    19   16   17 ar 
    20   16   21 ar 
    21   17   18 ar 
    22   18   19 ar 
    23   19   20 ar 
    24   20   21 ar 
    25   21   22 1  
    26    5   23 1  
    27    7   24 1  
    28   10   25 1  
    29   11   26 1  
    30   14   27 1  
    31   17   28 1  
    32   18   29 1  
    33   19   30 1  
    34   20   31 1  
    35   22   32 1  
@<TRIPOS>SUBSTRUCTURE
     1 3XL         1

