### 
### Created by X-TOOL on Mon Sep 10 21:13:24 2018
### 

@<TRIPOS>MOLECULE
4rvm_ligand
   50    54     1     0     0
SMALL
GAST_HUCK


@<TRIPOS>ATOM
      1 N5          9.0570    6.0230   15.1900 N.1       1 3X7        -0.3295
      2 C18         8.5810    6.7500   15.9920 C.1       1 3X7         0.1094
      3 C6          7.9840    7.5540   16.8250 C.ar      1 3X7         0.1546
      4 N2          8.6990    8.6070   17.2940 N.ar      1 3X7        -0.2757
      5 C7          8.1980    9.4940   18.1270 C.ar      1 3X7         0.0446
      6 C3          6.8790    9.3920   18.5360 C.ar      1 3X7         0.1070
      7 C5          6.6370    7.4050   17.2040 C.ar      1 3X7        -0.0039
      8 C2          6.0910    8.3550   18.0780 C.ar      1 3X7         0.0344
      9 C1          4.8270    8.4930   18.6390 C.ar      1 3X7         0.0358
     10 C10         3.6290    7.7840   18.5430 C.ar      1 3X7        -0.0385
     11 C9          2.5280    8.3020   19.3000 C.ar      1 3X7        -0.0049
     12 C8          2.6750    9.4640   20.0550 C.ar      1 3X7         0.0064
     13 N3          3.8280   10.1170   20.1110 N.ar      1 3X7        -0.2783
     14 C4          4.8710    9.6240   19.4340 C.ar      1 3X7         0.1452
     15 N1          6.1130   10.1580   19.3600 N.pl3     1 3X7        -0.2483
     16 C14         1.1760    7.6760   19.2850 C.ar      1 3X7        -0.0240
     17 C13         0.7700    6.9360   18.1570 C.ar      1 3X7        -0.0609
     18 C12        -0.5050    6.3620   18.1180 C.ar      1 3X7        -0.0547
     19 C15         0.2720    7.8640   20.3490 C.ar      1 3X7        -0.0609
     20 C16        -0.9960    7.2910   20.3070 C.ar      1 3X7        -0.0547
     21 C11        -1.3840    6.5330   19.2030 C.ar      1 3X7         0.0016
     22 C17        -2.7600    5.9090   19.1940 C.3       1 3X7         0.0021
     23 N4         -2.7350    4.5080   19.6840 N.4       1 3X7         0.2473
     24 C23        -1.9970    3.6240   18.7620 C.3       1 3X7        -0.0305
     25 C22        -2.1980    2.1820   19.1960 C.3       1 3X7        -0.0123
     26 C21        -1.7030    1.9870   20.6280 C.3       1 3X7        -0.0434
     27 C20        -2.3460    2.9910   21.5850 C.3       1 3X7        -0.0123
     28 C19        -2.1930    4.4150   21.0650 C.3       1 3X7        -0.0305
     29 H1          8.8178   10.3045   18.4930 H         1 3X7         0.0796
     30 H2          6.0399    6.5806   16.8314 H         1 3X7         0.0790
     31 H3          3.5366    6.8936   17.9317 H         1 3X7         0.0714
     32 H4          1.8253    9.8439   20.6107 H         1 3X7         0.0795
     33 H5          6.4278   11.0080   19.8491 H         1 3X7         0.2255
     34 H6          1.4460    6.8114   17.3188 H         1 3X7         0.0602
     35 H7         -0.8152    5.7865   17.2533 H         1 3X7         0.0560
     36 H8          0.5658    8.4589   21.2062 H         1 3X7         0.0602
     37 H9         -1.6825    7.4343   21.1336 H         1 3X7         0.0560
     38 H10        -3.1485    5.9190   18.1649 H         1 3X7         0.0982
     39 H11        -3.4232    6.5007   19.8421 H         1 3X7         0.0982
     40 H12        -3.6891    4.1841   19.7132 H         1 3X7         0.2048
     41 H13        -0.9258    3.8722   18.7907 H         1 3X7         0.0814
     42 H14        -2.3772    3.7579   17.7385 H         1 3X7         0.0814
     43 H15        -1.6346    1.5184   18.5235 H         1 3X7         0.0317
     44 H16        -3.2682    1.9331   19.1447 H         1 3X7         0.0317
     45 H17        -0.6114    2.1208   20.6502 H         1 3X7         0.0269
     46 H18        -1.9543    0.9680   20.9574 H         1 3X7         0.0269
     47 H19        -1.8597    2.9129   22.5686 H         1 3X7         0.0317
     48 H20        -3.4163    2.7577   21.6855 H         1 3X7         0.0317
     49 H21        -2.7447    5.1044   21.7210 H         1 3X7         0.0814
     50 H22        -1.1276    4.6887   21.0583 H         1 3X7         0.0814
@<TRIPOS>BOND
     1    1    2 3  
     2    2    3 1  
     3    3    4 ar 
     4    3    7 ar 
     5    4    5 ar 
     6    5    6 ar 
     7    6    8 ar 
     8    6   15 1  
     9    7    8 ar 
    10    8    9 1  
    11    9   10 ar 
    12    9   14 ar 
    13   10   11 ar 
    14   11   12 ar 
    15   11   16 1  
    16   12   13 ar 
    17   13   14 ar 
    18   14   15 1  
    19   16   17 ar 
    20   16   19 ar 
    21   17   18 ar 
    22   18   21 ar 
    23   19   20 ar 
    24   20   21 ar 
    25   21   22 1  
    26   22   23 1  
    27   23   24 1  
    28   23   28 1  
    29   24   25 1  
    30   25   26 1  
    31   26   27 1  
    32   27   28 1  
    33    5   29 1  
    34    7   30 1  
    35   10   31 1  
    36   12   32 1  
    37   15   33 1  
    38   17   34 1  
    39   18   35 1  
    40   19   36 1  
    41   20   37 1  
    42   22   38 1  
    43   22   39 1  
    44   23   40 1  
    45   24   41 1  
    46   24   42 1  
    47   25   43 1  
    48   25   44 1  
    49   26   45 1  
    50   26   46 1  
    51   27   47 1  
    52   27   48 1  
    53   28   49 1  
    54   28   50 1  
@<TRIPOS>SUBSTRUCTURE
     1 3X7         1

