### 
### Created by X-TOOL on Mon Sep 10 21:13:18 2018
### 

@<TRIPOS>MOLECULE
4rvr_ligand
   47    49     1     0     0
SMALL
GAST_HUCK


@<TRIPOS>ATOM
      1 CAA        75.2430   44.4920    0.3470 C.3       1 3WQ        -0.0628
      2 CAO        74.1740   44.4640   -0.7600 C.3       1 3WQ        -0.0275
      3 CAP        73.4920   43.0660   -0.7930 C.3       1 3WQ         0.0722
      4 OAQ        72.0710   43.2330   -1.0180 O.3       1 3WQ        -0.3144
      5 CAS        71.2550   42.1170   -0.9640 C.2       1 3WQ         0.0973
      6 CAN        71.7400   40.7980   -0.7840 C.2       1 3WQ        -0.0016
      7 CAX        70.8790   39.7590   -0.7440 C.2       1 3WQ         0.0807
      8 CAK        69.8880   42.3500   -1.1150 C.2       1 3WQ         0.0124
      9 CAL        69.0130   41.2840   -1.0950 C.2       1 3WQ         0.0814
     10 NAY        69.5610   39.9930   -0.8930 N.pl3     1 3WQ        -0.2169
     11 CAU        68.8770   38.8100   -0.8640 C.2       1 3WQ         0.1158
     12 CAR        67.4870   38.7120   -0.9780 C.2       1 3WQ         0.1285
     13 OAD        66.7180   39.6920   -1.1200 O.2       1 3WQ        -0.4000
     14 CAB        66.8560   37.3220   -0.9030 C.3       1 3WQ         0.0060
     15 CAM        69.8040   37.8350   -0.6680 C.2       1 3WQ        -0.0623
     16 CAV        71.0440   38.4320   -0.6150 C.2       1 3WQ        -0.0270
     17 CAT        72.2540   37.7890   -0.5230 C.ar      1 3WQ        -0.0273
     18 CAI        72.9370   37.5320   -1.7130 C.ar      1 3WQ        -0.0675
     19 CAG        74.1530   36.8470   -1.7660 C.ar      1 3WQ        -0.0720
     20 CAH        74.7430   36.3560   -0.6090 C.ar      1 3WQ        -0.0697
     21 CAJ        74.0800   36.5990    0.5880 C.ar      1 3WQ        -0.0473
     22 CAW        72.8690   37.2950    0.6450 C.ar      1 3WQ         0.0803
     23 SAZ        72.1540   37.4790    2.2470 S.o2      1 3WQ        -0.0100
     24 OAE        73.2870   37.1310    3.1640 O.2       1 3WQ        -0.1709
     25 OAF        71.7020   38.8580    2.4370 O.2       1 3WQ        -0.1709
     26 CAC        70.8400   36.2880    2.4150 C.3       1 3WQ         0.0583
     27 H1         75.7233   45.4814    0.3679 H         1 3WQ         0.0231
     28 H2         76.0008   43.7208    0.1446 H         1 3WQ         0.0231
     29 H3         74.7689   44.2940    1.3196 H         1 3WQ         0.0231
     30 H4         74.6487   44.6625   -1.7322 H         1 3WQ         0.0289
     31 H5         73.4169   45.2357   -0.5572 H         1 3WQ         0.0289
     32 H6         73.6545   42.5549    0.1674 H         1 3WQ         0.0618
     33 H7         73.9248   42.4649   -1.6062 H         1 3WQ         0.0618
     34 H8         72.8094   40.6220   -0.6777 H         1 3WQ         0.0478
     35 H9         69.5150   43.3645   -1.2475 H         1 3WQ         0.0565
     36 H10        67.9421   41.4290   -1.2293 H         1 3WQ         0.1212
     37 H11        65.7645   37.4087   -1.0079 H         1 3WQ         0.0439
     38 H12        67.0957   36.8623    0.0672 H         1 3WQ         0.0439
     39 H13        67.2536   36.6945   -1.7143 H         1 3WQ         0.0439
     40 H14        69.6017   36.7694   -0.5701 H         1 3WQ         0.0401
     41 H15        72.5019   37.8815   -2.6423 H         1 3WQ         0.0534
     42 H16        74.6419   36.6969   -2.7218 H         1 3WQ         0.0591
     43 H17        75.6780   35.8082   -0.6380 H         1 3WQ         0.0537
     44 H18        74.5177   36.2357    1.5108 H         1 3WQ         0.0610
     45 H19        70.3805   36.3869    3.4095 H         1 3WQ         0.0467
     46 H20        71.2480   35.2731    2.2989 H         1 3WQ         0.0467
     47 H21        70.0801   36.4686    1.6404 H         1 3WQ         0.0467
@<TRIPOS>BOND
     1    1    2 1  
     2    2    3 1  
     3    3    4 1  
     4    4    5 1  
     5    5    6 2  
     6    5    8 1  
     7    6    7 1  
     8    7   10 1  
     9    7   16 2  
    10    8    9 2  
    11    9   10 1  
    12   10   11 1  
    13   11   12 1  
    14   11   15 2  
    15   12   13 2  
    16   12   14 1  
    17   15   16 1  
    18   16   17 1  
    19   17   18 ar 
    20   17   22 ar 
    21   18   19 ar 
    22   19   20 ar 
    23   20   21 ar 
    24   21   22 ar 
    25   22   23 1  
    26   23   24 2  
    27   23   25 2  
    28   23   26 1  
    29    1   27 1  
    30    1   28 1  
    31    1   29 1  
    32    2   30 1  
    33    2   31 1  
    34    3   32 1  
    35    3   33 1  
    36    6   34 1  
    37    8   35 1  
    38    9   36 1  
    39   14   37 1  
    40   14   38 1  
    41   14   39 1  
    42   15   40 1  
    43   18   41 1  
    44   19   42 1  
    45   20   43 1  
    46   21   44 1  
    47   26   45 1  
    48   26   46 1  
    49   26   47 1  
@<TRIPOS>SUBSTRUCTURE
     1 3WQ         1

