### 
### Created by X-TOOL on Mon Sep 10 21:13:25 2018
### 

@<TRIPOS>MOLECULE
4rvt_ligand
   41    42     1     0     0
SMALL
GAST_HUCK


@<TRIPOS>ATOM
      1 CAA       -19.3810    9.2220  -28.8160 C.ar      1 3XM         0.0817
      2 CAB       -19.0620    9.0040  -30.1510 C.ar      1 3XM        -0.0395
      3 CAC       -18.0250    8.1350  -30.4720 C.ar      1 3XM        -0.0721
      4 CAD       -17.3070    7.4740  -29.4700 C.ar      1 3XM        -0.0403
      5 CAE       -17.6280    7.7000  -28.1300 C.ar      1 3XM        -0.0721
      6 CAF       -18.6710    8.5730  -27.7980 C.ar      1 3XM        -0.0395
      7 CAG       -16.2710    6.6200  -29.8700 C.2       1 3XM         0.0489
      8 CAH       -15.5990    6.9680  -31.0420 C.2       1 3XM         0.0848
      9 NAI       -14.6130    6.2240  -31.4980 N.am      1 3XM        -0.2161
     10 CAJ       -14.1940    5.0640  -30.8270 C.2       1 3XM         0.2056
     11 CAK       -14.8180    4.6490  -29.6350 C.2       1 3XM         0.0997
     12 CAL       -15.8640    5.4610  -29.1820 C.2       1 3XM         0.1104
     13 OAM       -16.4940    5.1010  -28.0290 O.3       1 3XM        -0.3204
     14 OAN       -20.3930   10.0700  -28.5180 O.3       1 3XM        -0.3368
     15 OAO       -13.2700    4.4440  -31.3380 O.2       1 3XM        -0.4215
     16 CAP       -14.4620    3.5010  -28.8890 C.2       1 3XM         0.0994
     17 CAQ       -13.4750    2.4730  -29.4780 C.3       1 3XM         0.0122
     18 OAR       -14.9300    3.3060  -27.7750 O.2       1 3XM        -0.4122
     19 CAS       -13.3540    1.2520  -28.5500 C.3       1 3XM        -0.0390
     20 CAT       -11.9870    0.5900  -28.7520 C.3       1 3XM        -0.0514
     21 CAU       -12.0460   -0.8760  -28.3200 C.3       1 3XM        -0.0558
     22 CAV       -11.7620   -1.7690  -29.5330 C.3       1 3XM        -0.0653
     23 H1        -19.6166    9.5069  -30.9350 H         1 3XM         0.0529
     24 H2        -17.7698    7.9677  -31.5122 H         1 3XM         0.0531
     25 H3        -17.0698    7.1997  -27.3470 H         1 3XM         0.0531
     26 H4        -18.9275    8.7456  -26.7590 H         1 3XM         0.0529
     27 H5        -15.8931    7.8646  -31.5856 H         1 3XM         0.1331
     28 H6        -14.1510    6.4918  -32.3435 H         1 3XM         0.2621
     29 H7        -15.8649    5.0849  -27.3174 H         1 3XM         0.2588
     30 H8        -20.7603   10.4180  -29.3221 H         1 3XM         0.2465
     31 H9        -12.4865    2.9425  -29.5897 H         1 3XM         0.0470
     32 H10       -13.8385    2.1448  -30.4630 H         1 3XM         0.0470
     33 H11       -14.1494    0.5304  -28.7879 H         1 3XM         0.0288
     34 H12       -13.4535    1.5756  -27.5034 H         1 3XM         0.0288
     35 H13       -11.2341    1.1175  -28.1480 H         1 3XM         0.0267
     36 H14       -11.7090    0.6455  -29.8148 H         1 3XM         0.0267
     37 H15       -13.0461   -1.1027  -27.9221 H         1 3XM         0.0263
     38 H16       -11.2911   -1.0612  -27.5417 H         1 3XM         0.0263
     39 H17       -11.8031   -2.8252  -29.2284 H         1 3XM         0.0230
     40 H18       -10.7620   -1.5407  -29.9303 H         1 3XM         0.0230
     41 H19       -12.5171   -1.5821  -30.3107 H         1 3XM         0.0230
@<TRIPOS>BOND
     1    1    2 ar 
     2    1    6 ar 
     3    1   14 1  
     4    2    3 ar 
     5    3    4 ar 
     6    4    5 ar 
     7    4    7 1  
     8    5    6 ar 
     9    7    8 2  
    10    7   12 1  
    11    8    9 1  
    12    9   10 am 
    13   10   11 1  
    14   10   15 2  
    15   11   12 2  
    16   11   16 1  
    17   12   13 1  
    18   16   17 1  
    19   16   18 2  
    20   17   19 1  
    21   19   20 1  
    22   20   21 1  
    23   21   22 1  
    24    2   23 1  
    25    3   24 1  
    26    5   25 1  
    27    6   26 1  
    28    8   27 1  
    29    9   28 1  
    30   13   29 1  
    31   14   30 1  
    32   17   31 1  
    33   17   32 1  
    34   19   33 1  
    35   19   34 1  
    36   20   35 1  
    37   20   36 1  
    38   21   37 1  
    39   21   38 1  
    40   22   39 1  
    41   22   40 1  
    42   22   41 1  
@<TRIPOS>SUBSTRUCTURE
     1 3XM         1

