### 
### Created by X-TOOL on Mon Sep 10 21:13:24 2018
### 

@<TRIPOS>MOLECULE
4rwj_ligand
   68    71     1     0     0
SMALL
GAST_HUCK


@<TRIPOS>ATOM
      1 C         -28.8550   -8.8390   15.6140 C.3       1 66T        -0.0198
      2 N         -25.6520   -6.8330   15.6470 N.pl3     1 66T        -0.2952
      3 O         -19.8840   -8.0920   13.4130 O.2       1 66T        -0.3813
      4 C1        -27.9020   -7.6420   15.4940 C.3       1 66T        -0.0050
      5 N1        -28.4220   -6.4890   16.2480 N.4       1 66T         0.2338
      6 O1        -12.2890   -5.3300    7.8540 O.3       1 66T        -0.3257
      7 C2        -26.4820   -7.9900   15.9910 C.3       1 66T         0.0706
      8 N2        -19.3780   -6.1190   14.4150 N.am      1 66T        -0.2382
      9 O2        -10.2750   -8.5600   10.7840 O.3       1 66T        -0.3257
     10 C3        -26.1380   -5.5100   16.2200 C.3       1 66T         0.0706
     11 N3        -16.1360   -5.0190   14.1100 N.pl3     1 66T        -0.2381
     12 C4        -27.6470   -5.2630   16.0060 C.3       1 66T        -0.0050
     13 N4        -17.3570   -4.9580   14.5280 N.2       1 66T        -0.2373
     14 C5        -28.1310   -4.0950   16.8910 C.3       1 66T        -0.0198
     15 C6        -24.3360   -6.8730   15.3070 C.ar      1 66T         0.0461
     16 C7        -23.3780   -6.0650   15.9510 C.ar      1 66T        -0.0381
     17 C8        -22.0370   -6.1330   15.5680 C.ar      1 66T        -0.0531
     18 C9        -21.6350   -6.9950   14.5500 C.ar      1 66T         0.0414
     19 C10       -22.6000   -7.7750   13.9330 C.ar      1 66T        -0.0531
     20 C11       -23.9340   -7.7240   14.2990 C.ar      1 66T        -0.0381
     21 C12       -20.2250   -7.1290   14.0720 C.2       1 66T         0.2188
     22 C13       -18.0560   -6.0020   14.0910 C.2       1 66T         0.0956
     23 C14       -17.2570   -6.7670   13.3580 C.2       1 66T        -0.0273
     24 C15       -16.0610   -6.1570   13.3690 C.2       1 66T         0.0584
     25 C16       -14.7560   -6.5300   12.7280 C.3       1 66T         0.0167
     26 C17       -14.9090   -7.3130   11.4450 C.3       1 66T        -0.0106
     27 C18       -13.6160   -7.1700   10.6740 C.ar      1 66T        -0.0581
     28 C19       -12.5050   -7.9180   11.0510 C.ar      1 66T        -0.0431
     29 C20       -11.3070   -7.8050   10.3590 C.ar      1 66T         0.0756
     30 C21       -11.2120   -6.9320    9.2720 C.ar      1 66T        -0.0125
     31 C22       -12.3190   -6.1920    8.9000 C.ar      1 66T         0.0756
     32 C23       -13.5180   -6.3070    9.5940 C.ar      1 66T        -0.0431
     33 C24       -11.0220   -5.1250    7.2100 C.3       1 66T         0.0590
     34 C25        -8.9560   -8.2700   10.2940 C.3       1 66T         0.0590
     35 H1        -28.4498   -9.6887   15.0450 H         1 66T         0.0285
     36 H2        -29.8410   -8.5646   15.2108 H         1 66T         0.0285
     37 H3        -28.9573   -9.1217   16.6721 H         1 66T         0.0285
     38 H4        -27.8365   -7.3632   14.4320 H         1 66T         0.0868
     39 H5        -28.3878   -6.7041   17.2322 H         1 66T         0.2020
     40 H6        -29.3780   -6.3269   15.9725 H         1 66T         0.2020
     41 H7        -26.4845   -8.1514   17.0791 H         1 66T         0.0572
     42 H8        -26.1092   -8.8939   15.4871 H         1 66T         0.0572
     43 H9        -19.7674   -5.3805   14.9655 H         1 66T         0.2197
     44 H10       -25.5798   -4.6950   15.7361 H         1 66T         0.0572
     45 H11       -25.9340   -5.5028   17.3009 H         1 66T         0.0572
     46 H12       -15.3785   -4.3470   14.2984 H         1 66T         0.2428
     47 H13       -27.7979   -4.9741   14.9554 H         1 66T         0.0868
     48 H14       -27.5272   -3.2002   16.6796 H         1 66T         0.0285
     49 H15       -28.0224   -4.3685   17.9509 H         1 66T         0.0285
     50 H16       -29.1883   -3.8837   16.6733 H         1 66T         0.0285
     51 H17       -23.6820   -5.3908   16.7435 H         1 66T         0.0530
     52 H18       -21.3030   -5.5103   16.0666 H         1 66T         0.0636
     53 H19       -22.3003   -8.4474   13.1373 H         1 66T         0.0636
     54 H20       -24.6604   -8.3510   13.7948 H         1 66T         0.0530
     55 H21       -17.5172   -7.6960   12.8528 H         1 66T         0.0204
     56 H22       -14.1815   -7.1403   13.4404 H         1 66T         0.0494
     57 H23       -14.2018   -5.6060   12.5064 H         1 66T         0.0494
     58 H24       -15.7454   -6.9097   10.8553 H         1 66T         0.0448
     59 H25       -15.0972   -8.3729   11.6710 H         1 66T         0.0448
     60 H26       -12.5757   -8.5960   11.8938 H         1 66T         0.0390
     61 H27       -10.2803   -6.8360    8.7263 H         1 66T         0.0408
     62 H28       -14.3776   -5.7208    9.2900 H         1 66T         0.0390
     63 H29       -11.1420   -4.4075    6.3849 H         1 66T         0.0577
     64 H30       -10.6534   -6.0823    6.8128 H         1 66T         0.0577
     65 H31       -10.3001   -4.7281    7.9389 H         1 66T         0.0577
     66 H32        -8.2371   -8.9747   10.7372 H         1 66T         0.0577
     67 H33        -8.6798   -7.2419   10.5708 H         1 66T         0.0577
     68 H34        -8.9412   -8.3714    9.1988 H         1 66T         0.0577
@<TRIPOS>BOND
     1    4    1 1  
     2    2    7 1  
     3    2   10 1  
     4   15    2 1  
     5   21    3 2  
     6    4    5 1  
     7    7    4 1  
     8   12    5 1  
     9   31    6 1  
    10    6   33 1  
    11    8   21 am 
    12   22    8 1  
    13   29    9 1  
    14    9   34 1  
    15   10   12 1  
    16   11   13 1  
    17   24   11 1  
    18   12   14 1  
    19   22   13 2  
    20   16   15 ar 
    21   20   15 ar 
    22   17   16 ar 
    23   18   17 ar 
    24   18   19 ar 
    25   21   18 1  
    26   19   20 ar 
    27   23   22 1  
    28   24   23 2  
    29   25   24 1  
    30   26   25 1  
    31   27   26 1  
    32   28   27 ar 
    33   27   32 ar 
    34   29   28 ar 
    35   30   29 ar 
    36   30   31 ar 
    37   31   32 ar 
    38    1   35 1  
    39    1   36 1  
    40    1   37 1  
    41    4   38 1  
    42    5   39 1  
    43    5   40 1  
    44    7   41 1  
    45    7   42 1  
    46    8   43 1  
    47   10   44 1  
    48   10   45 1  
    49   11   46 1  
    50   12   47 1  
    51   14   48 1  
    52   14   49 1  
    53   14   50 1  
    54   16   51 1  
    55   17   52 1  
    56   19   53 1  
    57   20   54 1  
    58   23   55 1  
    59   25   56 1  
    60   25   57 1  
    61   26   58 1  
    62   26   59 1  
    63   28   60 1  
    64   30   61 1  
    65   32   62 1  
    66   33   63 1  
    67   33   64 1  
    68   33   65 1  
    69   34   66 1  
    70   34   67 1  
    71   34   68 1  
@<TRIPOS>SUBSTRUCTURE
     1 66T         1

