### 
### Created by X-TOOL on Mon Sep 10 21:13:25 2018
### 

@<TRIPOS>MOLECULE
4rwk_ligand
   68    71     1     0     0
SMALL
GAST_HUCK


@<TRIPOS>ATOM
      1 C         -28.2930   -8.6190   15.3990 C.3       1 66T        -0.0198
      2 N         -25.1620   -6.5480   15.6270 N.pl3     1 66T        -0.2952
      3 O         -19.2830   -7.8330   13.7720 O.2       1 66T        -0.3813
      4 C1        -27.3670   -7.3960   15.3840 C.3       1 66T        -0.0050
      5 N1        -27.9430   -6.2820   16.1550 N.4       1 66T         0.2338
      6 O1        -17.6530   -7.8750    8.1720 O.3       1 66T        -0.3257
      7 C2        -25.9700   -7.7240   15.9450 C.3       1 66T         0.0706
      8 N2        -18.9620   -5.6340   14.2320 N.am      1 66T        -0.2382
      9 O2        -14.4000  -10.7730   10.1540 O.3       1 66T        -0.3257
     10 C3        -25.6880   -5.2480   16.2130 C.3       1 66T         0.0706
     11 N3        -15.7730   -4.4680   13.7030 N.pl3     1 66T        -0.2381
     12 C4        -27.1960   -5.0320   15.9650 C.3       1 66T        -0.0050
     13 N4        -16.9930   -4.3800   14.1210 N.2       1 66T        -0.2373
     14 C5        -27.7340   -3.8990   16.8630 C.3       1 66T        -0.0198
     15 C6        -23.8430   -6.5630   15.3100 C.ar      1 66T         0.0461
     16 C7        -22.9290   -5.6710   15.9010 C.ar      1 66T        -0.0381
     17 C8        -21.5820   -5.7210   15.5440 C.ar      1 66T        -0.0531
     18 C9        -21.1320   -6.6460   14.6080 C.ar      1 66T         0.0414
     19 C10       -22.0540   -7.5120   14.0430 C.ar      1 66T        -0.0531
     20 C11       -23.3930   -7.4780   14.3830 C.ar      1 66T        -0.0381
     21 C12       -19.7120   -6.7680   14.1670 C.2       1 66T         0.2188
     22 C13       -17.6520   -5.5090   13.8760 C.2       1 66T         0.0956
     23 C14       -16.8280   -6.3550   13.2740 C.2       1 66T        -0.0273
     24 C15       -15.6580   -5.7110   13.1620 C.2       1 66T         0.0584
     25 C16       -14.3480   -6.1540   12.5780 C.3       1 66T         0.0167
     26 C17       -14.2400   -5.9980   11.0760 C.3       1 66T        -0.0106
     27 C18       -14.8790   -7.1910   10.3970 C.ar      1 66T        -0.0581
     28 C19       -14.3610   -8.4710   10.5710 C.ar      1 66T        -0.0431
     29 C20       -14.9500   -9.5640    9.9430 C.ar      1 66T         0.0756
     30 C21       -16.0670   -9.3850    9.1240 C.ar      1 66T        -0.0125
     31 C22       -16.5740   -8.1140    8.9520 C.ar      1 66T         0.0756
     32 C23       -15.9870   -7.0240    9.5810 C.ar      1 66T        -0.0431
     33 C24       -17.6190   -8.4160    6.8440 C.3       1 66T         0.0590
     34 C25       -15.1830  -11.9470    9.8800 C.3       1 66T         0.0590
     35 H1        -27.8359   -9.4321   14.8160 H         1 66T         0.0285
     36 H2        -29.2629   -8.3500   14.9552 H         1 66T         0.0285
     37 H3        -28.4441   -8.9518   16.4365 H         1 66T         0.0285
     38 H4        -27.2521   -7.0729   14.3388 H         1 66T         0.0868
     39 H5        -27.9291   -6.5230   17.1337 H         1 66T         0.2020
     40 H6        -28.8955   -6.1395   15.8575 H         1 66T         0.2020
     41 H7        -26.0152   -7.8821   17.0326 H         1 66T         0.0572
     42 H8        -25.5576   -8.6215   15.4608 H         1 66T         0.0572
     43 H9        -19.4166   -4.8118   14.5745 H         1 66T         0.2197
     44 H10       -25.1363   -4.4118   15.7586 H         1 66T         0.0572
     45 H11       -25.5107   -5.2575   17.2986 H         1 66T         0.0572
     46 H12       -15.0402   -3.7469   13.7663 H         1 66T         0.2428
     47 H13       -27.3263   -4.7208   14.9180 H         1 66T         0.0868
     48 H14       -27.1483   -2.9842   16.6895 H         1 66T         0.0285
     49 H15       -27.6471   -4.1953   17.9188 H         1 66T         0.0285
     50 H16       -28.7902   -3.7095   16.6210 H         1 66T         0.0285
     51 H17       -23.2711   -4.9471   16.6317 H         1 66T         0.0530
     52 H18       -20.8794   -5.0329   16.0000 H         1 66T         0.0636
     53 H19       -21.7151   -8.2377   13.3126 H         1 66T         0.0636
     54 H20       -24.0881   -8.1699   13.9213 H         1 66T         0.0530
     55 H21       -17.0552   -7.3660   12.9391 H         1 66T         0.0204
     56 H22       -14.2054   -7.2168   12.8232 H         1 66T         0.0494
     57 H23       -13.5473   -5.5599   13.0426 H         1 66T         0.0494
     58 H24       -13.1798   -5.9373   10.7890 H         1 66T         0.0448
     59 H25       -14.7574   -5.0785   10.7648 H         1 66T         0.0448
     60 H26       -13.4913   -8.6177   11.2012 H         1 66T         0.0390
     61 H27       -16.5287  -10.2327    8.6307 H         1 66T         0.0408
     62 H28       -16.3994   -6.0326    9.4324 H         1 66T         0.0390
     63 H29       -18.5481   -8.1531    6.3171 H         1 66T         0.0577
     64 H30       -17.5243   -9.5107    6.8963 H         1 66T         0.0577
     65 H31       -16.7586   -7.9991    6.3001 H         1 66T         0.0577
     66 H32       -14.5884  -12.8448   10.1044 H         1 66T         0.0577
     67 H33       -15.4729  -11.9550    8.8189 H         1 66T         0.0577
     68 H34       -16.0867  -11.9396   10.5070 H         1 66T         0.0577
@<TRIPOS>BOND
     1    4    1 1  
     2    2    7 1  
     3    2   10 1  
     4   15    2 1  
     5   21    3 2  
     6    4    5 1  
     7    7    4 1  
     8   12    5 1  
     9   31    6 1  
    10    6   33 1  
    11    8   21 am 
    12   22    8 1  
    13   29    9 1  
    14    9   34 1  
    15   10   12 1  
    16   11   13 1  
    17   24   11 1  
    18   12   14 1  
    19   22   13 2  
    20   16   15 ar 
    21   20   15 ar 
    22   17   16 ar 
    23   18   17 ar 
    24   18   19 ar 
    25   21   18 1  
    26   19   20 ar 
    27   23   22 1  
    28   24   23 2  
    29   25   24 1  
    30   26   25 1  
    31   27   26 1  
    32   28   27 ar 
    33   27   32 ar 
    34   29   28 ar 
    35   30   29 ar 
    36   30   31 ar 
    37   31   32 ar 
    38    1   35 1  
    39    1   36 1  
    40    1   37 1  
    41    4   38 1  
    42    5   39 1  
    43    5   40 1  
    44    7   41 1  
    45    7   42 1  
    46    8   43 1  
    47   10   44 1  
    48   10   45 1  
    49   11   46 1  
    50   12   47 1  
    51   14   48 1  
    52   14   49 1  
    53   14   50 1  
    54   16   51 1  
    55   17   52 1  
    56   19   53 1  
    57   20   54 1  
    58   23   55 1  
    59   25   56 1  
    60   25   57 1  
    61   26   58 1  
    62   26   59 1  
    63   28   60 1  
    64   30   61 1  
    65   32   62 1  
    66   33   63 1  
    67   33   64 1  
    68   33   65 1  
    69   34   66 1  
    70   34   67 1  
    71   34   68 1  
@<TRIPOS>SUBSTRUCTURE
     1 66T         1

