### 
### Created by X-TOOL on Mon Sep 10 21:13:24 2018
### 

@<TRIPOS>MOLECULE
4rwl_ligand
   59    63     1     0     0
SMALL
GAST_HUCK


@<TRIPOS>ATOM
      1 C10        26.4490    4.5360   18.5740 C.ar      1 3ZC        -0.0067
      2 C13        27.5160    3.3290   20.8420 C.ar      1 3ZC         0.1241
      3 C17        28.4960    0.6610   23.1140 C.ar      1 3ZC         0.0277
      4 C20        29.8480   -0.5690   25.2310 C.ar      1 3ZC         0.1293
      5 C21        29.0350   -1.3380   24.3700 C.ar      1 3ZC        -0.0213
      6 C22        28.3370   -0.6890   23.2820 C.ar      1 3ZC         0.0175
      7 C24        26.8940   -0.8080   21.3880 C.ar      1 3ZC        -0.0132
      8 C28        31.4050   -2.8320   27.7420 C.3       1 3ZC         0.0151
      9 C01        27.2870    6.1430   13.9260 C.3       1 3ZC         0.0189
     10 N02        26.5610    6.1780   15.1490 N.am      1 3ZC        -0.2897
     11 C03        26.7270    5.1100   16.0840 C.2       1 3ZC         0.2029
     12 O04        27.4820    4.1810   15.8300 O.2       1 3ZC        -0.3860
     13 C05        25.9240    5.1440   17.3860 C.ar      1 3ZC         0.0518
     14 C06        24.6610    5.7590   17.4100 C.ar      1 3ZC        -0.0440
     15 C07        23.8960    5.7930   18.6010 C.ar      1 3ZC        -0.0576
     16 C08        24.4200    5.1830   19.7530 C.ar      1 3ZC        -0.0539
     17 C09        25.7140    4.5540   19.7260 C.ar      1 3ZC        -0.0215
     18 C11        27.7400    3.9100   18.5510 C.ar      1 3ZC        -0.0533
     19 C12        28.2780    3.3060   19.6750 C.ar      1 3ZC        -0.0210
     20 C14        26.2590    3.9440   20.9020 C.ar      1 3ZC        -0.0209
     21 O15        28.0640    2.7270   21.9840 O.3       1 3ZC        -0.2443
     22 C16        27.8180    1.3290   22.0250 C.ar      1 3ZC         0.1388
     23 C18        29.3320    1.4410   23.9850 C.ar      1 3ZC        -0.0222
     24 C19        29.9960    0.8110   25.0490 C.ar      1 3ZC         0.1284
     25 N23        27.5430   -1.4030   22.4150 N.ar      1 3ZC        -0.3280
     26 C25        26.9810    0.5800   21.1300 C.ar      1 3ZC        -0.0085
     27 O26        30.5660   -1.1200   26.3300 O.3       1 3ZC        -0.3092
     28 C27        30.5210   -2.5340   26.5090 C.3       1 3ZC         0.1156
     29 C29        31.3170   -4.2310   28.3410 C.3       1 3ZC         0.0011
     30 C30        30.6390   -3.0550   29.0370 C.3       1 3ZC         0.0011
     31 N31        32.6620   -2.1420   27.9000 N.4       1 3ZC         0.2249
     32 O32        30.8230    1.5490   25.9460 O.3       1 3ZC        -0.3208
     33 C33        31.0890    2.8840   25.5160 C.3       1 3ZC         0.0581
     34 H1         28.9347   -2.4064   24.5232 H         1 3ZC         0.0485
     35 H2         26.2819   -1.4203   20.7357 H         1 3ZC         0.0772
     36 H3         27.0430    7.0342   13.3292 H         1 3ZC         0.0483
     37 H4         27.0134    5.2385   13.3629 H         1 3ZC         0.0483
     38 H5         28.3658    6.1293   14.1402 H         1 3ZC         0.0483
     39 H6         25.9439    6.9384   15.3513 H         1 3ZC         0.1839
     40 H7         24.2680    6.2123   16.5071 H         1 3ZC         0.0658
     41 H8         22.9273    6.2790   18.6234 H         1 3ZC         0.0623
     42 H9         23.8439    5.1862   20.6712 H         1 3ZC         0.0643
     43 H10        28.3096    3.9099   17.6287 H         1 3ZC         0.0617
     44 H11        29.2534    2.8338   19.6484 H         1 3ZC         0.0611
     45 H12        25.7023    3.9583   21.8321 H         1 3ZC         0.0526
     46 H13        29.4486    2.5063   23.8216 H         1 3ZC         0.0520
     47 H14        26.4499    1.0484   20.3093 H         1 3ZC         0.0550
     48 H15        29.4875   -2.8642   26.6901 H         1 3ZC         0.0674
     49 H16        30.9189   -3.0452   25.6200 H         1 3ZC         0.0674
     50 H17        32.2084   -4.6956   28.7878 H         1 3ZC         0.0326
     51 H18        30.7089   -5.0037   27.8479 H         1 3ZC         0.0326
     52 H19        29.5416   -2.9802   29.0466 H         1 3ZC         0.0326
     53 H20        31.0410   -2.6720   29.9866 H         1 3ZC         0.0326
     54 H21        33.1025   -2.0359   26.9996 H         1 3ZC         0.2000
     55 H22        33.2640   -2.6752   28.5077 H         1 3ZC         0.2000
     56 H23        32.4979   -1.2328   28.3030 H         1 3ZC         0.2000
     57 H24        31.7294    3.3867   26.2557 H         1 3ZC         0.0575
     58 H25        30.1411    3.4334   25.4181 H         1 3ZC         0.0575
     59 H26        31.6015    2.8606   24.5430 H         1 3ZC         0.0575
@<TRIPOS>BOND
     1    1   13 ar 
     2   17    1 ar 
     3   18    1 ar 
     4    2   19 ar 
     5    2   20 ar 
     6   21    2 1  
     7    6    3 ar 
     8    3   22 ar 
     9   23    3 ar 
    10    4    5 ar 
    11    4   24 ar 
    12   27    4 1  
    13    5    6 ar 
    14    6   25 ar 
    15   25    7 ar 
    16    7   26 ar 
    17   28    8 1  
    18    8   29 1  
    19    8   30 1  
    20    8   31 1  
    21   10    9 1  
    22   11   10 am 
    23   11   12 2  
    24   13   11 1  
    25   13   14 ar 
    26   15   14 ar 
    27   16   15 ar 
    28   17   16 ar 
    29   20   17 ar 
    30   19   18 ar 
    31   22   21 1  
    32   22   26 ar 
    33   24   23 ar 
    34   24   32 1  
    35   27   28 1  
    36   29   30 1  
    37   32   33 1  
    38    5   34 1  
    39    7   35 1  
    40    9   36 1  
    41    9   37 1  
    42    9   38 1  
    43   10   39 1  
    44   14   40 1  
    45   15   41 1  
    46   16   42 1  
    47   18   43 1  
    48   19   44 1  
    49   20   45 1  
    50   23   46 1  
    51   26   47 1  
    52   28   48 1  
    53   28   49 1  
    54   29   50 1  
    55   29   51 1  
    56   30   52 1  
    57   30   53 1  
    58   31   54 1  
    59   31   55 1  
    60   31   56 1  
    61   33   57 1  
    62   33   58 1  
    63   33   59 1  
@<TRIPOS>SUBSTRUCTURE
     1 3ZC         1

