### 
### Created by X-TOOL on Mon Sep 10 21:13:21 2018
### 

@<TRIPOS>MOLECULE
4rx5_ligand
   65    70     1     0     0
SMALL
GAST_HUCK


@<TRIPOS>ATOM
      1 C1        -37.6010   27.5110   -6.9450 C.3       1 3YO        -0.0359
      2 C2        -38.6550   27.6910   -7.9990 C.ar      1 3YO        -0.0181
      3 C3        -38.3360   28.0380   -9.3190 C.ar      1 3YO        -0.0209
      4 C4        -39.3430   28.1660  -10.2640 C.ar      1 3YO        -0.0782
      5 C5        -40.6630   27.9630   -9.9000 C.ar      1 3YO        -0.0493
      6 C6        -40.9680   27.6190   -8.6060 C.ar      1 3YO         0.1439
      7 C7        -39.9810   27.4750   -7.6500 C.ar      1 3YO         0.1006
      8 N8        -40.2910   27.1250   -6.3220 N.am      1 3YO        -0.2364
      9 C9        -40.8680   28.0100   -5.5010 C.2       1 3YO         0.2388
     10 O10       -41.0910   29.1440   -5.8800 O.2       1 3YO        -0.3761
     11 C11       -41.1540   27.6720   -4.1020 C.2       1 3YO         0.1104
     12 C12       -40.7790   26.5840   -3.4110 C.2       1 3YO        -0.0359
     13 C13       -41.1790   26.5770   -2.0570 C.ar      1 3YO        -0.0147
     14 C14       -40.9710   25.5970   -1.0530 C.ar      1 3YO        -0.0623
     15 C15       -41.4480   25.7810    0.2110 C.ar      1 3YO        -0.0688
     16 C16       -42.1340   26.9440    0.5510 C.ar      1 3YO        -0.0679
     17 C17       -42.3530   27.9080   -0.3940 C.ar      1 3YO        -0.0469
     18 C18       -41.8760   27.7340   -1.6940 C.ar      1 3YO         0.0418
     19 S19       -42.0050   28.8050   -3.0760 S.3       1 3YO        -0.0226
     20 F20       -42.2630   27.4200   -8.2610 F         1 3YO        -0.1969
     21 C21       -36.9310   28.2490   -9.7510 C.2       1 3YO         0.0449
     22 C22       -36.4480   27.6660  -10.9450 C.2       1 3YO        -0.0384
     23 C23       -35.1440   27.8730  -11.3130 C.3       1 3YO         0.1362
     24 C24       -34.3150   28.6610  -10.4830 C.2       1 3YO         0.2261
     25 O25       -33.1340   28.8510  -10.7640 O.2       1 3YO        -0.3906
     26 N26       -34.8140   29.1970   -9.3730 N.am      1 3YO        -0.1895
     27 N28       -36.1470   28.9990   -9.0180 N.pl3     1 3YO        -0.2345
     28 N29       -34.5160   27.3620  -12.4510 N.pl3     1 3YO        -0.2996
     29 C30       -35.1450   26.8340  -13.5690 C.2       1 3YO         0.0732
     30 C31       -34.5380   26.6180  -14.8240 C.2       1 3YO        -0.0259
     31 C32       -35.4820   26.0920  -15.6250 C.2       1 3YO         0.1047
     32 N33       -36.6240   25.9810  -14.9080 N.pl3     1 3YO        -0.2121
     33 N34       -36.3910   26.4410  -13.6280 N.2       1 3YO        -0.2353
     34 C35       -37.8840   25.4560  -15.4250 C.3       1 3YO         0.1035
     35 C36       -37.8340   25.6230  -16.9480 C.3       1 3YO        -0.0017
     36 N37       -36.6120   25.0030  -17.4820 N.4       1 3YO         0.2502
     37 C38       -35.3630   25.6830  -17.0730 C.3       1 3YO         0.0285
     38 C39       -36.6840   24.9120  -18.9480 C.3       1 3YO        -0.0413
     39 H1        -36.6109   27.7177   -7.3775 H         1 3YO         0.0362
     40 H2        -37.6291   26.4769   -6.5711 H         1 3YO         0.0362
     41 H3        -37.7906   28.2066   -6.1142 H         1 3YO         0.0362
     42 H4        -39.0965   28.4249  -11.2873 H         1 3YO         0.0450
     43 H5        -41.4530   28.0752  -10.6337 H         1 3YO         0.0507
     44 H6        -40.0779   26.2064   -5.9892 H         1 3YO         0.2213
     45 H7        -40.2108   25.7705   -3.8596 H         1 3YO         0.0545
     46 H8        -40.4264   24.6911   -1.2934 H         1 3YO         0.0594
     47 H9        -41.2914   25.0130    0.9598 H         1 3YO         0.0564
     48 H10       -42.4941   27.0852    1.5637 H         1 3YO         0.0588
     49 H11       -42.8976   28.8082   -0.1331 H         1 3YO         0.0576
     50 H12       -37.1051   27.0588  -11.5658 H         1 3YO         0.0365
     51 H13       -35.4621   28.7571  -11.8850 H         1 3YO         0.0881
     52 H14       -34.2242   29.7501   -8.7846 H         1 3YO         0.2152
     53 H15       -36.5198   29.4478   -8.1692 H         1 3YO         0.2006
     54 H16       -33.4862   27.3788  -12.4611 H         1 3YO         0.1765
     55 H17       -33.5051   26.8351  -15.0924 H         1 3YO         0.0208
     56 H18       -38.7306   26.0215  -15.0085 H         1 3YO         0.0673
     57 H19       -37.9887   24.3929  -15.1627 H         1 3YO         0.0673
     58 H20       -37.8378   26.6943  -17.1973 H         1 3YO         0.0842
     59 H21       -38.7140   25.1390  -17.3967 H         1 3YO         0.0842
     60 H22       -36.5720   24.0646  -17.1161 H         1 3YO         0.2049
     61 H23       -34.5120   24.9967  -17.1943 H         1 3YO         0.1028
     62 H24       -35.2066   26.5751  -17.6973 H         1 3YO         0.1028
     63 H25       -37.6160   24.4051  -19.2385 H         1 3YO         0.0778
     64 H26       -35.8229   24.3391  -19.3226 H         1 3YO         0.0778
     65 H27       -36.6670   25.9237  -19.3795 H         1 3YO         0.0778
@<TRIPOS>BOND
     1    1    2 1  
     2    2    3 ar 
     3    2    7 ar 
     4    3    4 ar 
     5    3   21 1  
     6    4    5 ar 
     7    5    6 ar 
     8    6    7 ar 
     9    6   20 1  
    10    7    8 1  
    11    8    9 am 
    12    9   10 2  
    13    9   11 1  
    14   11   12 2  
    15   11   19 1  
    16   12   13 1  
    17   13   14 ar 
    18   13   18 ar 
    19   14   15 ar 
    20   15   16 ar 
    21   16   17 ar 
    22   17   18 ar 
    23   18   19 1  
    24   21   22 2  
    25   21   27 1  
    26   22   23 1  
    27   23   24 1  
    28   23   28 1  
    29   24   25 2  
    30   24   26 am 
    31   26   27 1  
    32   28   29 1  
    33   29   30 1  
    34   29   33 2  
    35   30   31 2  
    36   31   32 1  
    37   31   37 1  
    38   32   33 1  
    39   32   34 1  
    40   34   35 1  
    41   35   36 1  
    42   36   37 1  
    43   36   38 1  
    44    1   39 1  
    45    1   40 1  
    46    1   41 1  
    47    4   42 1  
    48    5   43 1  
    49    8   44 1  
    50   12   45 1  
    51   14   46 1  
    52   15   47 1  
    53   16   48 1  
    54   17   49 1  
    55   22   50 1  
    56   23   51 1  
    57   26   52 1  
    58   27   53 1  
    59   28   54 1  
    60   30   55 1  
    61   34   56 1  
    62   34   57 1  
    63   35   58 1  
    64   35   59 1  
    65   36   60 1  
    66   37   61 1  
    67   37   62 1  
    68   38   63 1  
    69   38   64 1  
    70   38   65 1  
@<TRIPOS>SUBSTRUCTURE
     1 3YO         1

