### 
### Created by X-TOOL on Mon Sep 10 21:13:23 2018
### 

@<TRIPOS>MOLECULE
4rx7_ligand
   52    55     1     0     0
SMALL
GAST_HUCK


@<TRIPOS>ATOM
      1 C4          1.3570    4.4500   10.8530 C.3       1 3YV        -0.0239
      2 C5          1.5020    3.7750   12.2200 C.3       1 3YV         0.0858
      3 C6          3.4070    2.7040   13.3730 C.ar      1 3YV         0.1590
      4 N1          2.8780    3.7260   12.6720 N.pl3     1 3YV        -0.2830
      5 C7          4.4520    0.7630   14.8460 C.ar      1 3YV         0.2206
      6 C8          5.1000   -0.2870   15.7220 C.2       1 3YV         0.2507
      7 N2          4.6760    2.8460   13.7920 N.ar      1 3YV        -0.2626
      8 C9          3.1170    0.6480   14.3540 C.ar      1 3YV         0.2138
      9 C10         1.0050   -0.7670   14.4150 C.ar      1 3YV         0.0733
     10 C11         0.5230   -1.8870   15.0870 C.ar      1 3YV        -0.0401
     11 C12        -0.8090   -2.2460   14.9650 C.ar      1 3YV        -0.0718
     12 N3          5.1900    1.8600   14.5510 N.ar      1 3YV        -0.2112
     13 C13        -1.6760   -1.4880   14.1970 C.ar      1 3YV        -0.0317
     14 C14        -1.2030   -0.3640   13.5110 C.ar      1 3YV         0.1269
     15 C15         0.1450   -0.0080   13.6260 C.ar      1 3YV         0.0045
     16 N4          6.3820   -0.1090   15.9930 N.am      1 3YV        -0.2941
     17 O           4.4530   -1.2530   16.1380 O.2       1 3YV        -0.3677
     18 N9          2.5990    1.6510   13.6220 N.ar      1 3YV        -0.2194
     19 C3         -0.1070    4.5950   10.4410 C.3       1 3YV        -0.0505
     20 C2         -0.9390    5.2710   11.5320 C.3       1 3YV        -0.0478
     21 C1         -0.8240    4.5400   12.8710 C.3       1 3YV        -0.0075
     22 C           0.6160    4.4540   13.3580 C.3       1 3YV        -0.0002
     23 N           1.1250    5.7990   13.6980 N.4       1 3YV         0.2224
     24 N5          2.3530   -0.4530   14.6520 N.pl3     1 3YV        -0.2316
     25 N6         -2.1270    0.4600   12.8010 N.pl3     1 3YV        -0.0834
     26 N8         -1.7860    1.3820   11.9010 N.2       1 3YV        -0.1626
     27 C17        -2.9220    1.9020   11.4550 C.2       1 3YV         0.0361
     28 C16        -4.0040    1.2130   12.1370 C.2       1 3YV         0.0361
     29 N7         -3.4500    0.3230   12.9500 N.2       1 3YV        -0.1626
     30 H1          1.8799    3.8428   10.0994 H         1 3YV         0.0290
     31 H2          1.8138    5.4496   10.8998 H         1 3YV         0.0290
     32 H3          1.1518    2.7390   12.1013 H         1 3YV         0.0621
     33 H4          3.4900    4.5222   12.4431 H         1 3YV         0.1898
     34 H5          1.1896   -2.4775   15.7051 H         1 3YV         0.0506
     35 H6         -1.1761   -3.1289   15.4757 H         1 3YV         0.0579
     36 H7         -2.7216   -1.7653   14.1270 H         1 3YV         0.0516
     37 H8          0.5211    0.8615   13.0991 H         1 3YV         0.0528
     38 H9          6.8680   -0.7682   16.5668 H         1 3YV         0.1817
     39 H10         6.8655    0.6848   15.6241 H         1 3YV         0.1817
     40 H11        -0.5223    3.5956   10.2442 H         1 3YV         0.0266
     41 H12        -0.1609    5.2014    9.5249 H         1 3YV         0.0266
     42 H13        -1.9940    5.2797   11.2209 H         1 3YV         0.0267
     43 H14        -0.5858    6.3049   11.6596 H         1 3YV         0.0267
     44 H15        -1.2194    3.5203   12.7530 H         1 3YV         0.0321
     45 H16        -1.4200    5.0798   13.6216 H         1 3YV         0.0321
     46 H17         0.6531    3.8265   14.2607 H         1 3YV         0.0873
     47 H18         2.0780    5.7265   14.0184 H         1 3YV         0.1998
     48 H19         0.5552    6.1997   14.4266 H         1 3YV         0.1998
     49 H20         1.0892    6.3883   12.8810 H         1 3YV         0.1998
     50 H21         2.8700   -1.1941   15.1464 H         1 3YV         0.2326
     51 H22        -3.0242    2.6959   10.7166 H         1 3YV         0.0732
     52 H23        -5.0699    1.3933   12.0055 H         1 3YV         0.0732
@<TRIPOS>BOND
     1    2    1 1  
     2    1   19 1  
     3    4    2 1  
     4    2   22 1  
     5    3    4 1  
     6    3    7 ar 
     7   18    3 ar 
     8    5    6 1  
     9    8    5 ar 
    10    5   12 ar 
    11    6   16 am 
    12    6   17 2  
    13   12    7 ar 
    14    8   18 ar 
    15   24    8 1  
    16    9   10 ar 
    17    9   15 ar 
    18    9   24 1  
    19   10   11 ar 
    20   11   13 ar 
    21   13   14 ar 
    22   14   15 ar 
    23   14   25 1  
    24   19   20 1  
    25   20   21 1  
    26   21   22 1  
    27   22   23 1  
    28   25   26 1  
    29   25   29 1  
    30   26   27 2  
    31   27   28 1  
    32   28   29 2  
    33    1   30 1  
    34    1   31 1  
    35    2   32 1  
    36    4   33 1  
    37   10   34 1  
    38   11   35 1  
    39   13   36 1  
    40   15   37 1  
    41   16   38 1  
    42   16   39 1  
    43   19   40 1  
    44   19   41 1  
    45   20   42 1  
    46   20   43 1  
    47   21   44 1  
    48   21   45 1  
    49   22   46 1  
    50   23   47 1  
    51   23   48 1  
    52   23   49 1  
    53   24   50 1  
    54   27   51 1  
    55   28   52 1  
@<TRIPOS>SUBSTRUCTURE
     1 3YV         1

