### 
### Created by X-TOOL on Mon Sep 10 21:13:23 2018
### 

@<TRIPOS>MOLECULE
4rx8_ligand
   50    53     1     0     0
SMALL
GAST_HUCK


@<TRIPOS>ATOM
      1 C1          0.4040    4.5760   10.2660 C.3       1 3YX        -0.0505
      2 C2         -0.6060    5.1660   11.2460 C.3       1 3YX        -0.0478
      3 C3         -0.5780    4.4630   12.5860 C.3       1 3YX        -0.0076
      4 C11        -1.0940    0.0410   12.8480 C.ar      1 3YX        -0.0873
      5 C12        -1.8660   -0.9650   13.4600 C.ar      1 3YX        -0.0855
      6 C14         4.2700    0.5710   14.9430 C.ar      1 3YX         0.2196
      7 C17         3.4900    2.6720   13.4590 C.ar      1 3YX         0.1574
      8 C19         3.0610    0.5460   14.2940 C.ar      1 3YX         0.2120
      9 C20         4.7630   -0.5620   15.7870 C.2       1 3YX         0.2506
     10 C22         0.1180   -1.5670   14.6710 C.ar      1 3YX         0.0952
     11 C23        -1.2090   -1.7650   14.3790 C.ar      1 3YX        -0.0341
     12 C24        -1.5730   -2.9370   15.2710 C.2       1 3YX        -0.0668
     13 C25        -0.4730   -3.2200   15.9460 C.2       1 3YX         0.0199
     14 C4          0.8060    4.4470   13.2100 C.3       1 3YX        -0.0002
     15 C5          1.7670    3.7770   12.2000 C.3       1 3YX         0.0857
     16 C6          1.7780    4.5750   10.8960 C.3       1 3YX        -0.0239
     17 N7          3.0750    3.6960   12.7390 N.pl3     1 3YX        -0.2833
     18 N8          1.2050    5.8290   13.5360 N.4       1 3YX         0.2224
     19 C9          0.9170   -0.5560   14.0720 C.ar      1 3YX         0.0981
     20 C10         0.2710    0.2170   13.1250 C.ar      1 3YX        -0.0484
     21 N13         2.2170   -0.4930   14.4300 N.pl3     1 3YX        -0.2326
     22 N15         5.0550    1.6610   14.8300 N.ar      1 3YX        -0.2126
     23 N16         4.6510    2.6780   14.0910 N.ar      1 3YX        -0.2643
     24 N18         2.7020    1.6040   13.5830 N.ar      1 3YX        -0.2215
     25 O21         4.0550   -1.4470   16.0680 O.2       1 3YX        -0.3677
     26 N26         0.4960   -2.4300   15.5860 N.pl3     1 3YX        -0.2809
     27 N27         6.0020   -0.4850   16.1740 N.am      1 3YX        -0.2941
     28 H1          0.4220    5.1828    9.3487 H         1 3YX         0.0266
     29 H2          0.1141    3.5444   10.0177 H         1 3YX         0.0266
     30 H3         -1.6142    5.0704   10.8166 H         1 3YX         0.0267
     31 H4         -0.3719    6.2299   11.3989 H         1 3YX         0.0267
     32 H5         -0.9129    3.4246   12.4458 H         1 3YX         0.0321
     33 H6         -1.2664    4.9812   13.2698 H         1 3YX         0.0321
     34 H7         -1.5716    0.7045   12.1362 H         1 3YX         0.0490
     35 H8         -2.9149   -1.1050   13.2249 H         1 3YX         0.0447
     36 H9         -2.5370   -3.4388   15.3403 H         1 3YX         0.0279
     37 H10        -0.3893   -4.0037   16.6975 H         1 3YX         0.0926
     38 H11         0.7891    3.8553   14.1371 H         1 3YX         0.0873
     39 H12         1.4084    2.7584   11.9906 H         1 3YX         0.0621
     40 H13         2.0801    5.6112   11.1080 H         1 3YX         0.0290
     41 H14         2.4960    4.1191   10.1984 H         1 3YX         0.0290
     42 H15         3.7301    4.4706   12.5607 H         1 3YX         0.1897
     43 H16         0.5506    6.2210   14.1949 H         1 3YX         0.1998
     44 H17         1.2088    6.3849   12.6951 H         1 3YX         0.1998
     45 H18         2.1281    5.8256   13.9408 H         1 3YX         0.1998
     46 H19         0.8294    0.9737   12.5859 H         1 3YX         0.0454
     47 H20         2.6103   -1.3428   14.8590 H         1 3YX         0.2319
     48 H21         1.4492   -2.4760   15.9737 H         1 3YX         0.2260
     49 H22         6.3948   -1.2093   16.7407 H         1 3YX         0.1817
     50 H23         6.5621    0.2985   15.9050 H         1 3YX         0.1817
@<TRIPOS>BOND
     1    1    2 1  
     2   16    1 1  
     3    3    2 1  
     4   14    3 1  
     5    4    5 ar 
     6   20    4 ar 
     7   11    5 ar 
     8    8    6 ar 
     9    6    9 1  
    10    6   22 ar 
    11    7   17 1  
    12    7   23 ar 
    13   24    7 ar 
    14   21    8 1  
    15    8   24 ar 
    16    9   25 2  
    17    9   27 am 
    18   10   11 ar 
    19   19   10 ar 
    20   10   26 1  
    21   11   12 1  
    22   13   12 2  
    23   26   13 1  
    24   15   14 1  
    25   14   18 1  
    26   15   16 1  
    27   17   15 1  
    28   19   20 ar 
    29   19   21 1  
    30   22   23 ar 
    31    1   28 1  
    32    1   29 1  
    33    2   30 1  
    34    2   31 1  
    35    3   32 1  
    36    3   33 1  
    37    4   34 1  
    38    5   35 1  
    39   12   36 1  
    40   13   37 1  
    41   14   38 1  
    42   15   39 1  
    43   16   40 1  
    44   16   41 1  
    45   17   42 1  
    46   18   43 1  
    47   18   44 1  
    48   18   45 1  
    49   20   46 1  
    50   21   47 1  
    51   26   48 1  
    52   27   49 1  
    53   27   50 1  
@<TRIPOS>SUBSTRUCTURE
     1 3YX         1

