### 
### Created by X-TOOL on Mon Sep 10 21:13:23 2018
### 

@<TRIPOS>MOLECULE
4rx9_ligand
   53    56     1     0     0
SMALL
GAST_HUCK


@<TRIPOS>ATOM
      1 C2          0.7180    4.4890   13.2900 C.3       1 3YT        -0.0004
      2 C3         -0.7130    4.6440   12.7470 C.3       1 3YT        -0.0076
      3 C11         5.2170    1.8220   14.5260 C.ar      1 3YT         0.0213
      4 C12         4.4300    0.6850   14.7330 C.ar      1 3YT         0.1078
      5 C13         4.9710   -0.4290   15.5510 C.2       1 3YT         0.1994
      6 C16         3.1500    0.6100   14.2180 C.ar      1 3YT         0.1536
      7 C18         1.1240   -0.6660   14.3210 C.ar      1 3YT         0.0621
      8 C19         0.5630   -1.7050   15.0130 C.ar      1 3YT        -0.0439
      9 C20        -0.7590   -2.0190   14.8630 C.ar      1 3YT        -0.0739
     10 C21        -1.5550   -1.2470   14.0420 C.ar      1 3YT        -0.0336
     11 C22        -1.0320   -0.1890   13.3200 C.ar      1 3YT         0.1248
     12 C23         0.3360    0.0910   13.4620 C.ar      1 3YT         0.0007
     13 C26        -3.8080    1.2280   11.9570 C.2       1 3YT         0.0362
     14 C27        -2.7330    1.9180   11.2450 C.2       1 3YT         0.0362
     15 N1          1.2070    5.8250   13.6600 N.4       1 3YT         0.2224
     16 C4         -0.7520    5.3880   11.3930 C.3       1 3YT        -0.0478
     17 C5          0.1280    4.6870   10.3370 C.3       1 3YT        -0.0505
     18 C6          1.5640    4.7040   10.8860 C.3       1 3YT        -0.0241
     19 C7          1.6340    3.8850   12.1900 C.3       1 3YT         0.0850
     20 N8          3.0030    3.7850   12.6300 N.pl3     1 3YT        -0.2812
     21 C9          3.4680    2.7320   13.3130 C.ar      1 3YT         0.1799
     22 N10         4.6980    2.8070   13.8170 N.ar      1 3YT        -0.2650
     23 N14         6.2030   -0.3310   15.8860 N.am      1 3YT        -0.3023
     24 O15         4.2250   -1.2820   15.9020 O.2       1 3YT        -0.3927
     25 N17         2.4190   -0.4840   14.4890 N.pl3     1 3YT        -0.2535
     26 N24        -1.9070    0.5170   12.5830 N.pl3     1 3YT        -0.0838
     27 N25        -3.2430    0.4460   12.7360 N.2       1 3YT        -0.1626
     28 N28        -1.6570    1.4470   11.6780 N.2       1 3YT        -0.1626
     29 N29         2.6950    1.6520   13.5010 N.ar      1 3YT        -0.2318
     30 H1          0.7163    3.8313   14.1717 H         1 3YT         0.0873
     31 H2         -1.3090    5.2098   13.4782 H         1 3YT         0.0320
     32 H3         -1.1503    3.6436   12.6130 H         1 3YT         0.0320
     33 H4          6.2189    1.8922   14.9338 H         1 3YT         0.0905
     34 H5          1.1764   -2.2879   15.6905 H         1 3YT         0.0488
     35 H6         -1.1797   -2.8700   15.3863 H         1 3YT         0.0574
     36 H7         -2.6119   -1.4741   13.9610 H         1 3YT         0.0501
     37 H8          0.7809    0.9029   12.8981 H         1 3YT         0.0510
     38 H9         -4.8800    1.3710   11.8297 H         1 3YT         0.0732
     39 H10        -2.8464    2.6908   10.4862 H         1 3YT         0.0732
     40 H11         2.1457    5.7514   14.0199 H         1 3YT         0.1998
     41 H12         0.6061    6.2189   14.3669 H         1 3YT         0.1998
     42 H13         1.2047    6.4208   12.8469 H         1 3YT         0.1998
     43 H14        -0.3857    6.4149   11.5387 H         1 3YT         0.0267
     44 H15        -1.7902    5.4169   11.0308 H         1 3YT         0.0267
     45 H16         0.0800    5.2295    9.3813 H         1 3YT         0.0266
     46 H17        -0.2097    3.6508   10.1879 H         1 3YT         0.0266
     47 H18         1.8647    5.7422   11.0903 H         1 3YT         0.0290
     48 H19         2.2447    4.2647   10.1419 H         1 3YT         0.0290
     49 H20         1.2714    2.8691   11.9744 H         1 3YT         0.0619
     50 H21         3.6500    4.5556   12.4098 H         1 3YT         0.1882
     51 H22         6.6298   -1.0478   16.4374 H         1 3YT         0.1802
     52 H23         6.7384    0.4624   15.5962 H         1 3YT         0.1802
     53 H24         2.9373   -1.2843   14.8785 H         1 3YT         0.2181
@<TRIPOS>BOND
     1    1    2 1  
     2    1   15 1  
     3   19    1 1  
     4    2   16 1  
     5    4    3 ar 
     6    3   22 ar 
     7    4    5 1  
     8    6    4 ar 
     9    5   23 am 
    10    5   24 2  
    11   25    6 1  
    12    6   29 ar 
    13    7    8 ar 
    14   12    7 ar 
    15    7   25 1  
    16    9    8 ar 
    17   10    9 ar 
    18   11   10 ar 
    19   11   12 ar 
    20   26   11 1  
    21   13   14 1  
    22   27   13 2  
    23   14   28 2  
    24   17   16 1  
    25   18   17 1  
    26   19   18 1  
    27   20   19 1  
    28   21   20 1  
    29   21   22 ar 
    30   29   21 ar 
    31   26   27 1  
    32   26   28 1  
    33    1   30 1  
    34    2   31 1  
    35    2   32 1  
    36    3   33 1  
    37    8   34 1  
    38    9   35 1  
    39   10   36 1  
    40   12   37 1  
    41   13   38 1  
    42   14   39 1  
    43   15   40 1  
    44   15   41 1  
    45   15   42 1  
    46   16   43 1  
    47   16   44 1  
    48   17   45 1  
    49   17   46 1  
    50   18   47 1  
    51   18   48 1  
    52   19   49 1  
    53   20   50 1  
    54   23   51 1  
    55   23   52 1  
    56   25   53 1  
@<TRIPOS>SUBSTRUCTURE
     1 3YT         1

