### 
### Created by X-TOOL on Mon Sep 10 21:13:25 2018
### 

@<TRIPOS>MOLECULE
4rxa_ligand
   68    73     1     0     0
SMALL
GAST_HUCK


@<TRIPOS>ATOM
      1 NAY        -7.1930   37.3680  -11.3220 N.pl3     1 3F2        -0.2940
      2 CAU        -7.9830   36.2790  -11.9050 C.3       1 3F2         0.0377
      3 CAS        -9.3870   36.5040  -11.4480 C.3       1 3F2         0.0051
      4 NAW        -9.2640   37.5160  -10.4110 N.2       1 3F2        -0.3569
      5 CBE        -8.0020   38.0070  -10.4050 C.2       1 3F2         0.1091
      6 CBK        -7.5960   38.8940   -9.4610 C.ar      1 3F2         0.0251
      7 CAQ        -6.3550   39.4570   -9.5650 C.ar      1 3F2        -0.0195
      8 CAG        -8.3690   39.1730   -8.3360 C.ar      1 3F2        -0.0550
      9 CAC        -7.8910   40.0570   -7.3460 C.ar      1 3F2        -0.0669
     10 CAE        -6.6390   40.6450   -7.4880 C.ar      1 3F2        -0.0342
     11 CBG        -5.8930   40.3540   -8.6150 C.ar      1 3F2         0.0740
     12 NBA        -4.7290   40.8040   -8.8220 N.am      1 3F2        -0.2319
     13 CBC        -4.6120   41.6220   -9.8550 C.2       1 3F2         0.2322
     14 OAA        -5.5910   42.0450  -10.4800 O.2       1 3F2        -0.3732
     15 CBI        -3.4480   41.4360  -10.4630 C.ar      1 3F2         0.0560
     16 CAJ        -2.2480   41.5190   -9.7780 C.ar      1 3F2        -0.0408
     17 CAN        -1.0810   41.1270  -10.4260 C.ar      1 3F2        -0.0480
     18 CAI        -3.5010   40.8090  -11.6840 C.ar      1 3F2        -0.0408
     19 CAM        -2.3620   40.4250  -12.3190 C.ar      1 3F2        -0.0480
     20 CBM        -1.1410   40.7040  -11.7550 C.ar      1 3F2        -0.0116
     21 CBN        -0.1330   40.0470  -12.2560 C.ar      1 3F2        -0.0116
     22 CAP        -0.1100   38.8080  -11.7240 C.ar      1 3F2        -0.0480
     23 CAL         0.7430   37.8950  -12.1340 C.ar      1 3F2        -0.0408
     24 CAO         0.6780   40.3740  -13.3610 C.ar      1 3F2        -0.0480
     25 CAK         1.6230   39.3970  -13.7930 C.ar      1 3F2        -0.0408
     26 CBJ         1.6340   38.1550  -13.1130 C.ar      1 3F2         0.0560
     27 CBD         2.3700   37.0730  -13.4020 C.2       1 3F2         0.2322
     28 OAB         2.6890   36.7980  -14.5460 O.2       1 3F2        -0.3732
     29 NBB         2.2420   36.1670  -12.3870 N.am      1 3F2        -0.2319
     30 CBH         2.4800   34.8910  -12.5970 C.ar      1 3F2         0.0740
     31 CAR         3.2270   34.1250  -11.6620 C.ar      1 3F2        -0.0195
     32 CAF         1.7730   34.2520  -13.6060 C.ar      1 3F2        -0.0342
     33 CAD         1.9250   32.8940  -13.7940 C.ar      1 3F2        -0.0669
     34 CAH         2.7090   32.1410  -12.9280 C.ar      1 3F2        -0.0550
     35 CBL         3.3670   32.7340  -11.8600 C.ar      1 3F2         0.0251
     36 CBF         4.1250   31.9430  -11.0310 C.2       1 3F2         0.1091
     37 NAX         3.9470   30.5890  -11.0020 N.2       1 3F2        -0.3569
     38 CAT         4.8920   29.9990  -10.0990 C.3       1 3F2         0.0051
     39 CAV         5.9240   31.0330  -10.0470 C.3       1 3F2         0.0377
     40 NAZ         5.1300   32.2840  -10.1940 N.pl3     1 3F2        -0.2940
     41 H1         -6.2189   37.6101  -11.5532 H         1 3F2         0.1892
     42 H2         -7.6155   35.3056  -11.5480 H         1 3F2         0.0532
     43 H3         -7.9280   36.3114  -13.0031 H         1 3F2         0.0532
     44 H4         -9.8183   35.5778  -11.0406 H         1 3F2         0.0349
     45 H5        -10.0137   36.8672  -12.2758 H         1 3F2         0.0349
     46 H6         -5.7211   39.1974  -10.4051 H         1 3F2         0.0573
     47 H7         -9.3418   38.7089   -8.2209 H         1 3F2         0.0564
     48 H8         -8.4988   40.2775   -6.4759 H         1 3F2         0.0596
     49 H9         -6.2554   41.3183   -6.7300 H         1 3F2         0.0560
     50 H10        -3.9506   40.5582   -8.2443 H         1 3F2         0.2252
     51 H11        -2.2182   41.8822   -8.7571 H         1 3F2         0.0669
     52 H12        -0.1320   41.1499   -9.9027 H         1 3F2         0.0638
     53 H13        -4.4625   40.6181  -12.1467 H         1 3F2         0.0669
     54 H14        -2.4171   39.9009  -13.2663 H         1 3F2         0.0638
     55 H15        -0.8131   38.5581  -10.9377 H         1 3F2         0.0638
     56 H16         0.7299   36.9128  -11.6756 H         1 3F2         0.0669
     57 H17         0.5872   41.3305  -13.8630 H         1 3F2         0.0638
     58 H18         2.3064   39.5975  -14.6103 H         1 3F2         0.0669
     59 H19         1.9652   36.4769  -11.4774 H         1 3F2         0.2252
     60 H20         3.6853   34.6042  -10.8044 H         1 3F2         0.0573
     61 H21         1.1039   34.8180  -14.2439 H         1 3F2         0.0560
     62 H22         1.4276   32.4089  -14.6261 H         1 3F2         0.0596
     63 H23         2.8080   31.0737  -13.0895 H         1 3F2         0.0564
     64 H24         5.2899   29.0528  -10.4944 H         1 3F2         0.0349
     65 H25         4.4471   29.8243   -9.1083 H         1 3F2         0.0349
     66 H26         6.6435   30.9191  -10.8712 H         1 3F2         0.0532
     67 H27         6.4601   31.0124   -9.0867 H         1 3F2         0.0532
     68 H28         5.3064   33.2001   -9.7575 H         1 3F2         0.1892
@<TRIPOS>BOND
     1    1    2 1  
     2    1    5 1  
     3    2    3 1  
     4    3    4 1  
     5    4    5 2  
     6    5    6 1  
     7    6    7 ar 
     8    6    8 ar 
     9    7   11 ar 
    10    8    9 ar 
    11    9   10 ar 
    12   10   11 ar 
    13   11   12 1  
    14   12   13 am 
    15   13   14 2  
    16   13   15 1  
    17   15   16 ar 
    18   15   18 ar 
    19   16   17 ar 
    20   17   20 ar 
    21   18   19 ar 
    22   19   20 ar 
    23   20   21 1  
    24   21   22 ar 
    25   21   24 ar 
    26   22   23 ar 
    27   23   26 ar 
    28   24   25 ar 
    29   25   26 ar 
    30   26   27 1  
    31   27   28 2  
    32   27   29 am 
    33   29   30 1  
    34   30   31 ar 
    35   30   32 ar 
    36   31   35 ar 
    37   32   33 ar 
    38   33   34 ar 
    39   34   35 ar 
    40   35   36 1  
    41   36   37 2  
    42   36   40 1  
    43   37   38 1  
    44   38   39 1  
    45   39   40 1  
    46    1   41 1  
    47    2   42 1  
    48    2   43 1  
    49    3   44 1  
    50    3   45 1  
    51    7   46 1  
    52    8   47 1  
    53    9   48 1  
    54   10   49 1  
    55   12   50 1  
    56   16   51 1  
    57   17   52 1  
    58   18   53 1  
    59   19   54 1  
    60   22   55 1  
    61   23   56 1  
    62   24   57 1  
    63   25   58 1  
    64   29   59 1  
    65   31   60 1  
    66   32   61 1  
    67   33   62 1  
    68   34   63 1  
    69   38   64 1  
    70   38   65 1  
    71   39   66 1  
    72   39   67 1  
    73   40   68 1  
@<TRIPOS>SUBSTRUCTURE
     1 3F2         1

