### 
### Created by X-TOOL on Mon Sep 10 21:13:24 2018
### 

@<TRIPOS>MOLECULE
4ryc_ligand
   77    79     1     0     0
SMALL
GAST_HUCK


@<TRIPOS>ATOM
      1 C2         70.5090    8.9850   47.8850 C.2       1 3ZK         0.1969
      2 C13        72.0040   12.4860   47.7530 C.ar      1 3ZK         0.1256
      3 C16        72.7770   12.5180   48.9420 C.ar      1 3ZK         0.1251
      4 C17        72.0660   10.2430   49.4590 C.ar      1 3ZK        -0.0615
      5 C18        68.2550    9.9880   48.1700 C.3       1 3ZK         0.0387
      6 C19        72.7830   11.3950   49.8080 C.ar      1 3ZK        -0.0349
      7 C20        67.6620    2.8620   43.1710 C.ar      1 3ZK        -0.0420
      8 C21        67.8300    1.5720   45.2200 C.ar      1 3ZK        -0.0420
      9 C22        68.2850    7.9860   44.7120 C.3       1 3ZK        -0.0269
     10 C23        67.0020    5.9890   44.8900 C.3       1 3ZK        -0.0130
     11 C25        66.5150    2.1240   42.8150 C.ar      1 3ZK        -0.0588
     12 C26        66.6900    0.8340   44.8550 C.ar      1 3ZK        -0.0588
     13 C27        66.0240    1.1070   43.6530 C.ar      1 3ZK        -0.0460
     14 C29        70.0030   14.4300   45.8740 C.3       1 3ZK        -0.0020
     15 S1         69.7810    3.4820   44.8180 S.o2      1 3ZK         0.0656
     16 N3         69.1510    8.8890   47.7210 N.am      1 3ZK        -0.2711
     17 N4         69.2980    5.0210   44.6040 N.am      1 3ZK        -0.2395
     18 C5         68.5640    7.5890   47.2940 C.3       1 3ZK         0.0430
     19 C6         68.8960    7.1360   45.8410 C.3       1 3ZK         0.0439
     20 C7         71.2750   10.2260   48.2940 C.ar      1 3ZK         0.0297
     21 C8         68.3850    5.7140   45.5030 C.3       1 3ZK         0.0869
     22 C9         68.3070    2.5950   44.3830 C.ar      1 3ZK         0.1011
     23 C10        71.2690   11.3230   47.4190 C.ar      1 3ZK        -0.0217
     24 O11        70.8110    3.1790   43.8530 O.2       1 3ZK        -0.1512
     25 O12        70.1260    3.2640   46.1910 O.2       1 3ZK        -0.1512
     26 N14        67.2900    7.1400   44.0220 N.4       1 3ZK         0.2286
     27 O15        71.2800    8.0730   47.6110 O.2       1 3ZK        -0.3896
     28 O24        72.0720   13.6400   46.9480 O.3       1 3ZK        -0.3206
     29 O28        73.5520   13.6730   49.1900 O.3       1 3ZK        -0.3213
     30 O30        69.7920   15.4010   43.6560 O.3       1 3ZK        -0.3829
     31 C31        71.4090   13.8180   45.6830 C.3       1 3ZK         0.0701
     32 C32        69.2210   14.4300   44.5430 C.3       1 3ZK         0.0497
     33 C33        67.1980   10.6260   47.2220 C.3       1 3ZK        -0.0421
     34 C34        67.7100    9.6440   49.5850 C.3       1 3ZK        -0.0421
     35 C35        64.7720    0.3080   43.2640 C.3       1 3ZK        -0.0311
     36 C36        74.2910   13.8500   50.4140 C.3       1 3ZK         0.0582
     37 C37        69.9580   14.9080   42.3180 C.3       1 3ZK         0.0364
     38 H1         72.1203    9.3618   50.0879 H         1 3ZK         0.0551
     39 H2         68.9505   10.8239   48.3357 H         1 3ZK         0.0552
     40 H3         73.3406   11.4278   50.7370 H         1 3ZK         0.0524
     41 H4         68.0419    3.6320   42.5093 H         1 3ZK         0.0619
     42 H5         68.3422    1.3512   46.1495 H         1 3ZK         0.0619
     43 H6         69.0698    8.2971   44.0068 H         1 3ZK         0.0818
     44 H7         67.7959    8.8769   45.1327 H         1 3ZK         0.0818
     45 H8         66.2630    6.2442   45.6638 H         1 3ZK         0.0833
     46 H9         66.6416    5.1275   44.3086 H         1 3ZK         0.0833
     47 H10        66.0051    2.3431   41.8838 H         1 3ZK         0.0557
     48 H11        66.3244    0.0493   45.5074 H         1 3ZK         0.0557
     49 H12        70.1055   15.4650   46.2322 H         1 3ZK         0.0313
     50 H13        69.4496   13.8377   46.6176 H         1 3ZK         0.0313
     51 H14        69.6476    5.5192   43.8106 H         1 3ZK         0.1677
     52 H15        67.4703    7.6687   47.3803 H         1 3ZK         0.0527
     53 H16        68.9305    6.8120   47.9810 H         1 3ZK         0.0527
     54 H17        69.9917    7.1592   45.7471 H         1 3ZK         0.0393
     55 H18        68.2789    5.1142   46.4190 H         1 3ZK         0.0570
     56 H19        70.7056   11.2803   46.4939 H         1 3ZK         0.0557
     57 H20        67.6625    6.8209   43.1414 H         1 3ZK         0.2014
     58 H21        66.4460    7.6664   43.8589 H         1 3ZK         0.2014
     59 H22        72.0108   14.4897   45.0532 H         1 3ZK         0.0610
     60 H23        71.3113   12.8406   45.1878 H         1 3ZK         0.0610
     61 H24        68.1681   14.6833   44.7358 H         1 3ZK         0.0560
     62 H25        69.2799   13.4327   44.0826 H         1 3ZK         0.0560
     63 H26        66.6513   11.4143   47.7601 H         1 3ZK         0.0252
     64 H27        66.4911    9.8525   46.8875 H         1 3ZK         0.0252
     65 H28        67.7047   11.0621   46.3485 H         1 3ZK         0.0252
     66 H29        67.0453   10.4506   49.9279 H         1 3ZK         0.0252
     67 H30        68.5509    9.5388   50.2863 H         1 3ZK         0.0252
     68 H31        67.1482    8.6993   49.5419 H         1 3ZK         0.0252
     69 H32        64.3954    0.6657   42.2944 H         1 3ZK         0.0391
     70 H33        63.9963    0.4450   44.0318 H         1 3ZK         0.0391
     71 H34        65.0273   -0.7592   43.1870 H         1 3ZK         0.0391
     72 H35        74.8171   14.8157   50.3883 H         1 3ZK         0.0575
     73 H36        75.0234   13.0363   50.5211 H         1 3ZK         0.0575
     74 H37        73.5968   13.8333   51.2671 H         1 3ZK         0.0575
     75 H38        70.3982   15.6958   41.6890 H         1 3ZK         0.0523
     76 H39        68.9786   14.6176   41.9101 H         1 3ZK         0.0523
     77 H40        70.6245   14.0330   42.3297 H         1 3ZK         0.0523
@<TRIPOS>BOND
     1    1   16 am 
     2   20    1 1  
     3    1   27 2  
     4    2    3 ar 
     5    2   23 ar 
     6   28    2 1  
     7    3    6 ar 
     8    3   29 1  
     9    6    4 ar 
    10   20    4 ar 
    11   16    5 1  
    12    5   33 1  
    13    5   34 1  
    14    7   11 ar 
    15   22    7 ar 
    16    8   12 ar 
    17   22    8 ar 
    18   19    9 1  
    19    9   26 1  
    20   21   10 1  
    21   10   26 1  
    22   11   13 ar 
    23   12   13 ar 
    24   13   35 1  
    25   31   14 1  
    26   14   32 1  
    27   17   15 am 
    28   15   22 1  
    29   15   24 2  
    30   15   25 2  
    31   16   18 1  
    32   21   17 1  
    33   18   19 1  
    34   19   21 1  
    35   23   20 ar 
    36   28   31 1  
    37   29   36 1  
    38   32   30 1  
    39   30   37 1  
    40    4   38 1  
    41    5   39 1  
    42    6   40 1  
    43    7   41 1  
    44    8   42 1  
    45    9   43 1  
    46    9   44 1  
    47   10   45 1  
    48   10   46 1  
    49   11   47 1  
    50   12   48 1  
    51   14   49 1  
    52   14   50 1  
    53   17   51 1  
    54   18   52 1  
    55   18   53 1  
    56   19   54 1  
    57   21   55 1  
    58   23   56 1  
    59   26   57 1  
    60   26   58 1  
    61   31   59 1  
    62   31   60 1  
    63   32   61 1  
    64   32   62 1  
    65   33   63 1  
    66   33   64 1  
    67   33   65 1  
    68   34   66 1  
    69   34   67 1  
    70   34   68 1  
    71   35   69 1  
    72   35   70 1  
    73   35   71 1  
    74   36   72 1  
    75   36   73 1  
    76   36   74 1  
    77   37   75 1  
    78   37   76 1  
    79   37   77 1  
@<TRIPOS>SUBSTRUCTURE
     1 3ZK         1

