### 
### Created by X-TOOL on Mon Sep 10 21:13:23 2018
### 

@<TRIPOS>MOLECULE
4ryg_ligand
   77    79     1     0     0
SMALL
GAST_HUCK


@<TRIPOS>ATOM
      1 C1         44.1380  106.5840   12.0220 C.2       1 3ZJ         0.1969
      2 C3         42.7520  108.6330   11.6500 C.3       1 3ZJ         0.0430
      3 C11        37.6870  106.9640    8.7870 C.3       1 3ZJ         0.1179
      4 C13        47.6710  104.4690   13.5110 C.ar      1 3ZJ         0.1251
      5 C14        45.3570  105.2340   13.8200 C.ar      1 3ZJ        -0.0615
      6 C15        45.0180  108.7490   12.8060 C.3       1 3ZJ         0.0387
      7 C16        46.5040  104.5750   14.3100 C.ar      1 3ZJ        -0.0349
      8 C17        43.1250  108.9260    9.0470 C.3       1 3ZJ        -0.0269
      9 C18        41.0730  110.1750    9.0550 C.3       1 3ZJ        -0.0130
     10 C20        36.9880  108.2760    8.4140 C.ar      1 3ZJ        -0.0204
     11 C22        49.5510  107.0650   10.2690 C.3       1 3ZJ        -0.0020
     12 C24        49.0170  105.6200   10.1540 C.3       1 3ZJ         0.0701
     13 C25        49.5200  107.8190    8.9130 C.3       1 3ZJ         0.0497
     14 C26        45.7320  109.8180   11.9280 C.3       1 3ZJ        -0.0421
     15 C27        44.5660  109.2250   14.2120 C.3       1 3ZJ        -0.0421
     16 C28        35.7580  108.6370    9.0120 C.ar      1 3ZJ        -0.0587
     17 C29        37.5740  109.1250    7.4580 C.ar      1 3ZJ        -0.0587
     18 C30        48.8480  102.6300   14.7980 C.3       1 3ZJ         0.0582
     19 N2         43.9860  107.9590   12.1070 N.am      1 3ZJ        -0.2711
     20 C4         42.2690  108.3750   10.2010 C.3       1 3ZJ         0.0439
     21 N5         39.9990  107.9800    9.3330 N.am      1 3ZJ        -0.2414
     22 C6         45.3620  105.8370   12.5500 C.ar      1 3ZJ         0.0297
     23 C7         40.8610  108.9520    9.9540 C.3       1 3ZJ         0.0867
     24 C8         46.5130  105.7560   11.7570 C.ar      1 3ZJ        -0.0217
     25 C9         47.6770  105.0810   12.2240 C.ar      1 3ZJ         0.1256
     26 N10        42.2490  109.8080    8.2560 N.4       1 3ZJ         0.2286
     27 O12        43.3270  105.8310   11.4950 O.2       1 3ZJ        -0.3896
     28 O19        48.8550  104.9870   11.4440 O.3       1 3ZJ        -0.3206
     29 O21        48.8420  103.8030   13.9650 O.3       1 3ZJ        -0.3213
     30 O23        50.6020  107.3970    8.0670 O.3       1 3ZJ        -0.3829
     31 C31        50.1400  106.9140    6.7870 C.3       1 3ZJ         0.0364
     32 C32        35.1000  109.8240    8.6450 C.ar      1 3ZJ        -0.0685
     33 C33        36.9220  110.3210    7.1040 C.ar      1 3ZJ        -0.0685
     34 C34        35.6760  110.6600    7.6760 C.ar      1 3ZJ        -0.0687
     35 S35        38.8060  107.2640   10.1760 S.o2      1 3ZJ         0.0493
     36 O36        39.3530  106.0000   10.6550 O.2       1 3ZJ        -0.1534
     37 O37        38.2200  108.1830   11.1420 O.2       1 3ZJ        -0.1534
     38 H1         42.9157  109.7160   11.7509 H         1 3ZJ         0.0527
     39 H2         41.9411  108.3204   12.3243 H         1 3ZJ         0.0527
     40 H3         38.2612  106.5944    7.9246 H         1 3ZJ         0.0682
     41 H4         36.9349  106.2148    9.0751 H         1 3ZJ         0.0682
     42 H5         44.4616  105.2759   14.4296 H         1 3ZJ         0.0551
     43 H6         45.8132  108.0193   13.0183 H         1 3ZJ         0.0552
     44 H7         46.4934  104.1461   15.3055 H         1 3ZJ         0.0524
     45 H8         43.4961  108.1003    8.4220 H         1 3ZJ         0.0818
     46 H9         43.9773  109.4960    9.4454 H         1 3ZJ         0.0818
     47 H10        41.2700  111.0756    9.6551 H         1 3ZJ         0.0833
     48 H11        40.1977  110.3473    8.4114 H         1 3ZJ         0.0833
     49 H12        50.5897  107.0298   10.6294 H         1 3ZJ         0.0313
     50 H13        48.9303  107.6141   10.9923 H         1 3ZJ         0.0313
     51 H14        49.7261  105.0280    9.5568 H         1 3ZJ         0.0610
     52 H15        48.0410  105.6435    9.6472 H         1 3ZJ         0.0610
     53 H16        49.6090  108.8994    9.0995 H         1 3ZJ         0.0560
     54 H17        48.5654  107.6116    8.4073 H         1 3ZJ         0.0560
     55 H18        46.4789  110.3512   12.5345 H         1 3ZJ         0.0252
     56 H19        44.9897  110.5348   11.5470 H         1 3ZJ         0.0252
     57 H20        46.2319  109.3234   11.0822 H         1 3ZJ         0.0252
     58 H21        44.0768  108.3937   14.7408 H         1 3ZJ         0.0252
     59 H22        43.8576  110.0598   14.1063 H         1 3ZJ         0.0252
     60 H23        45.4432  109.5588   14.7857 H         1 3ZJ         0.0252
     61 H24        35.3174  107.9906    9.7624 H         1 3ZJ         0.0557
     62 H25        38.5193  108.8606    6.9980 H         1 3ZJ         0.0557
     63 H26        49.8865  102.3267   14.9966 H         1 3ZJ         0.0575
     64 H27        48.3192  101.8132   14.2850 H         1 3ZJ         0.0575
     65 H28        48.3430  102.8533   15.7494 H         1 3ZJ         0.0575
     66 H29        42.2260  107.2820   10.0853 H         1 3ZJ         0.0393
     67 H30        40.1354  107.7421    8.3713 H         1 3ZJ         0.1676
     68 H31        40.4111  109.2635   10.9082 H         1 3ZJ         0.0570
     69 H32        46.5183  106.2133   10.7742 H         1 3ZJ         0.0557
     70 H33        41.9515  109.3260    7.4222 H         1 3ZJ         0.2014
     71 H34        42.7545  110.6416    7.9999 H         1 3ZJ         0.2014
     72 H35        51.0027  106.6044    6.1788 H         1 3ZJ         0.0523
     73 H36        49.5943  107.7156    6.2678 H         1 3ZJ         0.0523
     74 H37        49.4712  106.0541    6.9392 H         1 3ZJ         0.0523
     75 H38        34.1562  110.0911    9.1064 H         1 3ZJ         0.0599
     76 H39        37.3812  110.9892    6.3845 H         1 3ZJ         0.0599
     77 H40        35.1652  111.5648    7.3670 H         1 3ZJ         0.0559
@<TRIPOS>BOND
     1    1   19 am 
     2   22    1 1  
     3    1   27 2  
     4   19    2 1  
     5    2   20 1  
     6    3   10 1  
     7   35    3 1  
     8    4    7 ar 
     9   25    4 ar 
    10    4   29 1  
    11    7    5 ar 
    12   22    5 ar 
    13    6   14 1  
    14    6   15 1  
    15   19    6 1  
    16   20    8 1  
    17    8   26 1  
    18   23    9 1  
    19    9   26 1  
    20   10   16 ar 
    21   10   17 ar 
    22   12   11 1  
    23   11   13 1  
    24   28   12 1  
    25   13   30 1  
    26   16   32 ar 
    27   17   33 ar 
    28   29   18 1  
    29   20   23 1  
    30   23   21 1  
    31   21   35 am 
    32   24   22 ar 
    33   25   24 ar 
    34   25   28 1  
    35   30   31 1  
    36   32   34 ar 
    37   33   34 ar 
    38   35   36 2  
    39   35   37 2  
    40    2   38 1  
    41    2   39 1  
    42    3   40 1  
    43    3   41 1  
    44    5   42 1  
    45    6   43 1  
    46    7   44 1  
    47    8   45 1  
    48    8   46 1  
    49    9   47 1  
    50    9   48 1  
    51   11   49 1  
    52   11   50 1  
    53   12   51 1  
    54   12   52 1  
    55   13   53 1  
    56   13   54 1  
    57   14   55 1  
    58   14   56 1  
    59   14   57 1  
    60   15   58 1  
    61   15   59 1  
    62   15   60 1  
    63   16   61 1  
    64   17   62 1  
    65   18   63 1  
    66   18   64 1  
    67   18   65 1  
    68   20   66 1  
    69   21   67 1  
    70   23   68 1  
    71   24   69 1  
    72   26   70 1  
    73   26   71 1  
    74   31   72 1  
    75   31   73 1  
    76   31   74 1  
    77   32   75 1  
    78   33   76 1  
    79   34   77 1  
@<TRIPOS>SUBSTRUCTURE
     1 3ZJ         1

