### 
### Created by X-TOOL on Mon Sep 10 21:13:23 2018
### 

@<TRIPOS>MOLECULE
4ryl_ligand
   40    42     1     0     0
SMALL
GAST_HUCK


@<TRIPOS>ATOM
      1 C4         -4.6550   -0.4920  -13.0110 C.ar      1 3ZG        -0.0277
      2 C5         -4.9950   -0.9240  -14.2600 C.ar      1 3ZG        -0.0499
      3 C6         -5.6090   -0.0480  -15.1920 C.ar      1 3ZG        -0.0012
      4 N1         -4.4750    1.1740  -11.3020 N.am      1 3ZG        -0.2156
      5 C7         -6.0330   -0.4330  -16.4920 C.ar      1 3ZG         0.0119
      6 C8         -6.8100    1.6600  -16.9820 C.ar      1 3ZG         0.0002
      7 N2         -6.6280    0.3820  -17.3580 N.ar      1 3ZG        -0.3056
      8 C9         -6.4440    2.1580  -15.7650 C.ar      1 3ZG        -0.0403
      9 C10        -5.8450    1.2880  -14.8140 C.ar      1 3ZG        -0.0194
     10 C11        -5.4870    1.7040  -13.5070 C.ar      1 3ZG        -0.0316
     11 C12        -3.3030    6.2690   -7.6000 C.3       1 3ZG         0.0340
     12 N3         -4.5590    5.5370   -7.6500 N.am      1 3ZG        -0.2716
     13 C13        -3.7320    7.6320   -7.1410 C.3       1 3ZG        -0.0307
     14 C14        -4.9150    7.4010   -6.3410 C.3       1 3ZG        -0.0307
     15 C15        -5.6460    6.3140   -7.0480 C.3       1 3ZG         0.0340
     16 O1         -4.4750    3.4670  -11.3640 O.2       1 3ZG        -0.3892
     17 C2         -4.3860    2.4180  -10.7400 C.2       1 3ZG         0.2917
     18 N          -4.1250    2.4020   -9.4330 N.am      1 3ZG        -0.2488
     19 C1         -3.6300    3.5860   -8.7710 C.3       1 3ZG         0.1211
     20 C          -4.8050    4.3340   -8.1820 C.2       1 3ZG         0.2008
     21 O          -5.9170    3.8630   -8.1970 O.2       1 3ZG        -0.3947
     22 C3         -4.9030    0.8210  -12.6120 C.ar      1 3ZG         0.0741
     23 H1         -4.1847   -1.1803  -12.3181 H         1 3ZG         0.0597
     24 H2         -4.7932   -1.9505  -14.5440 H         1 3ZG         0.0648
     25 H3         -4.2033    0.4119  -10.7143 H         1 3ZG         0.2285
     26 H4         -5.8602   -1.4584  -16.7981 H         1 3ZG         0.0851
     27 H5         -7.2762    2.3366  -17.6890 H         1 3ZG         0.0756
     28 H6         -6.6079    3.2028  -15.5270 H         1 3ZG         0.0665
     29 H7         -5.6727    2.7278  -13.2029 H         1 3ZG         0.0456
     30 H8         -2.8313    6.3153   -8.5926 H         1 3ZG         0.0522
     31 H9         -2.6054    5.8108   -6.8835 H         1 3ZG         0.0522
     32 H10        -3.9670    8.2742   -8.0026 H         1 3ZG         0.0285
     33 H11        -2.9425    8.1031   -6.5370 H         1 3ZG         0.0285
     34 H12        -5.5306    8.3110   -6.2879 H         1 3ZG         0.0285
     35 H13        -4.6394    7.0848   -5.3241 H         1 3ZG         0.0285
     36 H14        -6.2277    5.7026   -6.3425 H         1 3ZG         0.0522
     37 H15        -6.3164    6.7223   -7.8186 H         1 3ZG         0.0522
     38 H16        -4.2730    1.5643   -8.9073 H         1 3ZG         0.1882
     39 H17        -3.1089    4.2268   -9.4975 H         1 3ZG         0.0761
     40 H18        -2.9335    3.2990   -7.9694 H         1 3ZG         0.0761
@<TRIPOS>BOND
     1    1    2 ar 
     2   22    1 ar 
     3    2    3 ar 
     4    3    5 ar 
     5    9    3 ar 
     6   17    4 am 
     7    4   22 1  
     8    5    7 ar 
     9    6    7 ar 
    10    8    6 ar 
    11    9    8 ar 
    12   10    9 ar 
    13   22   10 ar 
    14   12   11 1  
    15   11   13 1  
    16   12   15 1  
    17   20   12 am 
    18   14   13 1  
    19   15   14 1  
    20   17   16 2  
    21   18   17 am 
    22   19   18 1  
    23   19   20 1  
    24   20   21 2  
    25    1   23 1  
    26    2   24 1  
    27    4   25 1  
    28    5   26 1  
    29    6   27 1  
    30    8   28 1  
    31   10   29 1  
    32   11   30 1  
    33   11   31 1  
    34   13   32 1  
    35   13   33 1  
    36   14   34 1  
    37   14   35 1  
    38   15   36 1  
    39   15   37 1  
    40   18   38 1  
    41   19   39 1  
    42   19   40 1  
@<TRIPOS>SUBSTRUCTURE
     1 3ZG         1

