### 
### Created by X-TOOL on Mon Sep 10 21:13:24 2018
### 

@<TRIPOS>MOLECULE
4rz1_ligand
   77    79     1     0     0
SMALL
GAST_HUCK


@<TRIPOS>ATOM
      1 C2         42.9400  108.5540    9.1460 C.3       1 3ZN        -0.0259
      2 C3         42.2750  107.9450   10.3970 C.3       1 3ZN         0.0548
      3 C11        44.9940  108.9680   14.0870 C.3       1 3ZN        -0.0421
      4 C12        44.1000  106.2620   12.3530 C.2       1 3ZN         0.1969
      5 C13        45.3250  105.4560   12.7490 C.ar      1 3ZN         0.0297
      6 C14        45.3940  104.7310   13.9540 C.ar      1 3ZN        -0.0615
      7 C15        47.6670  103.9830   13.3890 C.ar      1 3ZN         0.1251
      8 C16        47.5870  104.6860   12.1680 C.ar      1 3ZN         0.1256
      9 C17        46.5580  104.0020   14.2790 C.ar      1 3ZN        -0.0349
     10 C18        46.4070  105.4130   11.8520 C.ar      1 3ZN        -0.0217
     11 C21        49.0270  102.3700   14.7410 C.3       1 3ZN         0.0582
     12 C23        48.8540  105.3620   10.0970 C.3       1 3ZN         0.0701
     13 C24        49.4370  106.7850   10.3200 C.3       1 3ZN        -0.0020
     14 C25        49.5720  107.5660    8.9830 C.3       1 3ZN         0.0497
     15 C27        49.9260  106.7320    6.7390 C.3       1 3ZN         0.0364
     16 C28        38.8970  106.8380    9.7290 C.2       1 3ZN         0.3219
     17 N1         42.0310  109.6390    8.7560 N.4       1 3ZN         0.2294
     18 C4         40.7610  108.2100   10.2520 C.3       1 3ZN         0.1369
     19 C5         40.6490  109.2540    9.1180 C.3       1 3ZN        -0.0018
     20 C6         42.7990  108.3040   11.8090 C.3       1 3ZN         0.0440
     21 O7         40.1920  106.9100   10.0050 O.3       1 3ZN        -0.2546
     22 N8         44.0700  107.6460   12.2010 N.am      1 3ZN        -0.2711
     23 C9         45.2260  108.4750   12.6390 C.3       1 3ZN         0.0387
     24 C10        45.6150  109.6360   11.6890 C.3       1 3ZN        -0.0421
     25 O19        43.1650  105.5290   12.0670 O.2       1 3ZN        -0.3896
     26 O20        48.8630  103.2690   13.6240 O.3       1 3ZN        -0.3213
     27 O22        48.7110  104.6150   11.3270 O.3       1 3ZN        -0.3206
     28 O26        50.4590  106.8840    8.0630 O.3       1 3ZN        -0.3829
     29 N29        38.6780  106.6310    8.4090 N.am      1 3ZN        -0.2512
     30 O30        38.0520  106.8890   10.6030 O.2       1 3ZN        -0.3774
     31 C31        37.3150  106.5330    7.9040 C.3       1 3ZN         0.0664
     32 C32        36.6880  107.9280    7.7180 C.ar      1 3ZN        -0.0210
     33 C33        35.3470  108.1720    8.0960 C.ar      1 3ZN        -0.0584
     34 C34        35.5180  110.4650    7.3380 C.ar      1 3ZN        -0.0687
     35 C35        36.8730  110.2440    6.9850 C.ar      1 3ZN        -0.0685
     36 C36        34.7470  109.4320    7.8950 C.ar      1 3ZN        -0.0685
     37 C37        37.4570  108.9790    7.1730 C.ar      1 3ZN        -0.0584
     38 H1         43.0235  107.8060    8.3438 H         1 3ZN         0.0818
     39 H2         43.9388  108.9475    9.3860 H         1 3ZN         0.0818
     40 H3         42.4260  106.8586   10.3144 H         1 3ZN         0.0403
     41 H4         45.8499  109.5801   14.4074 H         1 3ZN         0.0252
     42 H5         44.8914  108.1019   14.7572 H         1 3ZN         0.0252
     43 H6         44.0759  109.5726   14.1259 H         1 3ZN         0.0252
     44 H7         44.5502  104.7327   14.6345 H         1 3ZN         0.0551
     45 H8         46.6070  103.4533   15.2126 H         1 3ZN         0.0524
     46 H9         46.3405  105.9409   10.9076 H         1 3ZN         0.0557
     47 H10        50.0362  101.9332   14.7150 H         1 3ZN         0.0575
     48 H11        48.2781  101.5668   14.6783 H         1 3ZN         0.0575
     49 H12        48.8918  102.9248   15.6812 H         1 3ZN         0.0575
     50 H13        49.5267  104.8080    9.4258 H         1 3ZN         0.0610
     51 H14        47.8641  105.4576    9.6270 H         1 3ZN         0.0610
     52 H15        50.4311  106.6948   10.7822 H         1 3ZN         0.0313
     53 H16        48.7690  107.3427   10.9929 H         1 3ZN         0.0313
     54 H17        49.9744  108.5681    9.1923 H         1 3ZN         0.0560
     55 H18        48.5784  107.6591    8.5203 H         1 3ZN         0.0560
     56 H19        50.6578  106.2074    6.1072 H         1 3ZN         0.0523
     57 H20        49.7170  107.7238    6.3117 H         1 3ZN         0.0523
     58 H21        48.9948  106.1482    6.7834 H         1 3ZN         0.0523
     59 H22        42.0912  109.7907    7.7613 H         1 3ZN         0.2015
     60 H23        42.2853  110.4853    9.2410 H         1 3ZN         0.2015
     61 H24        40.3282  108.6275   11.1730 H         1 3ZN         0.0707
     62 H25        40.1375  108.8156    8.2484 H         1 3ZN         0.0843
     63 H26        40.0894  110.1343    9.4672 H         1 3ZN         0.0843
     64 H27        42.0287  108.0175   12.5401 H         1 3ZN         0.0527
     65 H28        42.9542  109.3923   11.8472 H         1 3ZN         0.0527
     66 H29        46.0961  107.8024   12.6634 H         1 3ZN         0.0552
     67 H30        45.7701  109.2425   10.6736 H         1 3ZN         0.0252
     68 H31        46.5432  110.1063   12.0457 H         1 3ZN         0.0252
     69 H32        44.8078  110.3831   11.6734 H         1 3ZN         0.0252
     70 H33        39.4515  106.5454    7.7810 H         1 3ZN         0.1894
     71 H34        36.7077  105.9592    8.6195 H         1 3ZN         0.0683
     72 H35        37.3280  106.0134    6.9346 H         1 3ZN         0.0683
     73 H36        34.7692  107.3746    8.5491 H         1 3ZN         0.0557
     74 H37        35.0730  111.4402    7.1765 H         1 3ZN         0.0559
     75 H38        37.4613  111.0536    6.5684 H         1 3ZN         0.0599
     76 H39        33.7107  109.6000    8.1652 H         1 3ZN         0.0599
     77 H40        38.4928  108.8115    6.9008 H         1 3ZN         0.0557
@<TRIPOS>BOND
     1    2    1 1  
     2   17    1 1  
     3   18    2 1  
     4    2   20 1  
     5   23    3 1  
     6    4    5 1  
     7   22    4 am 
     8    4   25 2  
     9    5    6 ar 
    10    5   10 ar 
    11    6    9 ar 
    12    8    7 ar 
    13    9    7 ar 
    14    7   26 1  
    15   10    8 ar 
    16    8   27 1  
    17   26   11 1  
    18   12   13 1  
    19   27   12 1  
    20   13   14 1  
    21   14   28 1  
    22   28   15 1  
    23   16   21 1  
    24   29   16 am 
    25   16   30 2  
    26   19   17 1  
    27   18   19 1  
    28   21   18 1  
    29   20   22 1  
    30   22   23 1  
    31   23   24 1  
    32   31   29 1  
    33   32   31 1  
    34   33   32 ar 
    35   32   37 ar 
    36   36   33 ar 
    37   34   35 ar 
    38   34   36 ar 
    39   35   37 ar 
    40    1   38 1  
    41    1   39 1  
    42    2   40 1  
    43    3   41 1  
    44    3   42 1  
    45    3   43 1  
    46    6   44 1  
    47    9   45 1  
    48   10   46 1  
    49   11   47 1  
    50   11   48 1  
    51   11   49 1  
    52   12   50 1  
    53   12   51 1  
    54   13   52 1  
    55   13   53 1  
    56   14   54 1  
    57   14   55 1  
    58   15   56 1  
    59   15   57 1  
    60   15   58 1  
    61   17   59 1  
    62   17   60 1  
    63   18   61 1  
    64   19   62 1  
    65   19   63 1  
    66   20   64 1  
    67   20   65 1  
    68   23   66 1  
    69   24   67 1  
    70   24   68 1  
    71   24   69 1  
    72   29   70 1  
    73   31   71 1  
    74   31   72 1  
    75   33   73 1  
    76   34   74 1  
    77   35   75 1  
    78   36   76 1  
    79   37   77 1  
@<TRIPOS>SUBSTRUCTURE
     1 3ZN         1

