### 
### Created by X-TOOL on Mon Sep 10 21:13:22 2018
### 

@<TRIPOS>MOLECULE
4s2i_ligand
   30    30     1     0     0
SMALL
GAST_HUCK


@<TRIPOS>ATOM
      1 OAC         8.6080   14.2430   14.9370 O.2       1 NXL        -0.3828
      2 CAN         8.6450   14.5330   13.7590 C.2       1 NXL         0.1743
      3 N           9.9150   14.7630   13.0910 N.am      1 NXL        -0.2479
      4 CAJ         9.9820   14.8500   11.6490 C.3       1 NXL         0.0807
      5 CA         11.1370   14.5810   13.8190 C.3       1 NXL         0.1340
      6 C          11.9990   15.8500   13.7900 C.2       1 NXL         0.1996
      7 O          11.8690   16.6830   12.8860 O.2       1 NXL        -0.3947
      8 NAA        12.9470   16.0610   14.8440 N.am      1 NXL        -0.2989
      9 CB         11.8710   13.3090   13.3310 C.3       1 NXL        -0.0069
     10 CAH        11.7800   13.1220   11.8070 C.3       1 NXL        -0.0025
     11 CAO        10.4210   13.4310   11.2290 C.3       1 NXL         0.0316
     12 NAK         9.4570   12.4890   11.7780 N.4       1 NXL         0.4138
     13 OAL         9.7270   11.2050   11.4690 O.3       1 NXL        -0.2010
     14 SAR         9.1230   10.2850   12.5500 S.o2      1 NXL        -0.0327
     15 OAD         7.6980   10.6490   12.7840 O.co2     1 NXL        -0.4578
     16 OAE         9.9190   10.3670   13.8630 O.co2     1 NXL        -0.4578
     17 OAG         9.3140    8.8880   12.0580 O.co2     1 NXL        -0.4578
     18 H1          7.7167   14.6218   13.1966 H         1 NXL         0.1547
     19 H2         10.7211   15.6010   11.3332 H         1 NXL         0.0583
     20 H3          8.9994   15.1009   11.2230 H         1 NXL         0.0583
     21 H4         10.8682   14.4081   14.8715 H         1 NXL         0.0804
     22 H5         13.5192   16.8811   14.8451 H         1 NXL         0.1815
     23 H6         13.0363   15.3881   15.5783 H         1 NXL         0.1815
     24 H7         11.4213   12.4328   13.8209 H         1 NXL         0.0314
     25 H8         12.9313   13.3835   13.6141 H         1 NXL         0.0314
     26 H9         12.0257   12.0759   11.5719 H         1 NXL         0.0323
     27 H10        12.5166   13.7872   11.3326 H         1 NXL         0.0323
     28 H11        10.4523   13.3527   10.1322 H         1 NXL         0.0882
     29 H12         8.5443   12.7192   11.4173 H         1 NXL         0.2382
     30 H13         9.4550   12.5824   12.7817 H         1 NXL         0.2382
@<TRIPOS>BOND
     1    1    2 2  
     2    2    3 am 
     3    3    4 1  
     4    3    5 1  
     5    4   11 1  
     6    5    6 1  
     7    5    9 1  
     8    6    7 2  
     9    6    8 am 
    10    9   10 1  
    11   10   11 1  
    12   11   12 1  
    13   12   13 1  
    14   13   14 1  
    15   14   15 ar 
    16   14   16 ar 
    17   14   17 ar 
    18    2   18 1  
    19    4   19 1  
    20    4   20 1  
    21    5   21 1  
    22    8   22 1  
    23    8   23 1  
    24    9   24 1  
    25    9   25 1  
    26   10   26 1  
    27   10   27 1  
    28   11   28 1  
    29   12   29 1  
    30   12   30 1  
@<TRIPOS>SUBSTRUCTURE
     1 NXL         1

