### 
### Created by X-TOOL on Mon Sep 10 21:12:44 2018
### 

@<TRIPOS>MOLECULE
4sga_ligand
   65    67     1     0     0
SMALL
GAST_HUCK


@<TRIPOS>ATOM
      1 C         -22.2210   28.1290   21.0250 C.2       1 ACE         0.1776
      2 O         -22.2240   27.5230   22.1010 O.2       1 ACE        -0.3970
      3 CH3       -23.2220   29.1970   20.6900 C.3       1 ACE         0.0260
      4 N         -21.3130   27.9230   19.9930 N.am      1 PRO        -0.2520
      5 CA        -20.3880   26.7870   20.2670 C.3       1 PRO         0.1337
      6 C         -19.4680   27.2130   21.3800 C.2       1 PRO         0.2041
      7 O         -19.2570   28.4330   21.6630 O.2       1 PRO        -0.3944
      8 CB        -19.7440   26.5000   18.9320 C.3       1 PRO        -0.0104
      9 CG        -19.5700   27.8800   18.3390 C.3       1 PRO        -0.0281
     10 CD        -20.8530   28.6030   18.7130 C.3       1 PRO         0.0369
     11 N         -18.9280   26.2020   22.0360 N.am      1 ALA        -0.2640
     12 CA        -17.9930   26.3860   23.1590 C.3       1 ALA         0.1284
     13 C         -16.9970   25.2210   23.1840 C.2       1 ALA         0.2061
     14 O         -17.3090   24.1220   22.6980 O.2       1 ALA        -0.3942
     15 CB        -18.7620   26.3680   24.4790 C.3       1 ALA        -0.0244
     16 N         -15.8730   25.4930   23.8010 N.am      1 PRO        -0.2498
     17 CA        -14.8060   24.4890   23.9400 C.3       1 PRO         0.1337
     18 C         -15.2650   23.4290   24.9180 C.2       1 PRO         0.2037
     19 O         -15.8060   23.8240   25.9940 O.2       1 PRO        -0.3944
     20 CB        -13.6030   25.2550   24.4800 C.3       1 PRO        -0.0104
     21 CG        -13.9880   26.7250   24.4470 C.3       1 PRO        -0.0281
     22 CD        -15.4900   26.7860   24.4130 C.3       1 PRO         0.0369
     23 N         -15.1210   22.1650   24.5800 N.am      1 PHE        -0.2677
     24 CA        -15.5020   21.0920   25.5050 C.3       1 PHE         0.1039
     25 C         -14.2710   20.7260   26.3970 C.2       1 PHE         0.0621
     26 O         -14.2590   19.5170   26.8480 O.co2     1 PHE        -0.5664
     27 CB        -16.1200   19.9100   24.7680 C.3       1 PHE         0.0159
     28 CG        -17.5120   20.2190   24.2200 C.ar      1 PHE        -0.0392
     29 CD1       -18.2710   21.2290   24.8010 C.ar      1 PHE        -0.0602
     30 CD2       -18.0220   19.4410   23.1880 C.ar      1 PHE        -0.0602
     31 CE1       -19.5630   21.5050   24.3170 C.ar      1 PHE        -0.0686
     32 CE2       -19.3190   19.7080   22.6900 C.ar      1 PHE        -0.0686
     33 CZ        -20.0830   20.7480   23.2690 C.ar      1 PHE        -0.0687
     34 OXT       -13.3260   21.5230   26.7990 O.co2     1 PHE        -0.5664
     35 H1        -23.0178   29.5878   19.6822 H         1 ACE         0.0467
     36 H2        -23.1455   30.0140   21.4225 H         1 ACE         0.0467
     37 H3        -24.2359   28.7716   20.7197 H         1 ACE         0.0467
     38 H4        -20.9446   25.8971   20.5962 H         1 PRO         0.0802
     39 H5        -20.3975   25.8781   18.3026 H         1 PRO         0.0313
     40 H6        -18.7732   25.9988   19.0602 H         1 PRO         0.0313
     41 H7        -18.6950   28.3853   18.7738 H         1 PRO         0.0287
     42 H8        -19.4561   27.8248   17.2463 H         1 PRO         0.0287
     43 H9        -20.6603   29.6718   18.8879 H         1 PRO         0.0524
     44 H10       -21.6075   28.4913   17.9204 H         1 PRO         0.0524
     45 H11       -19.1643   25.2709   21.7581 H         1 ALA         0.1883
     46 H12       -17.4582   27.3406   23.0459 H         1 ALA         0.0797
     47 H13       -18.0597   26.5057   25.3144 H         1 ALA         0.0277
     48 H14       -19.2784   25.4030   24.5894 H         1 ALA         0.0277
     49 H15       -19.5015   27.1823   24.4837 H         1 ALA         0.0277
     50 H16       -14.5673   24.0269   22.9707 H         1 PRO         0.0802
     51 H17       -12.7217   25.0772   23.8463 H         1 PRO         0.0313
     52 H18       -13.3825   24.9415   25.5111 H         1 PRO         0.0313
     53 H19       -13.6095   27.2347   25.3453 H         1 PRO         0.0287
     54 H20       -13.5701   27.2047   23.5497 H         1 PRO         0.0287
     55 H21       -15.9031   26.8785   25.4283 H         1 PRO         0.0524
     56 H22       -15.8357   27.6301   23.7982 H         1 PRO         0.0524
     57 H23       -14.7474   21.9334   23.6818 H         1 PHE         0.1877
     58 H24       -16.2803   21.4879   26.1739 H         1 PHE         0.0749
     59 H25       -16.1964   19.0620   25.4645 H         1 PHE         0.0467
     60 H26       -15.4640   19.6369   23.9283 H         1 PHE         0.0467
     61 H27       -17.8673   21.8037   25.6267 H         1 PHE         0.0557
     62 H28       -17.4307   18.6356   22.7676 H         1 PHE         0.0557
     63 H29       -20.1508   22.3024   24.7571 H         1 PHE         0.0599
     64 H30       -19.7232   19.1214   21.8729 H         1 PHE         0.0599
     65 H31       -21.0788   20.9574   22.8953 H         1 PHE         0.0559
@<TRIPOS>BOND
     1    1    2 2  
     2    1    3 1  
     3    6    5 1  
     4    5    8 1  
     5    5    4 1  
     6    4   10 1  
     7   10    9 1  
     8    8    9 1  
     9    6    7 2  
    10    4    1 am 
    11   12   11 1  
    12   12   15 1  
    13   13   12 1  
    14   13   14 2  
    15   11    6 am 
    16   18   17 1  
    17   17   20 1  
    18   17   16 1  
    19   16   22 1  
    20   22   21 1  
    21   20   21 1  
    22   18   19 2  
    23   16   13 am 
    24   23   24 1  
    25   24   27 1  
    26   24   25 1  
    27   25   26 ar 
    28   25   34 ar 
    29   27   28 1  
    30   28   29 ar 
    31   28   30 ar 
    32   30   32 ar 
    33   32   33 ar 
    34   31   33 ar 
    35   29   31 ar 
    36   18   23 am 
    37    3   35 1  
    38    3   36 1  
    39    3   37 1  
    40    5   38 1  
    41    8   39 1  
    42    8   40 1  
    43    9   41 1  
    44    9   42 1  
    45   10   43 1  
    46   10   44 1  
    47   11   45 1  
    48   12   46 1  
    49   15   47 1  
    50   15   48 1  
    51   15   49 1  
    52   17   50 1  
    53   20   51 1  
    54   20   52 1  
    55   21   53 1  
    56   21   54 1  
    57   22   55 1  
    58   22   56 1  
    59   23   57 1  
    60   24   58 1  
    61   27   59 1  
    62   27   60 1  
    63   29   61 1  
    64   30   62 1  
    65   31   63 1  
    66   32   64 1  
    67   33   65 1  
@<TRIPOS>SUBSTRUCTURE
     1 ACE         1

