### 
### Created by X-TOOL on Mon Sep 10 21:13:18 2018
### 

@<TRIPOS>MOLECULE
4tju_ligand
   30    32     1     0     0
SMALL
GAST_HUCK


@<TRIPOS>ATOM
      1 C1         24.4680   51.0930   -0.3170 C.ar      1 CNQ        -0.0442
      2 C2         25.6580   50.6430    0.2970 C.ar      1 CNQ        -0.0260
      3 C3         25.9420   49.2230    0.3270 C.ar      1 CNQ         0.0792
      4 C4         25.0860   48.2770   -0.3500 C.ar      1 CNQ         0.0890
      5 C5         23.9040   48.8020   -1.0400 C.ar      1 CNQ         0.0778
      6 C6         23.6470   50.1770   -1.0870 C.ar      1 CNQ        -0.0309
      7 N7         27.0550   48.7610    1.0290 N.ar      1 CNQ        -0.2673
      8 C8         27.2650   47.4480    1.0900 C.ar      1 CNQ         0.0510
      9 C9         26.4050   46.4700    0.4530 C.ar      1 CNQ         0.0838
     10 N10        25.3480   46.8820   -0.2800 N.ar      1 CNQ        -0.2654
     11 C11        22.9730   47.8750   -1.8240 C.2       1 CNQ         0.2053
     12 N12        23.0920   46.5310   -1.6380 N.am      1 CNQ        -0.3002
     13 O13        22.1850   48.3140   -2.6330 O.2       1 CNQ        -0.3851
     14 C14        26.6540   45.0160    0.6320 C.ar      1 CNQ         0.0096
     15 C15        26.2350   44.0930   -0.3510 C.ar      1 CNQ        -0.0475
     16 C16        26.4000   42.7170   -0.1800 C.ar      1 CNQ        -0.0436
     17 C17        26.9860   42.2530    1.0040 C.ar      1 CNQ         0.0440
     18 C18        27.3880   43.1210    2.0370 C.ar      1 CNQ        -0.0436
     19 C19        27.1900   44.5060    1.8670 C.ar      1 CNQ        -0.0475
     20 CL24       27.1880   40.5560    1.1880 Cl        1 CNQ        -0.0673
     21 H          24.1663   52.1289   -0.2123 H         1 CNQ         0.0685
     22 H          26.3493   51.3509    0.7398 H         1 CNQ         0.0719
     23 H          22.8360   50.5571   -1.6976 H         1 CNQ         0.0741
     24 H          28.1247   47.0910    1.6455 H         1 CNQ         0.0960
     25 H          22.4961   45.9024   -2.1377 H         1 CNQ         0.1806
     26 H          23.7753   46.1729   -1.0017 H         1 CNQ         0.1806
     27 H          25.7741   44.4615   -1.2603 H         1 CNQ         0.0654
     28 H          26.0809   42.0221   -0.9483 H         1 CNQ         0.0632
     29 H          27.8397   42.7328    2.9427 H         1 CNQ         0.0632
     30 H          27.4423   45.1899    2.6693 H         1 CNQ         0.0654
@<TRIPOS>BOND
     1    1    2 ar 
     2    1    6 ar 
     3    2    3 ar 
     4    3    4 ar 
     5    3    7 ar 
     6    4    5 ar 
     7    4   10 ar 
     8    5    6 ar 
     9    5   11 1  
    10    7    8 ar 
    11    8    9 ar 
    12    9   10 ar 
    13    9   14 1  
    14   11   12 am 
    15   11   13 2  
    16   14   15 ar 
    17   14   19 ar 
    18   15   16 ar 
    19   16   17 ar 
    20   17   18 ar 
    21   17   20 1  
    22   18   19 ar 
    23    1   21 1  
    24    2   22 1  
    25    6   23 1  
    26    8   24 1  
    27   12   25 1  
    28   12   26 1  
    29   15   27 1  
    30   16   28 1  
    31   18   29 1  
    32   19   30 1  
@<TRIPOS>SUBSTRUCTURE
     1 CNQ         1

