### 
### Created by X-TOOL on Mon Sep 10 21:13:17 2018
### 

@<TRIPOS>MOLECULE
4tjw_ligand
   40    42     1     0     0
SMALL
GAST_HUCK


@<TRIPOS>ATOM
      1 CAA        26.6540   42.8360    5.3290 C.3       1 P34        -0.0415
      2 N          28.0980   43.0300    4.6630 N.4       1 P34         0.2481
      3 CAB        28.3380   44.4530    4.7190 C.3       1 P34        -0.0415
      4 CA         28.2410   42.6420    3.1270 C.3       1 P34         0.0626
      5 C          27.0970   43.2150    2.2510 C.2       1 P34         0.2455
      6 O          25.9560   42.7740    2.4420 O.2       1 P34        -0.3808
      7 NAM        27.2840   44.1690    1.2860 N.am      1 P34        -0.2372
      8 CAP        26.1990   44.7660    0.4670 C.ar      1 P34         0.0545
      9 CAK        26.0210   46.1070    0.4870 C.ar      1 P34        -0.0434
     10 CAU        25.0010   46.7760   -0.2340 C.ar      1 P34        -0.0020
     11 CAT        24.8420   48.2100   -0.2300 C.ar      1 P34        -0.0079
     12 CAI        25.6790   49.1200    0.5220 C.ar      1 P34        -0.0530
     13 CAF        25.4320   50.4710    0.4890 C.ar      1 P34        -0.0599
     14 CAE        24.2160   50.9970   -0.2330 C.ar      1 P34        -0.0588
     15 CAH        23.4250   50.1380   -0.9980 C.ar      1 P34        -0.0442
     16 CAS        23.7160   48.7940   -0.9970 C.ar      1 P34         0.0572
     17 CAQ        22.7770   47.9180   -1.8010 C.2       1 P34         0.2237
     18 OAD        21.8310   48.3070   -2.5260 O.2       1 P34        -0.3870
     19 NAN        23.0210   46.6140   -1.7950 N.am      1 P34        -0.2368
     20 CAR        24.0830   45.9860   -1.0040 C.ar      1 P34         0.0685
     21 CAJ        24.2140   44.5460   -1.0430 C.ar      1 P34        -0.0471
     22 CAG        25.2670   43.9520   -0.3270 C.ar      1 P34        -0.0498
     23 H          26.6939   43.1392    6.3857 H         1 P34         0.0778
     24 H          26.3583   41.7786    5.2618 H         1 P34         0.0778
     25 H          25.9183   43.4570    4.7969 H         1 P34         0.0778
     26 H          28.7813   42.5167    5.1976 H         1 P34         0.2047
     27 H          29.3201   44.6768    4.2770 H         1 P34         0.0778
     28 H          28.3230   44.7864    5.7671 H         1 P34         0.0778
     29 H          27.5537   44.9796    4.1554 H         1 P34         0.0778
     30 H          28.2342   41.5455    3.0398 H         1 P34         0.1067
     31 H          29.1987   43.0337    2.7537 H         1 P34         0.1067
     32 H          28.2180   44.4860    1.1214 H         1 P34         0.2212
     33 H          26.6971   46.7035    1.0888 H         1 P34         0.0468
     34 H          26.5025   48.7349    1.1125 H         1 P34         0.0613
     35 H          26.1102   51.1586    0.9813 H         1 P34         0.0643
     36 H          23.9555   52.0465   -0.1573 H         1 P34         0.0608
     37 H          22.5969   50.5232   -1.5819 H         1 P34         0.0661
     38 H          22.4466   46.0250   -2.3635 H         1 P34         0.2277
     39 H          23.5170   43.9401   -1.6106 H         1 P34         0.0486
     40 H          25.3943   42.8760   -0.3606 H         1 P34         0.0494
@<TRIPOS>BOND
     1    1    2 1  
     2    2    3 1  
     3    2    4 1  
     4    4    5 1  
     5    5    6 2  
     6    5    7 am 
     7    7    8 1  
     8    8    9 ar 
     9    8   22 ar 
    10    9   10 ar 
    11   10   11 1  
    12   10   20 ar 
    13   11   12 ar 
    14   11   16 ar 
    15   12   13 ar 
    16   13   14 ar 
    17   14   15 ar 
    18   15   16 ar 
    19   16   17 1  
    20   17   18 2  
    21   17   19 am 
    22   19   20 1  
    23   20   21 ar 
    24   21   22 ar 
    25    1   23 1  
    26    1   24 1  
    27    1   25 1  
    28    2   26 1  
    29    3   27 1  
    30    3   28 1  
    31    3   29 1  
    32    4   30 1  
    33    4   31 1  
    34    7   32 1  
    35    9   33 1  
    36   12   34 1  
    37   13   35 1  
    38   14   36 1  
    39   15   37 1  
    40   19   38 1  
    41   21   39 1  
    42   22   40 1  
@<TRIPOS>SUBSTRUCTURE
     1 P34         1

