### 
### Created by X-TOOL on Mon Sep 10 21:13:17 2018
### 

@<TRIPOS>MOLECULE
4tjy_ligand
   35    37     1     0     0
SMALL
GAST_HUCK


@<TRIPOS>ATOM
      1 C4         25.2190   48.3640   -0.2240 C.ar      1 3GN         0.1298
      2 C5         23.9990   48.8040   -0.8040 C.ar      1 3GN         0.0890
      3 C6         23.6710   50.1610   -0.7330 C.ar      1 3GN        -0.0389
      4 C8         26.9560   47.2360    0.6070 C.2       1 3GN         0.1617
      5 C10        23.0730   47.8910   -1.6230 C.2       1 3GN         0.2002
      6 C13        27.8640   46.1000    1.1100 C.3       1 3GN         0.0219
      7 C15        28.3460   44.8770    3.1250 C.3       1 3GN        -0.0383
      8 C17        27.1320   44.6880    1.0310 C.3       1 3GN        -0.0214
      9 C1         24.4500   51.0900    0.0490 C.ar      1 3GN        -0.0533
     10 C2         25.7010   50.6640    0.6010 C.ar      1 3GN        -0.0314
     11 C3         26.0320   49.3040    0.4910 C.ar      1 3GN         0.0965
     12 N7         27.1390   48.5740    0.9660 N.2       1 3GN        -0.2404
     13 N9         25.7900   47.0670   -0.0740 N.pl3     1 3GN        -0.2383
     14 N11        23.1970   46.5230   -1.4920 N.am      1 3GN        -0.3015
     15 O12        22.2540   48.3150   -2.4270 O.2       1 3GN        -0.3899
     16 N14        28.1390   46.2420    2.5880 N.4       1 3GN         0.1868
     17 C16        27.2880   44.0350    2.4260 C.3       1 3GN        -0.0148
     18 C18        29.2100   46.0750    0.3690 C.3       1 3GN        -0.0379
     19 H          22.8087   50.5248   -1.2799 H         1 3GN         0.0722
     20 H          28.1998   44.8605    4.2151 H         1 3GN         0.0814
     21 H          29.3557   44.5125    2.8849 H         1 3GN         0.0814
     22 H          27.6026   44.0582    0.2616 H         1 3GN         0.0224
     23 H          26.0670   44.8246    0.7921 H         1 3GN         0.0224
     24 H          24.0924   52.0994    0.2169 H         1 3GN         0.0592
     25 H          26.3686   51.3666    1.0865 H         1 3GN         0.0707
     26 H          25.3977   46.1774   -0.4139 H         1 3GN         0.2366
     27 H          22.6024   45.9145   -2.0175 H         1 3GN         0.1804
     28 H          23.8814   46.1401   -0.8715 H         1 3GN         0.1804
     29 H          27.3539   46.6782    3.0456 H         1 3GN         0.1975
     30 H          28.9656   46.8001    2.7340 H         1 3GN         0.1975
     31 H          26.3376   44.0674    2.9789 H         1 3GN         0.0311
     32 H          27.6218   42.9912    2.3315 H         1 3GN         0.0311
     33 H          29.0318   45.9719   -0.7116 H         1 3GN         0.0186
     34 H          29.8087   45.2235    0.7247 H         1 3GN         0.0186
     35 H          29.7530   47.0117    0.5633 H         1 3GN         0.0186
@<TRIPOS>BOND
     1    1    2 ar 
     2    1   11 ar 
     3   13    1 1  
     4    2    3 ar 
     5    2    5 1  
     6    3    9 ar 
     7    4    6 1  
     8    4   12 2  
     9    4   13 1  
    10    5   14 am 
    11    5   15 2  
    12    6    8 1  
    13    6   16 1  
    14    6   18 1  
    15   16    7 1  
    16    7   17 1  
    17    8   17 1  
    18    9   10 ar 
    19   10   11 ar 
    20   11   12 1  
    21    3   19 1  
    22    7   20 1  
    23    7   21 1  
    24    8   22 1  
    25    8   23 1  
    26    9   24 1  
    27   10   25 1  
    28   13   26 1  
    29   14   27 1  
    30   14   28 1  
    31   16   29 1  
    32   16   30 1  
    33   17   31 1  
    34   17   32 1  
    35   18   33 1  
    36   18   34 1  
    37   18   35 1  
@<TRIPOS>SUBSTRUCTURE
     1 3GN         1

