### 
### Created by X-TOOL on Mon Sep 10 21:13:20 2018
### 

@<TRIPOS>MOLECULE
4tjz_ligand
   29    28     1     0     0
SMALL
GAST_HUCK


@<TRIPOS>ATOM
      1 C1          5.7860  -16.5090   -1.7320 C.2       1 DKA         0.0366
      2 O1          6.8560  -15.8670   -1.6780 O.co2     1 DKA        -0.5703
      3 C2          5.6310  -17.6330   -2.7260 C.2       1 DKA        -0.0436
      4 C3          6.8290  -18.0280   -3.4880 C.2       1 DKA        -0.0691
      5 C4          6.6350  -19.2030   -4.4060 C.3       1 DKA        -0.0186
      6 C5          7.9380  -19.7450   -4.9790 C.3       1 DKA        -0.0408
      7 C6          7.7380  -20.7990   -6.0670 C.3       1 DKA        -0.0507
      8 C7          6.9300  -21.9970   -5.6690 C.3       1 DKA        -0.0529
      9 C8          7.5110  -22.8040   -4.5720 C.3       1 DKA        -0.0533
     10 C9          6.6710  -23.9980   -4.1160 C.3       1 DKA        -0.0559
     11 C10         7.3160  -24.8090   -2.9960 C.3       1 DKA        -0.0653
     12 O2          4.7970  -16.2560   -0.9760 O.co2     1 DKA        -0.5703
     13 H1          4.6742  -18.1315   -2.8743 H         1 DKA         0.0423
     14 H2          7.7816  -17.5088   -3.3935 H         1 DKA         0.0780
     15 H3          5.9904  -18.8905   -5.2408 H         1 DKA         0.0470
     16 H4          6.1406  -20.0079   -3.8423 H         1 DKA         0.0470
     17 H5          8.5165  -20.1968   -4.1598 H         1 DKA         0.0294
     18 H6          8.5045  -18.9056   -5.4084 H         1 DKA         0.0294
     19 H7          8.7309  -21.1508   -6.3837 H         1 DKA         0.0267
     20 H8          7.2318  -20.3167   -6.9162 H         1 DKA         0.0267
     21 H9          6.8234  -22.6457   -6.5509 H         1 DKA         0.0265
     22 H10         5.9373  -21.6484   -5.3480 H         1 DKA         0.0265
     23 H11         7.6576  -22.1423   -3.7056 H         1 DKA         0.0265
     24 H12         8.4854  -23.1852   -4.9113 H         1 DKA         0.0265
     25 H13         6.5133  -24.6617   -4.9789 H         1 DKA         0.0263
     26 H14         5.7002  -23.6237   -3.7591 H         1 DKA         0.0263
     27 H15         6.6568  -25.6462   -2.7231 H         1 DKA         0.0230
     28 H16         7.4715  -24.1638   -2.1188 H         1 DKA         0.0230
     29 H17         8.2847  -25.2018   -3.3387 H         1 DKA         0.0230
@<TRIPOS>BOND
     1    1    2 ar 
     2    1    3 1  
     3    1   12 ar 
     4    3    4 2  
     5    4    5 1  
     6    5    6 1  
     7    6    7 1  
     8    7    8 1  
     9    8    9 1  
    10    9   10 1  
    11   10   11 1  
    12    3   13 1  
    13    4   14 1  
    14    5   15 1  
    15    5   16 1  
    16    6   17 1  
    17    6   18 1  
    18    7   19 1  
    19    7   20 1  
    20    8   21 1  
    21    8   22 1  
    22    9   23 1  
    23    9   24 1  
    24   10   25 1  
    25   10   26 1  
    26   11   27 1  
    27   11   28 1  
    28   11   29 1  
@<TRIPOS>SUBSTRUCTURE
     1 DKA         1

