### 
### Created by X-TOOL on Mon Sep 10 21:13:18 2018
### 

@<TRIPOS>MOLECULE
4tk0_ligand
   49    51     1     0     0
SMALL
GAST_HUCK


@<TRIPOS>ATOM
      1 O01        22.0200   48.1600   -2.3370 O.2       1 32Z        -0.3887
      2 C02        22.8700   47.7660   -1.5460 C.2       1 32Z         0.1976
      3 N03        23.0630   46.4180   -1.4080 N.am      1 32Z        -0.2856
      4 C04        24.0620   45.8500   -0.4840 C.3       1 32Z         0.0391
      5 C05        25.2830   46.7270   -0.2390 C.3       1 32Z         0.0029
      6 C06        24.9820   48.2050   -0.1980 C.ar      1 32Z         0.0088
      7 C07        25.9170   49.1510    0.3850 C.ar      1 32Z         0.0986
      8 O08        26.9080   48.6300    1.2110 O.3       1 32Z        -0.3206
      9 C09        28.1020   47.9490    0.8160 C.3       1 32Z         0.0690
     10 C10        28.5240   47.2630    2.1710 C.3       1 32Z        -0.0205
     11 C11        29.2550   45.9330    2.0130 C.3       1 32Z        -0.0101
     12 C12        28.4880   44.7600    2.7530 C.3       1 32Z        -0.0318
     13 N13        27.2130   44.3190    2.0180 N.4       1 32Z         0.2352
     14 C14        26.3490   43.2850    2.7400 C.3       1 32Z        -0.0319
     15 C15        26.5610   41.7580    2.3560 C.3       1 32Z        -0.0123
     16 C16        26.9310   41.5020    0.8610 C.3       1 32Z        -0.0434
     17 C17        26.7690   42.7670    0.0420 C.3       1 32Z        -0.0123
     18 C18        27.5940   43.8990    0.6190 C.3       1 32Z        -0.0319
     19 C19        25.5260   50.5120    0.4770 C.ar      1 32Z        -0.0352
     20 C20        24.2850   50.9820   -0.0870 C.ar      1 32Z        -0.0720
     21 C21        23.4710   50.0850   -0.8130 C.ar      1 32Z        -0.0597
     22 C22        23.7880   48.7080   -0.7970 C.ar      1 32Z         0.0430
     23 H          22.5049   45.7941   -1.9550 H         1 32Z         0.1844
     24 H          24.4075   44.8927   -0.9012 H         1 32Z         0.0541
     25 H          23.5699   45.6720    0.4835 H         1 32Z         0.0541
     26 H          26.0072   46.5443   -1.0466 H         1 32Z         0.0437
     27 H          25.7279   46.4383    0.7247 H         1 32Z         0.0437
     28 H          28.8703   48.6531    0.4640 H         1 32Z         0.0611
     29 H          27.9009   47.2039    0.0322 H         1 32Z         0.0611
     30 H          27.6140   47.0853    2.7628 H         1 32Z         0.0293
     31 H          29.1851   47.9547    2.7137 H         1 32Z         0.0293
     32 H          30.2642   46.0263    2.4405 H         1 32Z         0.0318
     33 H          29.3311   45.6914    0.9426 H         1 32Z         0.0318
     34 H          28.2107   45.1033    3.7606 H         1 32Z         0.0814
     35 H          29.1632   43.8953    2.8331 H         1 32Z         0.0814
     36 H          26.6350   45.1403    1.9319 H         1 32Z         0.2033
     37 H          25.2971   43.5335    2.5356 H         1 32Z         0.0814
     38 H          26.5466   43.3846    3.8175 H         1 32Z         0.0814
     39 H          25.6280   41.2179    2.5745 H         1 32Z         0.0317
     40 H          27.3718   41.3575    2.9822 H         1 32Z         0.0317
     41 H          26.2703   40.7222    0.4544 H         1 32Z         0.0269
     42 H          27.9763   41.1649    0.8008 H         1 32Z         0.0269
     43 H          25.7088   43.0601    0.0394 H         1 32Z         0.0317
     44 H          27.0981   42.5720   -0.9893 H         1 32Z         0.0317
     45 H          28.6468   43.5807    0.6333 H         1 32Z         0.0814
     46 H          27.4838   44.7720   -0.0411 H         1 32Z         0.0814
     47 H          26.1764   51.2157    0.9838 H         1 32Z         0.0556
     48 H          23.9799   52.0138    0.0450 H         1 32Z         0.0543
     49 H          22.6167   50.4470   -1.3736 H         1 32Z         0.0556
@<TRIPOS>BOND
     1    1    2 2  
     2    2    3 am 
     3    2   22 1  
     4    3    4 1  
     5    4    5 1  
     6    5    6 1  
     7    6    7 ar 
     8    6   22 ar 
     9    7    8 1  
    10    7   19 ar 
    11    8    9 1  
    12    9   10 1  
    13   10   11 1  
    14   11   12 1  
    15   12   13 1  
    16   13   14 1  
    17   13   18 1  
    18   14   15 1  
    19   15   16 1  
    20   16   17 1  
    21   17   18 1  
    22   19   20 ar 
    23   20   21 ar 
    24   21   22 ar 
    25    3   23 1  
    26    4   24 1  
    27    4   25 1  
    28    5   26 1  
    29    5   27 1  
    30    9   28 1  
    31    9   29 1  
    32   10   30 1  
    33   10   31 1  
    34   11   32 1  
    35   11   33 1  
    36   12   34 1  
    37   12   35 1  
    38   13   36 1  
    39   14   37 1  
    40   14   38 1  
    41   15   39 1  
    42   15   40 1  
    43   16   41 1  
    44   16   42 1  
    45   17   43 1  
    46   17   44 1  
    47   18   45 1  
    48   18   46 1  
    49   19   47 1  
    50   20   48 1  
    51   21   49 1  
@<TRIPOS>SUBSTRUCTURE
     1 32Z         1

