### 
### Created by X-TOOL on Mon Sep 10 21:13:17 2018
### 

@<TRIPOS>MOLECULE
4tk5_ligand
   67    72     1     0     0
SMALL
GAST_HUCK


@<TRIPOS>ATOM
      1 C01        24.1030   49.8970   -0.8020 C.ar      1 UHB        -0.0640
      2 C02        25.2000   50.2550    0.0040 C.ar      1 UHB        -0.0770
      3 C03        26.0780   49.2980    0.5130 C.ar      1 UHB        -0.0431
      4 C04        25.8640   47.9070    0.3200 C.ar      1 UHB         0.0769
      5 C05        24.7580   47.5480   -0.5100 C.ar      1 UHB         0.0216
      6 C06        23.9550   48.5600   -1.0580 C.ar      1 UHB         0.0405
      7 C07        22.9250   47.9860   -1.9460 C.2       1 UHB         0.1981
      8 C08        24.1640   46.2270   -1.0120 C.3       1 UHB         0.0639
      9 N09        23.0890   46.6030   -1.8800 N.am      1 UHB        -0.2774
     10 O10        22.0750   48.5510   -2.6050 O.2       1 UHB        -0.3887
     11 N11        26.7510   46.9890    0.9190 N.am      1 UHB        -0.2315
     12 C12        26.4420   45.7540    1.5170 C.2       1 UHB         0.2474
     13 O13        25.2580   45.3550    1.6020 O.2       1 UHB        -0.3798
     14 C14        27.5140   44.8360    2.0840 C.3       1 UHB         0.0637
     15 N15        27.2060   43.4700    2.5440 N.4       1 UHB         0.2552
     16 C16        26.8060   42.5470    1.3630 C.3       1 UHB        -0.0091
     17 C17        26.3860   41.0950    1.8250 C.3       1 UHB         0.0741
     18 N18        25.4240   41.1680    2.8910 N.am      1 UHB        -0.2608
     19 C19        25.9090   41.8590    4.0410 C.3       1 UHB         0.0741
     20 C20        26.2810   43.3160    3.7410 C.3       1 UHB        -0.0091
     21 C21        24.0820   40.7530    2.7480 C.2       1 UHB         0.2108
     22 C22        23.5500   40.0350    1.4920 C.3       1 UHB         0.1790
     23 C23        23.0990   41.0140    0.2980 C.3       1 UHB         0.1295
     24 C24        21.7290   40.4680   -0.0930 C.3       1 UHB         0.1408
     25 C25        21.5120   39.2160    0.8220 C.3       1 UHB         0.2035
     26 O26        22.3870   39.3460    1.8800 O.3       1 UHB        -0.3181
     27 O27        23.2970   40.9480    3.7090 O.2       1 UHB        -0.3939
     28 O28        23.9340   40.8020   -0.7680 O.3       1 UHB        -0.3840
     29 O29        20.7810   41.4350   -0.0550 O.3       1 UHB        -0.3834
     30 N30        20.2140   38.8120    1.2760 N.pl3     1 UHB        -0.1918
     31 C31        18.3020   37.6740    1.5030 C.ar      1 UHB         0.1045
     32 C32        19.6160   37.6260    0.9490 C.ar      1 UHB         0.1613
     33 C33        19.2310   39.6050    1.9520 C.2       1 UHB         0.1123
     34 N34        18.0670   38.9440    2.0860 N.2       1 UHB        -0.2958
     35 N35        18.0060   35.4210    0.6740 N.ar      1 UHB        -0.2698
     36 C36        19.2950   35.4920    0.2390 C.ar      1 UHB         0.0533
     37 N37        20.1530   36.5330    0.2910 N.ar      1 UHB        -0.2714
     38 C38        17.4850   36.5300    1.3310 C.ar      1 UHB         0.1298
     39 N39        16.1840   36.4320    1.7310 N.pl3     1 UHB        -0.3152
     40 H          23.4156   50.6364   -1.1969 H         1 UHB         0.0519
     41 H          25.3668   51.3009    0.2350 H         1 UHB         0.0532
     42 H          26.9478   49.6249    1.0713 H         1 UHB         0.0513
     43 H          23.7876   45.6286   -0.1692 H         1 UHB         0.0668
     44 H          24.9203   45.6490   -1.5632 H         1 UHB         0.0668
     45 H          22.5216   45.9494   -2.3808 H         1 UHB         0.1867
     46 H          27.7170   47.2474    0.9186 H         1 UHB         0.2237
     47 H          27.9453   45.3624    2.9482 H         1 UHB         0.1067
     48 H          28.2778   44.7322    1.2992 H         1 UHB         0.1067
     49 H          28.0904   43.1139    2.8712 H         1 UHB         0.2054
     50 H          27.6633   42.4623    0.6790 H         1 UHB         0.0835
     51 H          25.9578   43.0046    0.8329 H         1 UHB         0.0835
     52 H          27.2770   40.5545    2.1771 H         1 UHB         0.0575
     53 H          25.9435   40.5573    0.9735 H         1 UHB         0.0575
     54 H          26.8024   41.3373    4.4146 H         1 UHB         0.0575
     55 H          25.1271   41.8473    4.8147 H         1 UHB         0.0575
     56 H          25.3565   43.8777    3.5415 H         1 UHB         0.0835
     57 H          26.7822   43.7368    4.6252 H         1 UHB         0.0835
     58 H          24.3165   39.3379    1.1225 H         1 UHB         0.0869
     59 H          23.0731   42.0718    0.5987 H         1 UHB         0.0673
     60 H          21.7719   40.1158   -1.1342 H         1 UHB         0.0678
     61 H          21.8588   38.3642    0.2185 H         1 UHB         0.0998
     62 H          23.5953   41.2577   -1.5296 H         1 UHB         0.2102
     63 H          21.0223   42.1369   -0.6479 H         1 UHB         0.2101
     64 H          19.4045   40.6177    2.3128 H         1 UHB         0.1349
     65 H          19.6861   34.5869   -0.2115 H         1 UHB         0.0996
     66 H          15.6591   35.5610    1.5673 H         1 UHB         0.1820
     67 H          15.7269   37.2290    2.1966 H         1 UHB         0.1820
@<TRIPOS>BOND
     1    2    1 ar 
     2    6    1 ar 
     3    3    2 ar 
     4    4    3 ar 
     5    4    5 ar 
     6   11    4 1  
     7    5    6 ar 
     8    5    8 1  
     9    6    7 1  
    10    9    7 am 
    11    7   10 2  
    12    8    9 1  
    13   12   11 am 
    14   12   13 2  
    15   14   12 1  
    16   15   14 1  
    17   16   15 1  
    18   20   15 1  
    19   17   16 1  
    20   18   17 1  
    21   18   19 1  
    22   21   18 am 
    23   19   20 1  
    24   22   21 1  
    25   21   27 2  
    26   22   23 1  
    27   26   22 1  
    28   24   23 1  
    29   23   28 1  
    30   25   24 1  
    31   24   29 1  
    32   25   26 1  
    33   30   25 1  
    34   32   30 1  
    35   33   30 1  
    36   31   32 ar 
    37   31   34 1  
    38   38   31 ar 
    39   32   37 ar 
    40   34   33 2  
    41   35   36 ar 
    42   35   38 ar 
    43   36   37 ar 
    44   38   39 1  
    45    1   40 1  
    46    2   41 1  
    47    3   42 1  
    48    8   43 1  
    49    8   44 1  
    50    9   45 1  
    51   11   46 1  
    52   14   47 1  
    53   14   48 1  
    54   15   49 1  
    55   16   50 1  
    56   16   51 1  
    57   17   52 1  
    58   17   53 1  
    59   19   54 1  
    60   19   55 1  
    61   20   56 1  
    62   20   57 1  
    63   22   58 1  
    64   23   59 1  
    65   24   60 1  
    66   25   61 1  
    67   28   62 1  
    68   29   63 1  
    69   33   64 1  
    70   36   65 1  
    71   39   66 1  
    72   39   67 1  
@<TRIPOS>SUBSTRUCTURE
     1 UHB         1

