### 
### Created by X-TOOL on Mon Sep 10 21:13:20 2018
### 

@<TRIPOS>MOLECULE
4tkb_ligand
   37    36     1     0     0
SMALL
GAST_HUCK


@<TRIPOS>ATOM
      1 O1         -6.8750   15.8900   15.2370 O.co2     1 DAO        -0.5690
      2 O2         -4.8000   16.2370   15.9020 O.co2     1 DAO        -0.5690
      3 C1         -5.7930   16.5010   15.1730 C.2       1 DAO         0.0348
      4 C2         -5.6220   17.5800   14.1290 C.3       1 DAO         0.0002
      5 C3         -6.8230   17.9990   13.3800 C.3       1 DAO        -0.0414
      6 C4         -6.6520   19.1670   12.4310 C.3       1 DAO        -0.0516
      7 C5         -7.9430   19.6980   11.8500 C.3       1 DAO        -0.0530
      8 C6         -7.7740   20.7340   10.7540 C.3       1 DAO        -0.0531
      9 C7         -6.9740   21.9300   11.1190 C.3       1 DAO        -0.0531
     10 C8         -7.5380   22.7370   12.2400 C.3       1 DAO        -0.0531
     11 C9         -6.6800   23.9130   12.6480 C.3       1 DAO        -0.0531
     12 C10        -7.2530   24.7660   13.7870 C.3       1 DAO        -0.0533
     13 C11        -7.4200   24.0810   15.1210 C.3       1 DAO        -0.0559
     14 C12        -7.9370   25.0820   16.1040 C.3       1 DAO        -0.0653
     15 H1         -4.8868   17.2161   13.3962 H         1 DAO         0.0430
     16 H2         -5.2233   18.4703   14.6373 H         1 DAO         0.0430
     17 H3         -7.5955   18.2740   14.1132 H         1 DAO         0.0283
     18 H4         -7.1674   17.1366   12.7904 H         1 DAO         0.0283
     19 H5         -6.0090   18.8426   11.5995 H         1 DAO         0.0266
     20 H6         -6.1597   19.9846   12.9779 H         1 DAO         0.0266
     21 H7         -8.5218   20.1555   12.6658 H         1 DAO         0.0265
     22 H8         -8.5046   18.8489   11.4334 H         1 DAO         0.0265
     23 H9         -8.7756   21.0757   10.4540 H         1 DAO         0.0265
     24 H10        -7.2820   20.2458    9.8999 H         1 DAO         0.0265
     25 H11        -6.9015   22.5777   10.2328 H         1 DAO         0.0265
     26 H12        -5.9681   21.5938   11.4107 H         1 DAO         0.0265
     27 H13        -7.6587   22.0785   13.1128 H         1 DAO         0.0265
     28 H14        -8.5219   23.1187   11.9297 H         1 DAO         0.0265
     29 H15        -6.5480   24.5610   11.7690 H         1 DAO         0.0265
     30 H16        -5.7014   23.5269   12.9693 H         1 DAO         0.0265
     31 H17        -8.2428   25.1262   13.4698 H         1 DAO         0.0265
     32 H18        -6.5802   25.6238   13.9335 H         1 DAO         0.0265
     33 H19        -6.4497   23.6917   15.4628 H         1 DAO         0.0263
     34 H20        -8.1351   23.2507   15.0254 H         1 DAO         0.0263
     35 H21        -8.0655   24.6004   17.0846 H         1 DAO         0.0230
     36 H22        -8.9057   25.4705   15.7566 H         1 DAO         0.0230
     37 H23        -7.2202   25.9115   16.1941 H         1 DAO         0.0230
@<TRIPOS>BOND
     1    1    3 ar 
     2    3    2 ar 
     3    3    4 1  
     4    4    5 1  
     5    5    6 1  
     6    6    7 1  
     7    7    8 1  
     8    8    9 1  
     9    9   10 1  
    10   10   11 1  
    11   11   12 1  
    12   12   13 1  
    13   13   14 1  
    14    4   15 1  
    15    4   16 1  
    16    5   17 1  
    17    5   18 1  
    18    6   19 1  
    19    6   20 1  
    20    7   21 1  
    21    7   22 1  
    22    8   23 1  
    23    8   24 1  
    24    9   25 1  
    25    9   26 1  
    26   10   27 1  
    27   10   28 1  
    28   11   29 1  
    29   11   30 1  
    30   12   31 1  
    31   12   32 1  
    32   13   33 1  
    33   13   34 1  
    34   14   35 1  
    35   14   36 1  
    36   14   37 1  
@<TRIPOS>SUBSTRUCTURE
     1 DAO         1

