### 
### Created by X-TOOL on Mon Sep 10 21:13:17 2018
### 

@<TRIPOS>MOLECULE
4tkf_ligand
   50    55     1     0     0
SMALL
GAST_HUCK


@<TRIPOS>ATOM
      1 CAF        19.7260   33.1860   -0.3080 C.ar      1 33C        -0.0360
      2 CAH        20.5320   34.3290   -0.2050 C.ar      1 33C         0.0076
      3 CAI        16.8290   36.8990    1.3750 C.ar      1 33C        -0.0379
      4 CAJ        20.4790   40.4550    0.6680 C.ar      1 33C        -0.0530
      5 CAD        24.4190   43.9250   -0.8090 C.2       1 33C        -0.0923
      6 CAE        25.2070   42.8410   -0.8260 C.2       1 33C        -0.0923
      7 CAL        21.6210   41.2450    0.6720 C.ar      1 33C        -0.0296
      8 CAN        18.3740   33.2530    0.0350 C.ar      1 33C        -0.0412
      9 CAS        18.7980   38.9770    1.8590 C.2       1 33C         0.2263
     10 CAO        16.5120   34.5730    0.8410 C.ar      1 33C        -0.0665
     11 CAP        26.4430   44.5600    0.1650 C.3       1 33C        -0.0291
     12 CAW        22.3060   41.4730    1.8570 C.ar      1 33C         0.1008
     13 CAV        19.9920   39.9380    1.8580 C.ar      1 33C         0.0426
     14 CBB        26.2740   43.0500    0.2670 C.3       1 33C         0.0006
     15 CBA        24.9660   44.8590    0.3010 C.3       1 33C         0.0006
     16 CAZ        18.6990   35.5950    0.5540 C.ar      1 33C         0.0768
     17 CAY        17.8540   34.4740    0.4700 C.ar      1 33C        -0.0059
     18 CAU        24.6540   41.8200    1.7800 C.2       1 33C         0.2406
     19 CAX        18.1830   36.8120    1.0250 C.ar      1 33C         0.0955
     20 NAQ        20.0110   35.4830    0.2200 N.ar      1 33C        -0.2956
     21 CAG        15.9920   35.7950    1.2850 C.ar      1 33C        -0.0763
     22 NAR        19.0150   37.8580    1.1520 N.am      1 33C        -0.2276
     23 OAA        17.7900   39.2220    2.5050 O.2       1 33C        -0.3774
     24 CAK        20.6630   40.1890    3.0430 C.ar      1 33C        -0.0530
     25 CAM        21.8260   40.9490    3.0480 C.ar      1 33C        -0.0296
     26 NBC        23.3850   42.2580    1.8340 N.am      1 33C        -0.1291
     27 CAT        23.3160   43.5900    1.7760 C.2       1 33C         0.2406
     28 OAB        22.2620   44.2360    1.7850 O.2       1 33C        -0.3741
     29 CBD        24.7140   44.2140    1.6840 C.3       1 33C         0.0911
     30 CBE        25.6350   42.9840    1.6740 C.3       1 33C         0.0911
     31 OAC        25.0090   40.6410    1.7940 O.2       1 33C        -0.3741
     32 H          20.1522   32.2511   -0.6536 H         1 33C         0.0687
     33 H          21.5814   34.2757   -0.4712 H         1 33C         0.0824
     34 H          16.4282   37.8445    1.7220 H         1 33C         0.0475
     35 H          19.9691   40.2430   -0.2648 H         1 33C         0.0633
     36 H          23.5599   44.1134   -1.4512 H         1 33C         0.0454
     37 H          25.1119   41.9790   -1.4847 H         1 33C         0.0454
     38 H          21.9780   41.6844   -0.2524 H         1 33C         0.0534
     39 H          17.7413   32.3756   -0.0349 H         1 33C         0.0734
     40 H          15.8703   33.7011    0.7852 H         1 33C         0.0469
     41 H          26.8601   44.8821   -0.8005 H         1 33C         0.0313
     42 H          27.0446   44.9820    0.9835 H         1 33C         0.0313
     43 H          27.1779   42.4352    0.1448 H         1 33C         0.0454
     44 H          24.6564   45.9111    0.2159 H         1 33C         0.0454
     45 H          14.9457   35.8782    1.5559 H         1 33C         0.0587
     46 H          19.8883   37.7964    0.6687 H         1 33C         0.2308
     47 H          20.2778   39.7893    3.9741 H         1 33C         0.0633
     48 H          22.3547   41.1312    3.9766 H         1 33C         0.0534
     49 H          24.9117   44.9140    2.5091 H         1 33C         0.0601
     50 H          26.3859   42.9753    2.4778 H         1 33C         0.0601
@<TRIPOS>BOND
     1    2    1 ar 
     2    8    1 ar 
     3   20    2 ar 
     4   19    3 ar 
     5    3   21 ar 
     6    4    7 ar 
     7   13    4 ar 
     8    6    5 2  
     9   15    5 1  
    10   14    6 1  
    11    7   12 ar 
    12   17    8 ar 
    13    9   13 1  
    14   22    9 am 
    15    9   23 2  
    16   17   10 ar 
    17   21   10 ar 
    18   14   11 1  
    19   11   15 1  
    20   12   25 ar 
    21   12   26 1  
    22   13   24 ar 
    23   30   14 1  
    24   15   29 1  
    25   16   17 ar 
    26   19   16 ar 
    27   16   20 ar 
    28   26   18 am 
    29   18   30 1  
    30   18   31 2  
    31   19   22 1  
    32   24   25 ar 
    33   26   27 am 
    34   27   28 2  
    35   27   29 1  
    36   29   30 1  
    37    1   32 1  
    38    2   33 1  
    39    3   34 1  
    40    4   35 1  
    41    5   36 1  
    42    6   37 1  
    43    7   38 1  
    44    8   39 1  
    45   10   40 1  
    46   11   41 1  
    47   11   42 1  
    48   14   43 1  
    49   15   44 1  
    50   21   45 1  
    51   22   46 1  
    52   24   47 1  
    53   25   48 1  
    54   29   49 1  
    55   30   50 1  
@<TRIPOS>SUBSTRUCTURE
     1 33C         1

