### 
### Created by X-TOOL on Mon Sep 10 21:13:18 2018
### 

@<TRIPOS>MOLECULE
4tkg_ligand
   53    57     1     0     0
SMALL
GAST_HUCK


@<TRIPOS>ATOM
      1 CAJ        19.2860   36.3880    0.1760 C.2       1 09L        -0.0573
      2 CAK        19.9710   35.6940    1.2940 C.2       1 09L        -0.0573
      3 CAI        20.4100   37.0590    0.8910 C.3       1 09L         0.0862
      4 CAL        19.8590   38.2850    1.7400 C.2       1 09L         0.1871
      5 OAB        18.8910   38.2200    2.5690 O.2       1 09L        -0.4001
      6 NAE        20.4660   39.6110    1.5440 N.am      1 09L        -0.2696
      7 CAM        20.0410   40.7570    2.3010 C.3       1 09L         0.0539
      8 CAO        21.1760   41.2340    3.1270 C.3       1 09L         0.0536
      9 CAN        21.5850   39.9290    0.6860 C.3       1 09L         0.0539
     10 CAP        22.7200   40.1510    1.6130 C.3       1 09L         0.0536
     11 NAF        22.4340   41.3170    2.4180 N.am      1 09L        -0.2693
     12 CAQ        23.3070   42.4870    2.5930 C.2       1 09L         0.2053
     13 OAC        22.8840   43.4520    3.2150 O.2       1 09L        -0.3868
     14 CAR        24.6580   42.6570    1.8940 C.ar      1 09L         0.0771
     15 CAS        25.0510   44.0010    1.5380 C.ar      1 09L        -0.0404
     16 CAU        25.5230   41.5600    1.6280 C.ar      1 09L         0.1461
     17 FAA        25.2250   40.2820    1.9940 F         1 09L        -0.1830
     18 CAX        26.7430   41.7670    0.9530 C.ar      1 09L        -0.0285
     19 CAW        27.0730   43.0860    0.5890 C.ar      1 09L        -0.0558
     20 CAT        26.2180   44.1920    0.8720 C.ar      1 09L        -0.0303
     21 CAV        26.6860   45.5960    0.4040 C.3       1 09L         0.0254
     22 CAY        25.5710   46.3750   -0.3110 C.2       1 09L         0.0655
     23 CAZ        25.3740   47.7980   -0.1180 C.ar      1 09L         0.0126
     24 CBB        26.2620   48.6150    0.7330 C.ar      1 09L        -0.0505
     25 CBE        25.9750   49.9800    0.9490 C.ar      1 09L        -0.0598
     26 CBF        24.8830   50.5780    0.2820 C.ar      1 09L        -0.0589
     27 CBD        24.0450   49.8050   -0.5920 C.ar      1 09L        -0.0440
     28 CBA        24.3100   48.4170   -0.7880 C.ar      1 09L         0.0610
     29 CBC        23.4830   47.6360   -1.6610 C.2       1 09L         0.2361
     30 OAD        22.5370   48.1330   -2.2780 O.2       1 09L        -0.3937
     31 NAH        23.6990   46.3180   -1.8090 N.am      1 09L        -0.1719
     32 NAG        24.7520   45.6780   -1.1220 N.2       1 09L        -0.1830
     33 H          18.5216   36.3993   -0.5995 H         1 09L         0.0613
     34 H          20.0761   34.8226    1.9387 H         1 09L         0.0613
     35 H          21.4016   37.2453    0.4527 H         1 09L         0.0640
     36 H          19.2009   40.4776    2.9538 H         1 09L         0.0542
     37 H          19.7224   41.5555    1.6148 H         1 09L         0.0542
     38 H          21.3020   40.5415    3.9723 H         1 09L         0.0542
     39 H          20.9282   42.2359    3.5075 H         1 09L         0.0542
     40 H          21.3790   40.8373    0.1008 H         1 09L         0.0542
     41 H          21.7997   39.0937    0.0032 H         1 09L         0.0542
     42 H          23.6427   40.3151    1.0371 H         1 09L         0.0542
     43 H          22.8450   39.2728    2.2634 H         1 09L         0.0542
     44 H          24.4227   44.8448    1.7991 H         1 09L         0.0600
     45 H          27.4039   40.9393    0.7223 H         1 09L         0.0599
     46 H          28.0102   43.2677    0.0754 H         1 09L         0.0586
     47 H          27.5320   45.4741   -0.2883 H         1 09L         0.0573
     48 H          27.0115   46.1715    1.2831 H         1 09L         0.0573
     49 H          27.1352   48.1660    1.1923 H         1 09L         0.0617
     50 H          26.5892   50.5661    1.6230 H         1 09L         0.0642
     51 H          24.6751   51.6314    0.4312 H         1 09L         0.0609
     52 H          23.2123   50.2758   -1.1020 H         1 09L         0.0659
     53 H          23.1066   45.7848   -2.4130 H         1 09L         0.2568
@<TRIPOS>BOND
     1    1    2 2  
     2    1    3 1  
     3    2    3 1  
     4    3    4 1  
     5    4    5 2  
     6    4    6 am 
     7    6    7 1  
     8    6    9 1  
     9    7    8 1  
    10    8   11 1  
    11    9   10 1  
    12   10   11 1  
    13   11   12 am 
    14   12   13 2  
    15   12   14 1  
    16   14   15 ar 
    17   14   16 ar 
    18   15   20 ar 
    19   16   17 1  
    20   16   18 ar 
    21   18   19 ar 
    22   19   20 ar 
    23   20   21 1  
    24   21   22 1  
    25   22   23 1  
    26   22   32 2  
    27   23   24 ar 
    28   23   28 ar 
    29   24   25 ar 
    30   25   26 ar 
    31   26   27 ar 
    32   27   28 ar 
    33   28   29 1  
    34   29   30 2  
    35   29   31 am 
    36   31   32 1  
    37    1   33 1  
    38    2   34 1  
    39    3   35 1  
    40    7   36 1  
    41    7   37 1  
    42    8   38 1  
    43    8   39 1  
    44    9   40 1  
    45    9   41 1  
    46   10   42 1  
    47   10   43 1  
    48   15   44 1  
    49   18   45 1  
    50   19   46 1  
    51   21   47 1  
    52   21   48 1  
    53   24   49 1  
    54   25   50 1  
    55   26   51 1  
    56   27   52 1  
    57   31   53 1  
@<TRIPOS>SUBSTRUCTURE
     1 09L         1

