### 
### Created by X-TOOL on Mon Sep 10 21:13:20 2018
### 

@<TRIPOS>MOLECULE
4tkh_ligand
   41    40     1     0     0
SMALL
GAST_HUCK


@<TRIPOS>ATOM
      1 C1         -5.7400  -16.5240    1.6760 C.2       1 MYR         0.0348
      2 O1         -6.8180  -15.8740    1.5940 O.co2     1 MYR        -0.5690
      3 O2         -4.7320  -16.2750    0.9200 O.co2     1 MYR        -0.5690
      4 C2         -5.5730  -17.6190    2.6660 C.3       1 MYR         0.0002
      5 C3         -6.7970  -18.0390    3.4260 C.3       1 MYR        -0.0414
      6 C4         -6.6110  -19.1940    4.3790 C.3       1 MYR        -0.0516
      7 C5         -7.9170  -19.7050    4.9840 C.3       1 MYR        -0.0530
      8 C6         -7.7300  -20.7740    6.0510 C.3       1 MYR        -0.0530
      9 C7         -6.9130  -21.9740    5.6780 C.3       1 MYR        -0.0529
     10 C8         -7.5080  -22.7380    4.5150 C.3       1 MYR        -0.0515
     11 C9         -6.5840  -23.8510    4.0480 C.3       1 MYR        -0.0464
     12 C10        -7.1250  -24.6830    2.9780 C.3       1 MYR        -0.0365
     13 C11        -7.4640  -24.1310    1.7270 C.2       1 MYR        -0.0987
     14 C12        -6.6070  -23.1160    1.2270 C.2       1 MYR        -0.0989
     15 C13        -6.7020  -22.8150   -0.2430 C.3       1 MYR        -0.0393
     16 C14        -7.0310  -21.3840   -0.5520 C.3       1 MYR        -0.0586
     17 H1         -4.8220  -17.2918    3.4001 H         1 MYR         0.0430
     18 H2         -5.1981  -18.5010    2.1261 H         1 MYR         0.0430
     19 H3         -7.5674  -18.3249    2.6947 H         1 MYR         0.0283
     20 H4         -7.1470  -17.1737    4.0080 H         1 MYR         0.0283
     21 H5         -5.9533  -18.8667    5.1977 H         1 MYR         0.0266
     22 H6         -6.1335  -20.0213    3.8335 H         1 MYR         0.0266
     23 H7         -8.5306  -20.1279    4.1749 H         1 MYR         0.0265
     24 H8         -8.4447  -18.8529    5.4373 H         1 MYR         0.0265
     25 H9         -8.7291  -21.1306    6.3418 H         1 MYR         0.0265
     26 H10        -7.2444  -20.2981    6.9157 H         1 MYR         0.0265
     27 H11        -6.8531  -22.6448    6.5477 H         1 MYR         0.0265
     28 H12        -5.9018  -21.6409    5.4015 H         1 MYR         0.0265
     29 H13        -7.6794  -22.0421    3.6805 H         1 MYR         0.0267
     30 H14        -8.4664  -23.1773    4.8289 H         1 MYR         0.0267
     31 H15        -6.3658  -24.4994    4.9093 H         1 MYR         0.0285
     32 H16        -5.6508  -23.3934    3.6878 H         1 MYR         0.0285
     33 H17        -8.0416  -25.1442    3.3743 H         1 MYR         0.0388
     34 H18        -6.3765  -25.4648    2.7817 H         1 MYR         0.0388
     35 H19        -8.3390  -24.4660    1.1719 H         1 MYR         0.0450
     36 H20        -5.9148  -22.5817    1.8761 H         1 MYR         0.0450
     37 H21        -7.4870  -23.4519   -0.6767 H         1 MYR         0.0385
     38 H22        -5.7351  -23.0561   -0.7088 H         1 MYR         0.0385
     39 H23        -7.0820  -21.2467   -1.6422 H         1 MYR         0.0249
     40 H24        -6.2502  -20.7302   -0.1363 H         1 MYR         0.0249
     41 H25        -8.0020  -21.1260   -0.1041 H         1 MYR         0.0249
@<TRIPOS>BOND
     1    1    2 ar 
     2    1    3 ar 
     3    1    4 1  
     4    4    5 1  
     5    5    6 1  
     6    6    7 1  
     7    7    8 1  
     8    8    9 1  
     9    9   10 1  
    10   10   11 1  
    11   11   12 1  
    12   12   13 1  
    13   13   14 2  
    14   14   15 1  
    15   15   16 1  
    16    4   17 1  
    17    4   18 1  
    18    5   19 1  
    19    5   20 1  
    20    6   21 1  
    21    6   22 1  
    22    7   23 1  
    23    7   24 1  
    24    8   25 1  
    25    8   26 1  
    26    9   27 1  
    27    9   28 1  
    28   10   29 1  
    29   10   30 1  
    30   11   31 1  
    31   11   32 1  
    32   12   33 1  
    33   12   34 1  
    34   13   35 1  
    35   14   36 1  
    36   15   37 1  
    37   15   38 1  
    38   16   39 1  
    39   16   40 1  
    40   16   41 1  
@<TRIPOS>SUBSTRUCTURE
     1 MYR         1

