### 
### Created by X-TOOL on Mon Sep 10 21:13:17 2018
### 

@<TRIPOS>MOLECULE
4tki_ligand
   18    18     1     0     0
SMALL
GAST_HUCK


@<TRIPOS>ATOM
      1 OAC        23.1390   49.8210   -1.1720 O.2       1 33E         0.1794
      2 NAM        23.0690   48.5410   -1.5710 N.2       1 33E         0.3179
      3 OAD        22.1210   48.2730   -2.4870 O.2       1 33E         0.1794
      4 CAL        23.8970   47.6090   -1.0460 C.ar      1 33E         0.2157
      5 CAH        23.6110   46.2350   -1.1760 C.ar      1 33E         0.0038
      6 CAJ        25.0720   48.0050   -0.3690 C.ar      1 33E         0.0561
      7 IAE        25.5910   50.0360   -0.0510 I         1 33E        -0.0387
      8 CAF        25.9300   47.0580    0.1960 C.ar      1 33E        -0.0375
      9 CAG        25.6610   45.6990    0.0560 C.ar      1 33E        -0.0341
     10 CAK        24.5110   45.2900   -0.6270 C.ar      1 33E         0.0601
     11 CAI        24.2710   43.7830   -0.7240 C.2       1 33E         0.2055
     12 OAB        23.6730   43.2740   -1.6780 O.2       1 33E        -0.3837
     13 NAA        24.7940   43.0980    0.2880 N.am      1 33E        -0.2996
     14 H          22.7145   45.9064   -1.6892 H         1 33E         0.0752
     15 H          26.8070   47.3820    0.7446 H         1 33E         0.0671
     16 H          26.3384   44.9629    0.4736 H         1 33E         0.0716
     17 H          24.6948   42.1035    0.3229 H         1 33E         0.1809
     18 H          25.2866   43.5771    1.0145 H         1 33E         0.1809
@<TRIPOS>BOND
     1    1    2 2  
     2    2    3 2  
     3    2    4 1  
     4    4    5 ar 
     5    4    6 ar 
     6    5   10 ar 
     7    6    7 1  
     8    6    8 ar 
     9    8    9 ar 
    10    9   10 ar 
    11   10   11 1  
    12   11   12 2  
    13   11   13 am 
    14    5   14 1  
    15    8   15 1  
    16    9   16 1  
    17   13   17 1  
    18   13   18 1  
@<TRIPOS>SUBSTRUCTURE
     1 33E         1

