### 
### Created by X-TOOL on Mon Sep 10 21:13:20 2018
### 

@<TRIPOS>MOLECULE
4tkj_ligand
   47    46     1     0     0
SMALL
GAST_HUCK


@<TRIPOS>ATOM
      1 C1          5.9190  -16.6280   -1.6130 C.2       1 PLM         0.0348
      2 O1          4.8960  -16.3970   -0.8780 O.co2     1 PLM        -0.5690
      3 O2          6.9640  -15.9660   -1.5510 O.co2     1 PLM        -0.5690
      4 C2          5.7930  -17.7470   -2.6220 C.3       1 PLM         0.0002
      5 C3          7.0600  -18.1650   -3.3150 C.3       1 PLM        -0.0414
      6 C4          6.8570  -19.2760   -4.3230 C.3       1 PLM        -0.0516
      7 C5          8.1680  -19.7980   -4.8860 C.3       1 PLM        -0.0530
      8 C6          8.0220  -20.7780   -6.0440 C.3       1 PLM        -0.0531
      9 C7          7.1240  -21.9760   -5.7750 C.3       1 PLM        -0.0531
     10 C8          7.5900  -22.8500   -4.6270 C.3       1 PLM        -0.0531
     11 C9          6.5640  -23.9270   -4.2070 C.3       1 PLM        -0.0529
     12 CA          6.9660  -24.8300   -3.0120 C.3       1 PLM        -0.0515
     13 CB          7.4520  -24.1140   -1.7180 C.3       1 PLM        -0.0464
     14 CC          6.5660  -23.0380   -1.0500 C.3       1 PLM        -0.0365
     15 CD          7.2390  -22.1930    0.1310 C.2       1 PLM        -0.0987
     16 CE          8.4800  -21.4610   -0.0780 C.2       1 PLM        -0.0989
     17 CF          9.0270  -20.7340    1.1690 C.3       1 PLM        -0.0393
     18 CG         10.4320  -20.3010    0.8620 C.3       1 PLM        -0.0586
     19 H1          5.0798  -17.4231   -3.3943 H         1 PLM         0.0430
     20 H2          5.3916  -18.6270   -2.0981 H         1 PLM         0.0430
     21 H3          7.7753  -18.5111   -2.5544 H         1 PLM         0.0283
     22 H4          7.4754  -17.2913   -3.8385 H         1 PLM         0.0283
     23 H5          6.2450  -18.8922   -5.1525 H         1 PLM         0.0266
     24 H6          6.3289  -20.1063   -3.8313 H         1 PLM         0.0266
     25 H7          8.7107  -20.3055   -4.0749 H         1 PLM         0.0265
     26 H8          8.7558  -18.9375   -5.2382 H         1 PLM         0.0265
     27 H9          9.0237  -21.1549   -6.2981 H         1 PLM         0.0265
     28 H10         7.6079  -20.2294   -6.9028 H         1 PLM         0.0265
     29 H11         7.0867  -22.5919   -6.6856 H         1 PLM         0.0265
     30 H12         6.1148  -21.6063   -5.5408 H         1 PLM         0.0265
     31 H13         7.7905  -22.2048   -3.7590 H         1 PLM         0.0265
     32 H14         8.5187  -23.3554   -4.9306 H         1 PLM         0.0265
     33 H15         6.3880  -24.5790   -5.0753 H         1 PLM         0.0265
     34 H16         5.6292  -23.4129   -3.9389 H         1 PLM         0.0265
     35 H17         7.7788  -25.4885   -3.3522 H         1 PLM         0.0267
     36 H18         6.0888  -25.4379   -2.7455 H         1 PLM         0.0267
     37 H19         8.4087  -23.6297   -1.9634 H         1 PLM         0.0285
     38 H20         7.6205  -24.8984   -0.9654 H         1 PLM         0.0285
     39 H21         5.6804  -23.5431   -0.6371 H         1 PLM         0.0388
     40 H22         6.2532  -22.3299   -1.8315 H         1 PLM         0.0388
     41 H23         6.7600  -22.1651    1.1086 H         1 PLM         0.0450
     42 H24         8.9848  -21.4287   -1.0424 H         1 PLM         0.0450
     43 H25         9.0248  -21.4161    2.0320 H         1 PLM         0.0385
     44 H26         8.4045  -19.8555    1.3943 H         1 PLM         0.0385
     45 H27        10.8530  -19.7777    1.7331 H         1 PLM         0.0249
     46 H28        10.4259  -19.6238   -0.0048 H         1 PLM         0.0249
     47 H29        11.0462  -21.1843    0.6329 H         1 PLM         0.0249
@<TRIPOS>BOND
     1    1    2 ar 
     2    1    3 ar 
     3    1    4 1  
     4    4    5 1  
     5    5    6 1  
     6    6    7 1  
     7    7    8 1  
     8    8    9 1  
     9    9   10 1  
    10   10   11 1  
    11   11   12 1  
    12   12   13 1  
    13   13   14 1  
    14   14   15 1  
    15   15   16 2  
    16   16   17 1  
    17   17   18 1  
    18    4   19 1  
    19    4   20 1  
    20    5   21 1  
    21    5   22 1  
    22    6   23 1  
    23    6   24 1  
    24    7   25 1  
    25    7   26 1  
    26    8   27 1  
    27    8   28 1  
    28    9   29 1  
    29    9   30 1  
    30   10   31 1  
    31   10   32 1  
    32   11   33 1  
    33   11   34 1  
    34   12   35 1  
    35   12   36 1  
    36   13   37 1  
    37   13   38 1  
    38   14   39 1  
    39   14   40 1  
    40   15   41 1  
    41   16   42 1  
    42   17   43 1  
    43   17   44 1  
    44   18   45 1  
    45   18   46 1  
    46   18   47 1  
@<TRIPOS>SUBSTRUCTURE
     1 PLM         1

