### 
### Created by X-TOOL on Mon Sep 10 21:12:44 2018
### 

@<TRIPOS>MOLECULE
4tln_ligand
   25    24     1     0     0
SMALL
GAST_HUCK


@<TRIPOS>ATOM
      1 N          52.9070   16.5460   -4.3540 N.4       1 LNO         0.2379
      2 CA         51.9980   17.6810   -4.7520 C.3       1 LNO         0.0668
      3 C          52.5700   18.7580   -5.6730 C.2       1 LNO         0.2472
      4 O          53.6330   18.7010   -6.3740 O.2       1 LNO        -0.3907
      5 CB         52.0280   18.4720   -3.3480 C.3       1 LNO         0.0101
      6 CG         52.9200   17.7210   -2.3660 C.3       1 LNO        -0.0394
      7 CD1        54.2770   17.6690   -3.1420 C.3       1 LNO        -0.0623
      8 CD2        53.0310   18.2540   -0.9470 C.3       1 LNO        -0.0623
      9 N2         51.8440   19.8300   -5.6540 N.am      1 LNO        -0.1596
     10 ON2        52.4760   20.7250   -6.4920 O.3       1 LNO        -0.2716
     11 H1         52.4079   15.9117   -3.7501 H         1 LNO         0.2015
     12 H2         53.7091   16.9131   -3.8662 H         1 LNO         0.2015
     13 H3         53.2117   16.0542   -5.1795 H         1 LNO         0.2015
     14 H4         51.0130   17.3295   -5.0930 H         1 LNO         0.1097
     15 H5         51.0080   18.5380   -2.9415 H         1 LNO         0.0348
     16 H6         52.4263   19.4852   -3.5054 H         1 LNO         0.0348
     17 H7         52.5294   16.6974   -2.2677 H         1 LNO         0.0299
     18 H8         55.0271   17.1421   -2.5340 H         1 LNO         0.0232
     19 H9         54.6231   18.6933   -3.3445 H         1 LNO         0.0232
     20 H10        54.1353   17.1350   -4.0932 H         1 LNO         0.0232
     21 H11        52.0363   18.2562   -0.4773 H         1 LNO         0.0232
     22 H12        53.4276   19.2797   -0.9705 H         1 LNO         0.0232
     23 H13        53.7093   17.6118   -0.3661 H         1 LNO         0.0232
     24 H14        51.0000   19.9783   -5.1386 H         1 LNO         0.2218
     25 H15        53.3526   20.8955   -6.1681 H         1 LNO         0.2490
@<TRIPOS>BOND
     1    1    2 1  
     2    2    3 1  
     3    2    5 1  
     4    3    4 2  
     5    3    9 am 
     6    5    6 1  
     7    6    7 1  
     8    6    8 1  
     9    9   10 1  
    10    1   11 1  
    11    1   12 1  
    12    1   13 1  
    13    2   14 1  
    14    5   15 1  
    15    5   16 1  
    16    6   17 1  
    17    7   18 1  
    18    7   19 1  
    19    7   20 1  
    20    8   21 1  
    21    8   22 1  
    22    8   23 1  
    23    9   24 1  
    24   10   25 1  
@<TRIPOS>SUBSTRUCTURE
     1 LNO         1

