### 
### Created by X-TOOL on Mon Sep 10 21:13:17 2018
### 

@<TRIPOS>MOLECULE
4tlr_ligand
   63    65     1     0     0
SMALL
GAST_HUCK


@<TRIPOS>ATOM
      1 C1          6.3900   30.1020    1.6690 C.2       1 33H         0.0691
      2 C2          6.5360   32.4480    1.2380 C.2       1 33H         0.2320
      3 C3          7.3870   33.7600    1.1410 C.3       1 33H         0.1548
      4 O1          8.6730   33.6150    1.7890 O.3       1 33H        -0.3530
      5 O2          5.3110   32.4880    1.0170 O.2       1 33H        -0.3835
      6 O3          6.7070   27.9390   -1.3280 O.co2     1 33H        -0.5728
      7 C11         8.3570   31.6680    4.4120 C.3       1 33H        -0.0476
      8 C12         6.6740   35.0250    1.6890 C.3       1 33H         0.0171
      9 C13         5.5220   29.9100    2.7870 C.2       1 33H        -0.0241
     10 C14         4.8340   28.7430    2.6260 C.2       1 33H         0.0772
     11 C15         6.2890   29.1380    0.6820 C.2       1 33H         0.0682
     12 C16         6.9390   28.9150   -0.6220 C.2       1 33H         0.0481
     13 C17         3.8950   28.2470    3.5350 C.1       1 33H        -0.0551
     14 C18         3.0620   27.8020    4.2880 C.1       1 33H        -0.0917
     15 C19         2.0610   27.3020    5.2370 C.3       1 33H         0.0233
     16 C20         2.4440   25.8770    5.6960 C.3       1 33H        -0.0492
     17 C21         2.0740   28.2690    6.4320 C.3       1 33H        -0.0492
     18 C22         0.6750   27.3010    4.5640 C.3       1 33H        -0.0492
     19 C23         6.2060   34.9510    3.1420 C.3       1 33H         0.0569
     20 C24         7.2890   35.3340    4.1650 C.3       1 33H        -0.0387
     21 N1          7.1730   31.2870    1.5770 N.am      1 33H        -0.2216
     22 C4          9.4010   32.4590    1.3720 C.3       1 33H         0.0790
     23 C5          8.6560   31.1700    1.8270 C.3       1 33H         0.0898
     24 C6          8.9490   30.7410    3.3030 C.3       1 33H        -0.0110
     25 C7         10.4550   30.4200    3.6040 C.3       1 33H        -0.0476
     26 C8         10.6630   29.8210    5.0230 C.3       1 33H        -0.0527
     27 C9         10.0180   30.7100    6.1270 C.3       1 33H        -0.0530
     28 C10         8.5330   31.0650    5.8270 C.3       1 33H        -0.0527
     29 S1          5.1550   27.8910    1.1630 S.3       1 33H        -0.0416
     30 O4          7.8100   29.8960   -0.9880 O.co2     1 33H        -0.5728
     31 O5          5.0950   35.8080    3.2920 O.3       1 33H        -0.3918
     32 H           7.5734   33.9340    0.0710 H         1 33H         0.0845
     33 H           7.2838   31.8124    4.2186 H         1 33H         0.0269
     34 H           8.8706   32.6400    4.3739 H         1 33H         0.0269
     35 H           5.7915   35.2136    1.0600 H         1 33H         0.0340
     36 H           7.3731   35.8699    1.6028 H         1 33H         0.0340
     37 H           5.4248   30.5878    3.6338 H         1 33H         0.0446
     38 H           1.6912   25.5061    6.4071 H         1 33H         0.0244
     39 H           3.4292   25.9015    6.1847 H         1 33H         0.0244
     40 H           2.4842   25.2090    4.8230 H         1 33H         0.0244
     41 H           1.7998   29.2779    6.0902 H         1 33H         0.0244
     42 H           3.0812   28.2926    6.8736 H         1 33H         0.0244
     43 H           1.3503   27.9284    7.1872 H         1 33H         0.0244
     44 H           0.6816   26.6053    3.7120 H         1 33H         0.0244
     45 H           0.4396   28.3147    4.2077 H         1 33H         0.0244
     46 H          -0.0858   26.9822    5.2917 H         1 33H         0.0244
     47 H           5.8934   33.9171    3.3499 H         1 33H         0.0593
     48 H           6.8768   35.2561    5.1819 H         1 33H         0.0254
     49 H           7.6182   36.3673    3.9810 H         1 33H         0.0254
     50 H           8.1464   34.6524    4.0638 H         1 33H         0.0254
     51 H          10.4045   32.4781    1.8220 H         1 33H         0.0590
     52 H           9.4907   32.4604    0.2757 H         1 33H         0.0590
     53 H           9.0271   30.3550    1.1882 H         1 33H         0.0642
     54 H           8.4194   29.7837    3.4174 H         1 33H         0.0328
     55 H          11.0368   31.3502    3.5249 H         1 33H         0.0269
     56 H          10.8174   29.6964    2.8590 H         1 33H         0.0269
     57 H          11.7421   29.7369    5.2192 H         1 33H         0.0265
     58 H          10.2049   28.8216    5.0581 H         1 33H         0.0265
     59 H          10.5932   31.6443    6.2060 H         1 33H         0.0265
     60 H          10.0633   30.1695    7.0840 H         1 33H         0.0265
     61 H           7.9269   30.1501    5.9014 H         1 33H         0.0265
     62 H           8.1853   31.7968    6.5710 H         1 33H         0.0265
     63 H           4.4263   35.5713    2.6601 H         1 33H         0.2098
@<TRIPOS>BOND
     1    1    9 1  
     2    1   11 2  
     3   21    1 1  
     4    2    3 1  
     5    2    5 2  
     6   21    2 am 
     7    4    3 1  
     8    3    8 1  
     9   22    4 1  
    10   12    6 ar 
    11   24    7 1  
    12    7   28 1  
    13    8   19 1  
    14    9   10 2  
    15   10   13 1  
    16   29   10 1  
    17   11   12 1  
    18   11   29 1  
    19   12   30 ar 
    20   13   14 3  
    21   14   15 1  
    22   15   16 1  
    23   15   17 1  
    24   15   18 1  
    25   19   20 1  
    26   19   31 1  
    27   23   21 1  
    28   23   22 1  
    29   23   24 1  
    30   24   25 1  
    31   25   26 1  
    32   26   27 1  
    33   27   28 1  
    34    3   32 1  
    35    7   33 1  
    36    7   34 1  
    37    8   35 1  
    38    8   36 1  
    39    9   37 1  
    40   16   38 1  
    41   16   39 1  
    42   16   40 1  
    43   17   41 1  
    44   17   42 1  
    45   17   43 1  
    46   18   44 1  
    47   18   45 1  
    48   18   46 1  
    49   19   47 1  
    50   20   48 1  
    51   20   49 1  
    52   20   50 1  
    53   22   51 1  
    54   22   52 1  
    55   23   53 1  
    56   24   54 1  
    57   25   55 1  
    58   25   56 1  
    59   26   57 1  
    60   26   58 1  
    61   27   59 1  
    62   27   60 1  
    63   28   61 1  
    64   28   62 1  
    65   31   63 1  
@<TRIPOS>SUBSTRUCTURE
     1 33H         1

