### 
### Created by X-TOOL on Mon Sep 10 21:13:25 2018
### 

@<TRIPOS>MOLECULE
4tmr_ligand
   54    57     1     0     0
SMALL
GAST_HUCK


@<TRIPOS>ATOM
      1 O31        12.0300  -31.2240  -23.8440 O.2       1 99S        -0.3632
      2 C30        12.9560  -31.2240  -24.6370 C.2       1 99S         0.2661
      3 O32        12.7160  -31.2160  -26.0630 O.3       1 99S        -0.2827
      4 C33        11.3080  -31.2150  -26.2950 C.3       1 99S         0.0640
      5 C28        14.3670  -31.2180  -24.2120 C.2       1 99S         0.1128
      6 C27        15.5390  -31.2110  -24.9480 C.2       1 99S        -0.0499
      7 C26        16.6800  -31.1930  -24.1530 C.2       1 99S        -0.0561
      8 S29        14.7000  -31.1900  -22.5230 S.3       1 99S        -0.0189
      9 C25        16.4050  -31.1980  -22.7930 C.2       1 99S         0.0473
     10 C21        17.3020  -31.1670  -21.6210 C.ar      1 99S         0.0134
     11 C20        16.9830  -30.4160  -20.5080 C.ar      1 99S        -0.0096
     12 C19        17.8700  -30.3800  -19.4380 C.ar      1 99S         0.1037
     13 C23        17.5490  -29.7260  -18.3900 C.1       1 99S         0.1032
     14 N24        17.2770  -29.1340  -17.4430 N.1       1 99S        -0.3278
     15 C18        19.0600  -31.0780  -19.4710 C.ar      1 99S        -0.0372
     16 C22        18.5020  -31.8510  -21.6750 C.ar      1 99S        -0.0550
     17 C17        19.3990  -31.8100  -20.6110 C.ar      1 99S        -0.1110
     18 C4         20.6800  -32.6020  -20.6570 C.3       1 99S        -0.0517
     19 C14        21.9100  -31.8510  -20.1000 C.3       1 99S        -0.1085
     20 C16        22.2630  -30.5650  -20.8360 C.3       1 99S        -0.0809
     21 C15        23.1480  -32.7450  -20.0190 C.3       1 99S        -0.0809
     22 C3         20.3810  -33.7740  -19.7360 C.2       1 99S         0.0683
     23 C8         20.0260  -33.5500  -18.5410 C.1       1 99S         0.0453
     24 N9         19.7100  -33.3660  -17.4460 N.1       1 99S        -0.3661
     25 C2         20.5240  -35.0610  -20.0860 C.2       1 99S         0.2857
     26 N7         20.4530  -36.0280  -19.1740 N.pl3     1 99S        -0.2573
     27 C5         20.9040  -33.1310  -22.0410 C.2       1 99S        -0.0326
     28 C10        21.1120  -32.4990  -23.3740 C.2       1 99S         0.0030
     29 C13        21.1620  -31.0250  -23.6950 C.3       1 99S        -0.0262
     30 N11        21.2380  -33.4950  -24.2790 N.2       1 99S        -0.2215
     31 N12        21.1240  -34.7720  -23.6970 N.pl3     1 99S        -0.1712
     32 C6         20.9340  -34.5360  -22.3980 C.2       1 99S         0.2820
     33 O1         20.7760  -35.4810  -21.4400 O.3       1 99S        -0.1129
     34 H1         11.1149  -31.2089  -27.3779 H         1 99S         0.0574
     35 H2         10.8617  -30.3195  -25.8380 H         1 99S         0.0574
     36 H3         10.8621  -32.1158  -25.8481 H         1 99S         0.0574
     37 H4         15.5651  -31.2188  -26.0367 H         1 99S         0.0533
     38 H5         17.6906  -31.1766  -24.5583 H         1 99S         0.0470
     39 H6         16.0526  -29.8612  -20.4685 H         1 99S         0.0797
     40 H7         19.7276  -31.0582  -18.6172 H         1 99S         0.0777
     41 H8         18.7483  -32.4280  -22.5590 H         1 99S         0.0750
     42 H9         21.6502  -31.5632  -19.0706 H         1 99S         0.0059
     43 H10        23.1466  -30.1058  -20.3687 H         1 99S         0.0214
     44 H11        21.4149  -29.8667  -20.7815 H         1 99S         0.0214
     45 H12        22.4826  -30.7938  -21.8893 H         1 99S         0.0214
     46 H13        22.8950  -33.6744  -19.4877 H         1 99S         0.0214
     47 H14        23.9461  -32.2178  -19.4758 H         1 99S         0.0214
     48 H15        23.4934  -32.9860  -21.0352 H         1 99S         0.0214
     49 H16        20.5647  -37.0120  -19.4570 H         1 99S         0.2065
     50 H17        20.2864  -35.7922  -18.1853 H         1 99S         0.2065
     51 H18        21.3303  -30.8902  -24.7737 H         1 99S         0.0388
     52 H19        21.9835  -30.5552  -23.1342 H         1 99S         0.0388
     53 H20        20.2087  -30.5554  -23.4112 H         1 99S         0.0388
     54 H21        21.1758  -35.6858  -24.1695 H         1 99S         0.2576
@<TRIPOS>BOND
     1    1    2 2  
     2    2    3 1  
     3    2    5 1  
     4    3    4 1  
     5    5    6 2  
     6    5    8 1  
     7    6    7 1  
     8    7    9 2  
     9    8    9 1  
    10    9   10 1  
    11   10   11 ar 
    12   10   16 ar 
    13   11   12 ar 
    14   12   13 1  
    15   12   15 ar 
    16   13   14 3  
    17   15   17 ar 
    18   16   17 ar 
    19   17   18 1  
    20   18   19 1  
    21   18   22 1  
    22   18   27 1  
    23   19   20 1  
    24   19   21 1  
    25   22   23 1  
    26   22   25 2  
    27   23   24 3  
    28   25   26 1  
    29   25   33 1  
    30   27   28 1  
    31   27   32 2  
    32   28   29 1  
    33   28   30 2  
    34   30   31 1  
    35   31   32 1  
    36   32   33 1  
    37    4   34 1  
    38    4   35 1  
    39    4   36 1  
    40    6   37 1  
    41    7   38 1  
    42   11   39 1  
    43   15   40 1  
    44   16   41 1  
    45   19   42 1  
    46   20   43 1  
    47   20   44 1  
    48   20   45 1  
    49   21   46 1  
    50   21   47 1  
    51   21   48 1  
    52   26   49 1  
    53   26   50 1  
    54   29   51 1  
    55   29   52 1  
    56   29   53 1  
    57   31   54 1  
@<TRIPOS>SUBSTRUCTURE
     1 99S         1

