### 
### Created by X-TOOL on Mon Sep 10 21:13:20 2018
### 

@<TRIPOS>MOLECULE
4tn2_ligand
   48    51     1     0     0
SMALL
GAST_HUCK


@<TRIPOS>ATOM
      1 C1         35.0430  -72.4480  -12.7390 C.2       1 33J         0.0490
      2 C2         34.0300  -71.4180  -12.3830 C.2       1 33J         0.0686
      3 C3         32.7110  -69.6740  -11.0610 C.2       1 33J         0.0346
      4 O1         35.9690  -72.6960  -11.7760 O.co2     1 33J        -0.5724
      5 O2         35.0880  -72.9910  -13.8460 O.co2     1 33J        -0.5724
      6 O3         30.6070  -71.8620  -14.5320 O.2       1 33J        -0.3864
      7 C11        35.0280  -68.6520  -16.4390 C.3       1 33J        -0.0477
      8 C12        35.4710  -67.1880  -16.3790 C.3       1 33J        -0.0527
      9 C13        34.3100  -66.2610  -16.7870 C.3       1 33J        -0.0530
     10 C14        33.1340  -66.3940  -15.8160 C.3       1 33J        -0.0527
     11 C15        32.6940  -67.8550  -15.6450 C.3       1 33J        -0.0477
     12 C16        32.1730  -68.7330  -10.0780 C.ar      1 33J        -0.0083
     13 C17        32.5620  -68.7380   -8.7120 C.ar      1 33J        -0.0541
     14 C18        32.0030  -67.8220   -7.7920 C.ar      1 33J        -0.0621
     15 C19        31.0790  -66.8450   -8.2380 C.ar      1 33J        -0.0626
     16 C20        30.6910  -66.7960   -9.5970 C.ar      1 33J        -0.0621
     17 C21        31.2530  -67.7240  -10.5070 C.ar      1 33J        -0.0541
     18 S1         34.0090  -70.8000  -10.7290 S.3       1 33J        -0.0497
     19 C4         32.3120  -69.7970  -12.3570 C.2       1 33J        -0.0315
     20 C5         33.0460  -70.7650  -13.1080 C.2       1 33J         0.0692
     21 N1         32.6820  -70.9550  -14.4860 N.am      1 33J        -0.2257
     22 C6         31.7520  -71.7610  -14.9640 C.2       1 33J         0.2027
     23 C7         32.3180  -72.3870  -16.2310 C.3       1 33J         0.0452
     24 C8         33.4740  -71.4320  -16.5920 C.3       1 33J        -0.0075
     25 C9         33.0870  -70.2470  -15.6990 C.3       1 33J         0.0684
     26 C10        33.8300  -68.9090  -15.4890 C.3       1 33J        -0.0131
     27 H          35.8689  -69.2949  -16.1396 H         1 33J         0.0269
     28 H          34.7289  -68.8955  -17.4692 H         1 33J         0.0269
     29 H          36.3157  -67.0359  -17.0670 H         1 33J         0.0265
     30 H          35.7854  -66.9457  -15.3531 H         1 33J         0.0265
     31 H          33.9731  -66.5305  -17.7989 H         1 33J         0.0265
     32 H          34.6632  -65.2193  -16.7834 H         1 33J         0.0265
     33 H          32.2857  -65.8103  -16.2030 H         1 33J         0.0265
     34 H          33.4357  -65.9966  -14.8357 H         1 33J         0.0265
     35 H          32.1010  -68.1312  -16.5294 H         1 33J         0.0269
     36 H          32.0610  -67.9105  -14.7471 H         1 33J         0.0269
     37 H          33.2990  -69.4554   -8.3697 H         1 33J         0.0617
     38 H          32.2813  -67.8670   -6.7453 H         1 33J         0.0615
     39 H          30.6672  -66.1312   -7.5337 H         1 33J         0.0610
     40 H          29.9733  -66.0583   -9.9374 H         1 33J         0.0615
     41 H          30.9797  -67.6688  -11.5545 H         1 33J         0.0617
     42 H          31.5022  -69.2075  -12.7845 H         1 33J         0.0444
     43 H          31.5632  -72.4164  -17.0306 H         1 33J         0.0508
     44 H          32.6891  -73.4046  -16.0394 H         1 33J         0.0508
     45 H          33.4708  -71.1639  -17.6588 H         1 33J         0.0317
     46 H          34.4550  -71.8499  -16.3219 H         1 33J         0.0317
     47 H          32.1555  -69.8839  -16.1576 H         1 33J         0.0620
     48 H          34.2219  -68.8762  -14.4617 H         1 33J         0.0328
@<TRIPOS>BOND
     1    2    1 1  
     2    1    4 ar 
     3    1    5 ar 
     4    2   18 1  
     5   20    2 2  
     6    3   12 1  
     7    3   18 1  
     8   19    3 2  
     9   22    6 2  
    10    7    8 1  
    11   26    7 1  
    12    8    9 1  
    13   10    9 1  
    14   11   10 1  
    15   26   11 1  
    16   12   13 ar 
    17   12   17 ar 
    18   13   14 ar 
    19   14   15 ar 
    20   16   15 ar 
    21   17   16 ar 
    22   20   19 1  
    23   21   20 1  
    24   21   22 am 
    25   25   21 1  
    26   23   22 1  
    27   24   23 1  
    28   25   24 1  
    29   25   26 1  
    30    7   27 1  
    31    7   28 1  
    32    8   29 1  
    33    8   30 1  
    34    9   31 1  
    35    9   32 1  
    36   10   33 1  
    37   10   34 1  
    38   11   35 1  
    39   11   36 1  
    40   13   37 1  
    41   14   38 1  
    42   15   39 1  
    43   16   40 1  
    44   17   41 1  
    45   19   42 1  
    46   23   43 1  
    47   23   44 1  
    48   24   45 1  
    49   24   46 1  
    50   25   47 1  
    51   26   48 1  
@<TRIPOS>SUBSTRUCTURE
     1 33J         1

