### 
### Created by X-TOOL on Mon Sep 10 21:13:25 2018
### 

@<TRIPOS>MOLECULE
4tn4_ligand
   52    56     1     0     0
SMALL
GAST_HUCK


@<TRIPOS>ATOM
      1 F32        12.6280    2.5120  -94.4070 F         1 33G        -0.1835
      2 C30        13.9530    2.3400  -94.3130 C.ar      1 33G         0.1329
      3 C29        14.5300    2.1880  -93.0550 C.ar      1 33G        -0.0281
      4 C28        15.9090    2.0020  -92.9510 C.ar      1 33G        -0.0630
      5 C27        16.6970    1.9700  -94.1060 C.ar      1 33G        -0.0577
      6 C31        14.7330    2.3090  -95.4720 C.ar      1 33G        -0.0204
      7 C26        16.1110    2.1160  -95.3670 C.ar      1 33G        -0.0157
      8 C22        16.9690    2.0890  -96.5790 C.ar      1 33G        -0.0002
      9 C21        16.6590    1.3060  -97.6920 C.ar      1 33G        -0.0106
     10 C20        17.5230    1.3340  -98.7880 C.ar      1 33G         0.1041
     11 C24        17.2850    0.6570  -99.8540 C.1       1 33G         0.1032
     12 N25        17.0900    0.0750 -100.8190 N.1       1 33G        -0.3279
     13 C19        18.6580    2.1460  -98.7850 C.ar      1 33G        -0.0366
     14 C23        18.1060    2.8910  -96.5870 C.ar      1 33G        -0.0559
     15 C18        18.9880    2.9310  -97.6740 C.ar      1 33G        -0.1105
     16 C4         20.2270    3.8350  -97.6300 C.3       1 33G        -0.0512
     17 C3         19.8990    5.1080  -98.4410 C.2       1 33G         0.0683
     18 C8         19.3430    5.0490  -99.6050 C.1       1 33G         0.0453
     19 N9         18.8280    5.0250 -100.6670 N.1       1 33G        -0.3661
     20 C2         20.2010    6.3400  -97.9520 C.2       1 33G         0.2857
     21 N7         20.2330    7.3950  -98.7720 N.pl3     1 33G        -0.2573
     22 C14        21.5530    3.2030  -98.0890 C.3       1 33G        -0.1028
     23 C17        21.5120    1.7490  -98.5310 C.3       1 33G        -0.0684
     24 C16        21.9940    2.1710  -99.9150 C.3       1 33G        -0.0559
     25 C15        22.0760    3.6180  -99.4620 C.3       1 33G        -0.0684
     26 C5         20.5220    4.1800  -96.1870 C.2       1 33G        -0.0327
     27 C10        20.7680    3.3800  -94.9390 C.2       1 33G         0.0030
     28 C13        20.7600    1.8770  -94.7990 C.3       1 33G        -0.0262
     29 N11        20.9920    4.2550  -93.9210 N.2       1 33G        -0.2216
     30 N12        20.9230    5.6050  -94.3510 N.pl3     1 33G        -0.1712
     31 C6         20.6580    5.5370  -95.6710 C.2       1 33G         0.2820
     32 O1         20.5060    6.5810  -96.5370 O.3       1 33G        -0.1129
     33 H1         13.9132    2.2139  -92.1640 H         1 33G         0.0605
     34 H2         16.3688    1.8825  -91.9766 H         1 33G         0.0608
     35 H3         17.7689    1.8311  -94.0230 H         1 33G         0.0589
     36 H4         14.2713    2.4339  -96.4448 H         1 33G         0.0608
     37 H5         15.7672    0.6899  -97.7050 H         1 33G         0.0798
     38 H6         19.2968    2.1693  -99.6605 H         1 33G         0.0784
     39 H7         18.3167    3.5072  -95.7204 H         1 33G         0.0753
     40 H8         20.4618    8.3284  -98.4016 H         1 33G         0.2065
     41 H9         20.0289    7.2746  -99.7744 H         1 33G         0.2065
     42 H10        22.2907    3.3753  -97.2914 H         1 33G         0.0065
     43 H11        20.5068    1.3023  -98.5202 H         1 33G         0.0250
     44 H12        22.2105    1.0933  -97.9906 H         1 33G         0.0250
     45 H13        21.2614    1.9945 -100.7163 H         1 33G         0.0264
     46 H14        22.9632    1.7371 -100.2021 H         1 33G         0.0264
     47 H15        23.0958    4.0300  -99.4507 H         1 33G         0.0250
     48 H16        21.4107    4.3009 -100.0107 H         1 33G         0.0250
     49 H17        20.9757    1.6048  -93.7553 H         1 33G         0.0388
     50 H18        21.5274    1.4433  -95.4571 H         1 33G         0.0388
     51 H19        19.7711    1.4876  -95.0825 H         1 33G         0.0388
     52 H20        21.0481    6.4526  -93.7792 H         1 33G         0.2576
@<TRIPOS>BOND
     1    1    2 1  
     2    2    3 ar 
     3    2    6 ar 
     4    3    4 ar 
     5    4    5 ar 
     6    5    7 ar 
     7    6    7 ar 
     8    7    8 1  
     9    8    9 ar 
    10    8   14 ar 
    11    9   10 ar 
    12   10   11 1  
    13   10   13 ar 
    14   11   12 3  
    15   13   15 ar 
    16   14   15 ar 
    17   15   16 1  
    18   16   17 1  
    19   16   22 1  
    20   16   26 1  
    21   17   18 1  
    22   17   20 2  
    23   18   19 3  
    24   20   21 1  
    25   20   32 1  
    26   22   23 1  
    27   22   25 1  
    28   23   24 1  
    29   24   25 1  
    30   26   27 1  
    31   26   31 2  
    32   27   28 1  
    33   27   29 2  
    34   29   30 1  
    35   30   31 1  
    36   31   32 1  
    37    3   33 1  
    38    4   34 1  
    39    5   35 1  
    40    6   36 1  
    41    9   37 1  
    42   13   38 1  
    43   14   39 1  
    44   21   40 1  
    45   21   41 1  
    46   22   42 1  
    47   23   43 1  
    48   23   44 1  
    49   24   45 1  
    50   24   46 1  
    51   25   47 1  
    52   25   48 1  
    53   28   49 1  
    54   28   50 1  
    55   28   51 1  
    56   30   52 1  
@<TRIPOS>SUBSTRUCTURE
     1 33G         1

