### 
### Created by X-TOOL on Mon Sep 10 21:13:17 2018
### 

@<TRIPOS>MOLECULE
4to8_ligand
   18    17     1     0     0
SMALL
GAST_HUCK


@<TRIPOS>ATOM
      1 CAC        14.1110   27.4880    7.8970 C.2       1 FLC         0.0371
      2 CA         15.1820   27.8310    6.8710 C.3       1 FLC         0.0356
      3 CB         15.4870   26.8800    5.7240 C.3       1 FLC         0.1328
      4 CBC        14.2780   26.5890    4.8400 C.2       1 FLC         0.0796
      5 CG         16.5660   27.5670    4.9280 C.3       1 FLC         0.0356
      6 CGC        17.3070   26.6260    4.0060 C.2       1 FLC         0.0371
      7 OA1        13.2380   28.3580    8.1710 O.co2     1 FLC        -0.5690
      8 OA2        14.0910   26.3810    8.5020 O.co2     1 FLC        -0.5690
      9 OB1        14.0940   25.4040    4.4450 O.co2     1 FLC        -0.5449
     10 OB2        13.4610   27.4900    4.5020 O.co2     1 FLC        -0.5449
     11 OG1        18.3050   27.0840    3.4020 O.co2     1 FLC        -0.5690
     12 OG2        16.9410   25.4180    3.8450 O.co2     1 FLC        -0.5690
     13 OHB        16.0200   25.6490    6.1700 O.3       1 FLC        -0.3818
     14 H          16.1211   27.9634    7.4283 H         1 FLC         0.0452
     15 H          14.8874   28.7883    6.4163 H         1 FLC         0.0452
     16 H          17.2879   28.0134    5.6277 H         1 FLC         0.0452
     17 H          16.1039   28.3603    4.3221 H         1 FLC         0.0452
     18 H          16.2828   25.1287    5.4199 H         1 FLC         0.2091
@<TRIPOS>BOND
     1    1    2 1  
     2    1    7 ar 
     3    1    8 ar 
     4    2    3 1  
     5    3    4 1  
     6    3    5 1  
     7    3   13 1  
     8    4    9 ar 
     9    4   10 ar 
    10    5    6 1  
    11    6   11 ar 
    12    6   12 ar 
    13    2   14 1  
    14    2   15 1  
    15    5   16 1  
    16    5   17 1  
    17   13   18 1  
@<TRIPOS>SUBSTRUCTURE
     1 FLC         1

