### 
### Created by X-TOOL on Mon Sep 10 21:13:18 2018
### 

@<TRIPOS>MOLECULE
4tpk_ligand
   68    72     1     0     0
SMALL
GAST_HUCK


@<TRIPOS>ATOM
      1 N1          3.5390    8.2650   13.9450 N.am      1 3F9        -0.2698
      2 C4          4.9610   14.4790    8.5290 C.ar      1 3F9        -0.0755
      3 C5          1.7280   13.0550   17.6800 C.ar      1 3F9        -0.0524
      4 C6          1.1350   10.4000   18.3660 C.ar      1 3F9        -0.0517
      5 C7          2.3420   12.3330   15.4740 C.ar      1 3F9        -0.0509
      6 C8          2.4940   11.3070   14.5450 C.ar      1 3F9        -0.0432
      7 C10         4.6970   13.2930    9.1980 C.ar      1 3F9        -0.0667
      8 C13         1.5930   10.7080   17.0920 C.ar      1 3F9        -0.0116
      9 C15         6.5500   13.6240   10.5810 C.ar      1 3F9        -0.0353
     10 C17         2.3840    8.9700   13.9090 C.2       1 3F9         0.2072
     11 C20         7.8260   10.4530   15.0880 C.3       1 3F9        -0.0120
     12 C21         6.6750    9.5960   15.5720 C.3       1 3F9        -0.0387
     13 C22         7.2930   11.6120   14.2530 C.3       1 3F9        -0.0313
     14 C24         5.8410    9.1270   14.3940 C.3       1 3F9         0.0197
     15 C26         4.5890    8.4610   14.9640 C.3       1 3F9         0.0411
     16 C28         3.2930    5.8740   13.5030 C.3       1 3F9         0.0676
     17 C1          1.2710   12.7430   18.9560 C.ar      1 3F9        -0.0598
     18 C2          0.9760   11.4240   19.2940 C.ar      1 3F9        -0.0596
     19 C3          6.0530   15.2330    8.9230 C.ar      1 3F9        -0.0755
     20 C9          6.8420   14.7710    9.9670 C.ar      1 3F9        -0.0667
     21 C11         1.7550    9.6890   16.1600 C.ar      1 3F9        -0.0329
     22 C12         1.8880   12.0330   16.7490 C.ar      1 3F9        -0.0152
     23 C14         2.2170    9.9780   14.8750 C.ar      1 3F9         0.0505
     24 C16         5.4820   12.8870   10.1990 C.ar      1 3F9        -0.0353
     25 C18         7.2020   12.9730   11.6340 C.3       1 3F9         0.0234
     26 C19         5.4120   11.7370   10.9980 C.3       1 3F9         0.0234
     27 C23         5.4330   10.3150   13.5490 C.3       1 3F9        -0.0266
     28 C25         6.0790   12.2120   12.2570 C.3       1 3F9        -0.0039
     29 C27         3.8070    7.2080   12.9620 C.3       1 3F9         0.0567
     30 N2          6.5730   11.0990   13.0830 N.4       1 3F9         0.2403
     31 O1          1.5250    8.7740   13.0490 O.2       1 3F9        -0.3847
     32 O2          1.8690    5.9110   13.5120 O.3       1 3F9        -0.3810
     33 C33         1.4040    4.7660   14.2300 C.3       1 3F9         0.0365
     34 H           4.3256   14.8085    7.7149 H         1 3F9         0.0541
     35 H           1.9566   14.0807   17.4141 H         1 3F9         0.0626
     36 H           0.9044    9.3753   18.6339 H         1 3F9         0.0636
     37 H           2.5763   13.3561   15.2030 H         1 3F9         0.0627
     38 H           2.8347   11.5446   13.5438 H         1 3F9         0.0652
     39 H           3.8451   12.6898    8.9054 H         1 3F9         0.0537
     40 H           8.5031    9.8416   14.4734 H         1 3F9         0.0317
     41 H           8.3752   10.8498   15.9546 H         1 3F9         0.0317
     42 H           6.0435   10.1859   16.2526 H         1 3F9         0.0272
     43 H           7.0729    8.7211   16.1069 H         1 3F9         0.0272
     44 H           8.1343   12.2364   13.9178 H         1 3F9         0.0814
     45 H           6.6083   12.2172   14.8653 H         1 3F9         0.0814
     46 H           6.4116    8.4119   13.7832 H         1 3F9         0.0372
     47 H           4.8680    7.4801   15.3763 H         1 3F9         0.0526
     48 H           4.1867    9.0955   15.7675 H         1 3F9         0.0526
     49 H           3.6670    5.7190   14.5258 H         1 3F9         0.0580
     50 H           3.6392    5.0532   12.8576 H         1 3F9         0.0580
     51 H           1.1438   13.5297   19.6909 H         1 3F9         0.0630
     52 H           0.6187   11.1932   20.2910 H         1 3F9         0.0622
     53 H           6.2875   16.1670    8.4253 H         1 3F9         0.0541
     54 H           7.7029   15.3474   10.2860 H         1 3F9         0.0537
     55 H           1.5216    8.6661   16.4324 H         1 3F9         0.0695
     56 H           7.6402   13.6927   12.3411 H         1 3F9         0.0468
     57 H           7.9876   12.2980   11.2637 H         1 3F9         0.0468
     58 H           5.9594   10.8976   10.5444 H         1 3F9         0.0468
     59 H           4.3697   11.4379   11.1828 H         1 3F9         0.0468
     60 H           4.7815   10.9662   14.1502 H         1 3F9         0.0818
     61 H           4.8776    9.9485   12.6731 H         1 3F9         0.0818
     62 H           5.4204   12.8551   12.8592 H         1 3F9         0.0895
     63 H           4.8900    7.1390   12.7824 H         1 3F9         0.0544
     64 H           3.2932    7.4445   12.0186 H         1 3F9         0.0544
     65 H           7.1881   10.5188   12.5343 H         1 3F9         0.2039
     66 H           0.3042    4.7692   14.2526 H         1 3F9         0.0523
     67 H           1.7920    4.7959   15.2589 H         1 3F9         0.0523
     68 H           1.7578    3.8517   13.7311 H         1 3F9         0.0523
@<TRIPOS>BOND
     1    1   10 am 
     2   15    1 1  
     3    1   29 1  
     4    7    2 ar 
     5    2   19 ar 
     6    3   17 ar 
     7   22    3 ar 
     8    8    4 ar 
     9    4   18 ar 
    10    6    5 ar 
    11    5   22 ar 
    12   23    6 ar 
    13   24    7 ar 
    14   21    8 ar 
    15    8   22 ar 
    16    9   20 ar 
    17   24    9 ar 
    18   25    9 1  
    19   10   23 1  
    20   10   31 2  
    21   11   12 1  
    22   13   11 1  
    23   14   12 1  
    24   30   13 1  
    25   14   15 1  
    26   27   14 1  
    27   29   16 1  
    28   16   32 1  
    29   18   17 ar 
    30   20   19 ar 
    31   23   21 ar 
    32   26   24 1  
    33   28   25 1  
    34   28   26 1  
    35   30   27 1  
    36   28   30 1  
    37   32   33 1  
    38    2   34 1  
    39    3   35 1  
    40    4   36 1  
    41    5   37 1  
    42    6   38 1  
    43    7   39 1  
    44   11   40 1  
    45   11   41 1  
    46   12   42 1  
    47   12   43 1  
    48   13   44 1  
    49   13   45 1  
    50   14   46 1  
    51   15   47 1  
    52   15   48 1  
    53   16   49 1  
    54   16   50 1  
    55   17   51 1  
    56   18   52 1  
    57   19   53 1  
    58   20   54 1  
    59   21   55 1  
    60   25   56 1  
    61   25   57 1  
    62   26   58 1  
    63   26   59 1  
    64   27   60 1  
    65   27   61 1  
    66   28   62 1  
    67   29   63 1  
    68   29   64 1  
    69   30   65 1  
    70   33   66 1  
    71   33   67 1  
    72   33   68 1  
@<TRIPOS>SUBSTRUCTURE
     1 3F9         1

