### 
### Created by X-TOOL on Mon Sep 10 21:13:16 2018
### 

@<TRIPOS>MOLECULE
4tpm_ligand
   54    58     1     0     0
SMALL
GAST_HUCK


@<TRIPOS>ATOM
      1 O01        15.7780   84.8110   34.8540 O.3       1 35E        -0.3947
      2 C02        14.8070   85.6790   34.3140 C.3       1 35E         0.0471
      3 C03        14.1710   86.7590   35.2450 C.3       1 35E        -0.0142
      4 C04        14.0930   86.3150   36.6420 C.3       1 35E        -0.0279
      5 C05        13.5880   87.3990   37.5250 C.3       1 35E         0.0299
      6 N06        12.3910   88.1580   37.0410 N.pl3     1 35E        -0.2895
      7 C07        12.2260   88.2370   35.5940 C.3       1 35E         0.0299
      8 C08        12.8120   87.1310   34.7780 C.3       1 35E        -0.0279
      9 C09        11.6600   88.9320   38.0470 C.ar      1 35E         0.1777
     10 N10        10.5110   89.5100   37.6540 N.ar      1 35E        -0.2727
     11 C11         9.7500   90.2530   38.5230 C.ar      1 35E         0.0112
     12 C12        10.2020   90.4080   39.8610 C.ar      1 35E         0.0126
     13 N13        11.3630   89.8330   40.2660 N.ar      1 35E        -0.2645
     14 C14        12.1220   89.1010   39.4070 C.ar      1 35E         0.2175
     15 O15        13.3210   88.5130   39.8360 O.3       1 35E        -0.2892
     16 C16        13.9630   89.2440   40.8310 C.3       1 35E         0.1246
     17 C17        15.3680   88.7890   41.0160 C.3       1 35E         0.0643
     18 N18        15.0250   88.2200   42.3290 N.pl3     1 35E        -0.2852
     19 C19        13.6220   88.6720   42.1380 C.3       1 35E         0.0643
     20 C20        15.9010   88.2740   43.4750 C.ar      1 35E         0.1128
     21 C21        15.3410   88.1990   44.7440 C.ar      1 35E        -0.0088
     22 C22        16.1870   88.2700   45.8850 C.ar      1 35E        -0.0394
     23 C23        17.6050   88.4220   45.7080 C.ar      1 35E        -0.0028
     24 C24        18.4780   88.4970   46.8360 C.ar      1 35E        -0.0516
     25 C25        19.8620   88.6500   46.6410 C.ar      1 35E        -0.0604
     26 C26        20.3890   88.7300   45.3220 C.ar      1 35E        -0.0610
     27 C27        19.5370   88.6550   44.2290 C.ar      1 35E        -0.0475
     28 C28        18.1140   88.4960   44.4260 C.ar      1 35E         0.0275
     29 N29        17.2600   88.4230   43.3160 N.ar      1 35E        -0.2918
     30 H          16.0750   84.2113   34.1798 H         1 35E         0.2094
     31 H          13.9858   85.0523   33.9360 H         1 35E         0.0560
     32 H          15.2784   86.2112   33.4746 H         1 35E         0.0560
     33 H          14.8090   87.6542   35.2052 H         1 35E         0.0324
     34 H          15.0962   86.0158   36.9796 H         1 35E         0.0288
     35 H          13.4122   85.4535   36.7069 H         1 35E         0.0288
     36 H          14.4055   88.1212   37.6671 H         1 35E         0.0519
     37 H          13.3265   86.9460   38.4927 H         1 35E         0.0519
     38 H          12.6895   89.1766   35.2590 H         1 35E         0.0519
     39 H          11.1464   88.2659   35.3852 H         1 35E         0.0519
     40 H          12.1573   86.2500   34.8508 H         1 35E         0.0288
     41 H          12.8731   87.4568   33.7291 H         1 35E         0.0288
     42 H           8.8241   90.7115   38.1950 H         1 35E         0.0769
     43 H           9.6157   90.9895   40.5633 H         1 35E         0.0756
     44 H          13.8166   90.3278   40.7130 H         1 35E         0.0696
     45 H          16.1008   89.6081   41.0614 H         1 35E         0.0554
     46 H          15.6972   88.0430   40.2777 H         1 35E         0.0554
     47 H          12.8917   87.8509   42.0887 H         1 35E         0.0554
     48 H          13.2885   89.4155   42.8769 H         1 35E         0.0554
     49 H          14.2694   88.0874   44.8635 H         1 35E         0.0647
     50 H          15.7650   88.2099   46.8817 H         1 35E         0.0755
     51 H          18.0744   88.4361   47.8402 H         1 35E         0.0644
     52 H          20.5270   88.7070   47.4951 H         1 35E         0.0604
     53 H          21.4557   88.8495   45.1707 H         1 35E         0.0638
     54 H          19.9400   88.7159   43.2245 H         1 35E         0.0603
@<TRIPOS>BOND
     1    1    2 1  
     2    2    3 1  
     3    3    4 1  
     4    3    8 1  
     5    4    5 1  
     6    5    6 1  
     7    6    7 1  
     8    6    9 1  
     9    7    8 1  
    10    9   10 ar 
    11    9   14 ar 
    12   10   11 ar 
    13   11   12 ar 
    14   12   13 ar 
    15   13   14 ar 
    16   14   15 1  
    17   15   16 1  
    18   16   17 1  
    19   16   19 1  
    20   17   18 1  
    21   18   19 1  
    22   18   20 1  
    23   20   21 ar 
    24   20   29 ar 
    25   21   22 ar 
    26   22   23 ar 
    27   23   24 ar 
    28   23   28 ar 
    29   24   25 ar 
    30   25   26 ar 
    31   26   27 ar 
    32   27   28 ar 
    33   28   29 ar 
    34    1   30 1  
    35    2   31 1  
    36    2   32 1  
    37    3   33 1  
    38    4   34 1  
    39    4   35 1  
    40    5   36 1  
    41    5   37 1  
    42    7   38 1  
    43    7   39 1  
    44    8   40 1  
    45    8   41 1  
    46   11   42 1  
    47   12   43 1  
    48   16   44 1  
    49   17   45 1  
    50   17   46 1  
    51   19   47 1  
    52   19   48 1  
    53   21   49 1  
    54   22   50 1  
    55   24   51 1  
    56   25   52 1  
    57   26   53 1  
    58   27   54 1  
@<TRIPOS>SUBSTRUCTURE
     1 35E         1

