### 
### Created by X-TOOL on Mon Sep 10 21:13:17 2018
### 

@<TRIPOS>MOLECULE
4tpp_ligand
   61    66     1     0     0
SMALL
GAST_HUCK


@<TRIPOS>ATOM
      1 C01         7.3240   94.3140   42.6070 C.3       1 35D         0.0258
      2 C02         7.8570   93.1660   43.3460 C.2       1 35D         0.1754
      3 O03         7.2400   92.6870   44.2470 O.2       1 35D        -0.3972
      4 N04         9.1350   92.6160   42.9760 N.am      1 35D        -0.2731
      5 C05         9.7210   91.4850   43.6680 C.3       1 35D         0.0363
      6 C06        10.1600   90.4270   42.7300 C.3       1 35D        -0.0166
      7 C07        11.0080   90.9840   41.6490 C.3       1 35D         0.0214
      8 C08        10.3420   92.1120   40.9410 C.3       1 35D        -0.0166
      9 C09         9.9170   93.1620   41.8970 C.3       1 35D         0.0363
     10 C10        11.5140   89.9310   40.6450 C.ar      1 35D         0.0981
     11 N11        10.9380   89.9010   39.3970 N.ar      1 35D        -0.2775
     12 C12        11.3760   88.9480   38.4550 C.ar      1 35D         0.0550
     13 C13        10.8010   88.8820   37.1290 C.ar      1 35D        -0.0403
     14 C14        11.2540   87.9290   36.2210 C.ar      1 35D        -0.0574
     15 C15        12.2770   87.0220   36.5900 C.ar      1 35D        -0.0576
     16 C16        12.8470   87.0840   37.9000 C.ar      1 35D        -0.0411
     17 C17        12.3930   88.0450   38.8190 C.ar      1 35D         0.0534
     18 N18        12.9830   88.0820   40.1240 N.ar      1 35D        -0.2573
     19 C19        12.5760   88.9830   41.0290 C.ar      1 35D         0.2040
     20 O20        13.1740   89.0250   42.3240 O.3       1 35D        -0.2823
     21 C21        13.8040   87.7870   42.7030 C.3       1 35D         0.1276
     22 C22        15.1560   87.6620   42.1580 C.3       1 35D         0.0648
     23 N23        15.7130   87.9780   43.4670 N.pl3     1 35D        -0.2851
     24 C24        14.3750   87.9310   44.0460 C.3       1 35D         0.0648
     25 C25        16.7150   88.1760   44.4800 C.ar      1 35D         0.1128
     26 C26        16.3890   88.1980   45.8590 C.ar      1 35D        -0.0088
     27 C27        17.4080   88.3960   46.7800 C.ar      1 35D        -0.0394
     28 C28        18.7350   88.5700   46.3210 C.ar      1 35D        -0.0028
     29 C29        19.8210   88.7780   47.2310 C.ar      1 35D        -0.0516
     30 C30        21.1310   88.9480   46.7260 C.ar      1 35D        -0.0604
     31 C31        21.3770   88.9140   45.3340 C.ar      1 35D        -0.0610
     32 C32        20.3210   88.7100   44.4520 C.ar      1 35D        -0.0475
     33 C33        18.9850   88.5380   44.9700 C.ar      1 35D         0.0275
     34 N34        17.9540   88.3410   44.0760 N.ar      1 35D        -0.2918
     35 H           8.0355   94.6063   41.8207 H         1 35D         0.0467
     36 H           7.1740   95.1570   43.2975 H         1 35D         0.0467
     37 H           6.3625   94.0403   42.1481 H         1 35D         0.0467
     38 H           8.9728   91.0624   44.3547 H         1 35D         0.0524
     39 H          10.5916   91.8330   44.2433 H         1 35D         0.0524
     40 H           9.2733   89.9544   42.2824 H         1 35D         0.0314
     41 H          10.7367   89.6726   43.2851 H         1 35D         0.0314
     42 H          11.8999   91.3990   42.1413 H         1 35D         0.0508
     43 H           9.4580   91.7309   40.4088 H         1 35D         0.0314
     44 H          11.0460   92.5483   40.2171 H         1 35D         0.0314
     45 H          10.8117   93.6465   42.3150 H         1 35D         0.0524
     46 H           9.3124   93.9084   41.3609 H         1 35D         0.0524
     47 H          10.0177   89.5744   36.8427 H         1 35D         0.0643
     48 H          10.8221   87.8810   35.2279 H         1 35D         0.0634
     49 H          12.6276   86.2815   35.8802 H         1 35D         0.0643
     50 H          13.6294   86.3896   38.1841 H         1 35D         0.0632
     51 H          13.1424   86.9233   42.5413 H         1 35D         0.0702
     52 H          15.3958   88.3997   41.3780 H         1 35D         0.0555
     53 H          15.4030   86.6528   41.7967 H         1 35D         0.0555
     54 H          14.1999   87.0673   44.7042 H         1 35D         0.0555
     55 H          14.0769   88.8539   44.5650 H         1 35D         0.0555
     56 H          15.3649   88.0630   46.1876 H         1 35D         0.0647
     57 H          17.1893   88.4172   47.8415 H         1 35D         0.0755
     58 H          19.6402   88.8050   48.2995 H         1 35D         0.0644
     59 H          21.9546   89.1059   47.4128 H         1 35D         0.0604
     60 H          22.3842   89.0464   44.9558 H         1 35D         0.0638
     61 H          20.5002   88.6804   43.3833 H         1 35D         0.0603
@<TRIPOS>BOND
     1    1    2 1  
     2    2    3 2  
     3    2    4 am 
     4    4    5 1  
     5    4    9 1  
     6    5    6 1  
     7    6    7 1  
     8    7    8 1  
     9    7   10 1  
    10    8    9 1  
    11   10   11 ar 
    12   10   19 ar 
    13   11   12 ar 
    14   12   13 ar 
    15   12   17 ar 
    16   13   14 ar 
    17   14   15 ar 
    18   15   16 ar 
    19   16   17 ar 
    20   17   18 ar 
    21   18   19 ar 
    22   19   20 1  
    23   20   21 1  
    24   21   22 1  
    25   21   24 1  
    26   22   23 1  
    27   23   24 1  
    28   23   25 1  
    29   25   26 ar 
    30   25   34 ar 
    31   26   27 ar 
    32   27   28 ar 
    33   28   29 ar 
    34   28   33 ar 
    35   29   30 ar 
    36   30   31 ar 
    37   31   32 ar 
    38   32   33 ar 
    39   33   34 ar 
    40    1   35 1  
    41    1   36 1  
    42    1   37 1  
    43    5   38 1  
    44    5   39 1  
    45    6   40 1  
    46    6   41 1  
    47    7   42 1  
    48    8   43 1  
    49    8   44 1  
    50    9   45 1  
    51    9   46 1  
    52   13   47 1  
    53   14   48 1  
    54   15   49 1  
    55   16   50 1  
    56   21   51 1  
    57   22   52 1  
    58   22   53 1  
    59   24   54 1  
    60   24   55 1  
    61   26   56 1  
    62   27   57 1  
    63   29   58 1  
    64   30   59 1  
    65   31   60 1  
    66   32   61 1  
@<TRIPOS>SUBSTRUCTURE
     1 35D         1

