### 
### Created by X-TOOL on Mon Sep 10 21:13:17 2018
### 

@<TRIPOS>MOLECULE
4tpw_ligand
   40    42     1     0     0
SMALL
GAST_HUCK


@<TRIPOS>ATOM
      1 C15        -1.8850    2.0190    3.8160 C.ar      1 33R         0.0722
      2 C17         0.4630    2.1630    3.3270 C.ar      1 33R        -0.0209
      3 C20        -0.3000    2.1490    5.6150 C.ar      1 33R         0.0804
      4 C22        -1.6090    2.0570    5.1830 C.ar      1 33R        -0.0058
      5 C28        -5.5180    1.6460   -2.7960 C.ar      1 33R        -0.0449
      6 CL19        2.4130    2.3060    5.2090 Cl        1 33R        -0.0441
      7 CL21        0.0160    2.1970    7.2920 Cl        1 33R        -0.0623
      8 C01        -6.1210    0.4710   -4.8090 C.ar      1 33R        -0.0579
      9 C02        -7.2220    1.2780   -4.9420 C.ar      1 33R        -0.0313
     10 C03        -7.4910    2.2880   -3.9950 C.ar      1 33R         0.0929
     11 N04        -8.7020    3.1280   -4.2080 N.2       1 33R        -0.2195
     12 O05        -8.6340    4.3310   -4.1940 O.2       1 33R        -0.4913
     13 O06        -9.7620    2.5950   -4.4180 O.2       1 33R        -0.4913
     14 C07        -6.6310    2.4660   -2.9220 C.ar      1 33R         0.0202
     15 C08        -6.8320    3.4900   -1.8900 C.3       1 33R         0.0739
     16 C09        -7.5340    3.0750   -0.5930 C.2       1 33R         0.1711
     17 N10        -6.8160    2.6940    0.4910 N.2       1 33R        -0.0706
     18 N11        -5.4870    2.8490    0.6130 N.pl3     1 33R        -0.0847
     19 C12        -4.8710    2.3730    1.8180 C.2       1 33R         0.3719
     20 N13        -3.5790    2.4850    2.1580 N.2       1 33R        -0.1278
     21 C14        -3.2370    1.9420    3.3470 C.2       1 33R         0.2121
     22 C16        -0.8420    2.0740    2.8960 C.ar      1 33R        -0.0194
     23 C18         0.7480    2.1940    4.6850 C.ar      1 33R         0.0817
     24 C23        -4.2630    1.3500    4.0650 C.2       1 33R         0.1958
     25 S24        -5.6680    1.5470    3.0760 S.3       1 33R         0.2148
     26 C25        -9.0310    2.7580   -0.5970 C.2       1 33R         0.1278
     27 O26        -9.7570    3.0910   -1.5770 O.co2     1 33R        -0.5446
     28 O27        -9.5450    2.1430    0.4280 O.co2     1 33R        -0.5446
     29 C29        -5.2640    0.6450   -3.7330 C.ar      1 33R        -0.0598
     30 H           1.2694    2.2089    2.6040 H         1 33R         0.0697
     31 H          -2.4182    2.0145    5.9031 H         1 33R         0.0803
     32 H          -4.8401    1.7851   -1.9616 H         1 33R         0.0598
     33 H          -5.9213   -0.3010   -5.5433 H         1 33R         0.0599
     34 H          -7.8917    1.1382   -5.7828 H         1 33R         0.0679
     35 H          -7.4284    4.2967   -2.3412 H         1 33R         0.0802
     36 H          -5.8397    3.8772   -1.6155 H         1 33R         0.0802
     37 H          -4.9308    3.2933   -0.1314 H         1 33R         0.3261
     38 H          -1.0581    2.0466    1.8341 H         1 33R         0.0803
     39 H          -4.1990    0.8665    5.0387 H         1 33R         0.2361
     40 H          -4.3974    0.0036   -3.6203 H         1 33R         0.0651
@<TRIPOS>BOND
     1    1    4 ar 
     2   21    1 1  
     3    1   22 ar 
     4   22    2 ar 
     5    2   23 ar 
     6    4    3 ar 
     7    3    7 1  
     8    3   23 ar 
     9   14    5 ar 
    10    5   29 ar 
    11   23    6 1  
    12    9    8 ar 
    13   29    8 ar 
    14   10    9 ar 
    15   10   11 1  
    16   14   10 ar 
    17   11   12 2  
    18   11   13 2  
    19   15   14 1  
    20   16   15 1  
    21   17   16 2  
    22   16   26 1  
    23   18   17 1  
    24   19   18 1  
    25   20   19 2  
    26   19   25 1  
    27   20   21 1  
    28   21   24 2  
    29   24   25 1  
    30   26   27 ar 
    31   26   28 ar 
    32    2   30 1  
    33    4   31 1  
    34    5   32 1  
    35    8   33 1  
    36    9   34 1  
    37   15   35 1  
    38   15   36 1  
    39   18   37 1  
    40   22   38 1  
    41   24   39 1  
    42   29   40 1  
@<TRIPOS>SUBSTRUCTURE
     1 33R         1

