### 
### Created by X-TOOL on Mon Sep 10 21:13:23 2018
### 

@<TRIPOS>MOLECULE
4tqn_ligand
   40    41     1     0     0
SMALL
GAST_HUCK


@<TRIPOS>ATOM
      1 O4        -16.6230   -6.8180   -6.9040 O.co2     1 UL4        -0.5606
      2 C16       -17.5950   -6.0830   -6.8620 C.2       1 UL4         0.0640
      3 O3        -18.6470   -6.3370   -7.6310 O.co2     1 UL4        -0.5606
      4 C15       -17.6030   -4.8850   -5.9630 C.ar      1 UL4         0.0157
      5 C14       -18.6340   -3.9560   -6.0530 C.ar      1 UL4        -0.0435
      6 C13       -18.6250   -2.8510   -5.2100 C.ar      1 UL4        -0.0528
      7 C12       -17.6000   -2.6620   -4.2880 C.ar      1 UL4        -0.0391
      8 C17       -16.5710   -4.7050   -5.0490 C.ar      1 UL4        -0.0273
      9 C11       -16.5760   -3.5960   -4.2130 C.ar      1 UL4         0.0589
     10 C10       -15.4530   -3.4440   -3.2360 C.2       1 UL4         0.2303
     11 O2        -14.7610   -4.4200   -3.0430 O.2       1 UL4        -0.3745
     12 N         -15.2500   -2.2650   -2.6360 N.am      1 UL4        -0.2348
     13 C9        -14.2300   -2.0600   -1.7600 C.ar      1 UL4         0.1026
     14 C8        -13.2020   -1.1730   -2.0470 C.ar      1 UL4        -0.0305
     15 C5        -12.1790   -0.9700   -1.1220 C.ar      1 UL4         0.0073
     16 C6        -11.0700   -0.0400   -1.4450 C.2       1 UL4         0.1183
     17 O1        -10.2060    0.1490   -0.6010 O.2       1 UL4        -0.3843
     18 C7        -11.0310    0.5880   -2.8030 C.3       1 UL4         0.0088
     19 C4        -12.1690   -1.6320    0.0980 C.ar      1 UL4        -0.0667
     20 C3        -13.2100   -2.5120    0.3840 C.ar      1 UL4        -0.0389
     21 C2        -14.2260   -2.7060   -0.5380 C.ar      1 UL4         0.1189
     22 O         -15.2420   -3.5700   -0.2660 O.3       1 UL4        -0.3205
     23 C1        -15.1580   -4.4610    0.8430 C.3       1 UL4         0.0659
     24 C         -16.4070   -5.3070    0.7980 C.3       1 UL4        -0.0374
     25 H1        -19.4343   -4.0920   -6.7714 H         1 UL4         0.0685
     26 H2        -19.4283   -2.1257   -5.2717 H         1 UL4         0.0636
     27 H3        -17.6012   -1.7958   -3.6362 H         1 UL4         0.0689
     28 H4        -15.7653   -5.4277   -4.9891 H         1 UL4         0.0704
     29 H5        -15.8706   -1.5076   -2.8391 H         1 UL4         0.2219
     30 H6        -13.1945   -0.6383   -2.9899 H         1 UL4         0.0517
     31 H7        -10.1520    1.2451   -2.8780 H         1 UL4         0.0447
     32 H8        -11.9452    1.1793   -2.9600 H         1 UL4         0.0447
     33 H9        -10.9670   -0.1987   -3.5691 H         1 UL4         0.0447
     34 H10       -11.3696   -1.4679    0.8115 H         1 UL4         0.0520
     35 H11       -13.2254   -3.0451    1.3278 H         1 UL4         0.0512
     36 H12       -15.1147   -3.8946    1.7850 H         1 UL4         0.0608
     37 H13       -14.2640   -5.0958    0.7554 H         1 UL4         0.0608
     38 H14       -16.3979   -6.0191    1.6364 H         1 UL4         0.0255
     39 H15       -16.4413   -5.8599   -0.1523 H         1 UL4         0.0255
     40 H16       -17.2921   -4.6587    0.8772 H         1 UL4         0.0255
@<TRIPOS>BOND
     1    1    2 ar 
     2    2    3 ar 
     3    2    4 1  
     4    4    5 ar 
     5    4    8 ar 
     6    5    6 ar 
     7    6    7 ar 
     8    7    9 ar 
     9    8    9 ar 
    10    9   10 1  
    11   10   11 2  
    12   10   12 am 
    13   12   13 1  
    14   13   14 ar 
    15   13   21 ar 
    16   14   15 ar 
    17   15   16 1  
    18   15   19 ar 
    19   16   17 2  
    20   16   18 1  
    21   19   20 ar 
    22   20   21 ar 
    23   21   22 1  
    24   22   23 1  
    25   23   24 1  
    26    5   25 1  
    27    6   26 1  
    28    7   27 1  
    29    8   28 1  
    30   12   29 1  
    31   14   30 1  
    32   18   31 1  
    33   18   32 1  
    34   18   33 1  
    35   19   34 1  
    36   20   35 1  
    37   23   36 1  
    38   23   37 1  
    39   24   38 1  
    40   24   39 1  
    41   24   40 1  
@<TRIPOS>SUBSTRUCTURE
     1 UL4         1

