### 
### Created by X-TOOL on Mon Sep 10 21:13:19 2018
### 

@<TRIPOS>MOLECULE
4trc_ligand
   15    16     1     0     0
SMALL
GAST_HUCK


@<TRIPOS>ATOM
      1 N9         41.6440   34.4080  -11.4140 N.2       1 ADE        -0.2857
      2 C8         41.9310   33.6110  -12.5560 C.2       1 ADE         0.1112
      3 N7         42.8670   34.2360  -13.2660 N.pl3     1 ADE        -0.2409
      4 C5         43.1800   35.3950  -12.6170 C.ar      1 ADE         0.1543
      5 C6         44.0880   36.4190  -12.9150 C.ar      1 ADE         0.1524
      6 N6         44.8730   36.3520  -14.0980 N.pl3     1 ADE        -0.3151
      7 N1         44.2140   37.4840  -12.0840 N.ar      1 ADE        -0.2692
      8 C2         43.4570   37.5580  -10.9740 C.ar      1 ADE         0.0501
      9 N3         42.5210   36.4960  -10.6480 N.ar      1 ADE        -0.2948
     10 C4         42.4000   35.4750  -11.4580 C.ar      1 ADE         0.1017
     11 H1         41.4670   32.6579  -12.8054 H         1 ADE         0.1402
     12 H2         43.2816   33.9040  -14.1485 H         1 ADE         0.2376
     13 H3         45.5405   37.1054  -14.3165 H         1 ADE         0.1804
     14 H4         44.7744   35.5501  -14.7368 H         1 ADE         0.1804
     15 H5         43.5463   38.4165  -10.3182 H         1 ADE         0.0974
@<TRIPOS>BOND
     1    1    2 2  
     2    1   10 1  
     3    2    3 1  
     4    3    4 1  
     5    4    5 ar 
     6    4   10 ar 
     7    5    6 1  
     8    5    7 ar 
     9    7    8 ar 
    10    8    9 ar 
    11    9   10 ar 
    12    2   11 1  
    13    3   12 1  
    14    6   13 1  
    15    6   14 1  
    16    8   15 1  
@<TRIPOS>SUBSTRUCTURE
     1 ADE         1

