### 
### Created by X-TOOL on Mon Sep 10 21:12:44 2018
### 

@<TRIPOS>MOLECULE
4ts1_ligand
   24    24     1     0     0
SMALL
GAST_HUCK


@<TRIPOS>ATOM
      1 N          15.4720    2.5710   27.7220 N.4       1 TYR         0.2340
      2 CA         14.3700    2.7470   28.6720 C.3       1 TYR         0.0363
      3 C          13.6960    1.4030   29.0050 C.2       1 TYR         0.0864
      4 O          12.9010    1.4090   29.9760 O.co2     1 TYR        -0.5641
      5 CB         13.2860    3.7660   28.1840 C.3       1 TYR         0.0311
      6 CG         13.8610    5.0950   27.8010 C.ar      1 TYR        -0.0467
      7 CD1        14.5160    5.9320   28.7800 C.ar      1 TYR        -0.0684
      8 CD2        13.7710    5.5630   26.5260 C.ar      1 TYR        -0.0684
      9 CE1        15.0490    7.1460   28.4030 C.ar      1 TYR        -0.0398
     10 CE2        14.2770    6.8150   26.1290 C.ar      1 TYR        -0.0398
     11 CZ         14.9270    7.5770   27.0800 C.ar      1 TYR         0.0805
     12 OH         15.4140    8.7930   26.6570 O.3       1 TYR        -0.3376
     13 OXT        13.9160    0.4080   28.3030 O.co2     1 TYR        -0.5641
     14 H1         15.8916    3.4660   27.5246 H         1 TYR         0.2012
     15 H2         15.1182    2.1701   26.8675 H         1 TYR         0.2012
     16 H3         16.1641    1.9560   28.1204 H         1 TYR         0.2012
     17 H4         14.8043    3.1461   29.6005 H         1 TYR         0.1046
     18 H5         12.5590    3.9195   28.9951 H         1 TYR         0.0479
     19 H6         12.7740    3.3404   27.3084 H         1 TYR         0.0479
     20 H7         14.5882    5.6051   29.8110 H         1 TYR         0.0530
     21 H8         13.2867    4.9421   25.7811 H         1 TYR         0.0530
     22 H9         15.5613    7.7644   29.1311 H         1 TYR         0.0525
     23 H10        14.1605    7.1692   25.1112 H         1 TYR         0.0525
     24 H11        15.2336    8.9002   25.7304 H         1 TYR         0.2458
@<TRIPOS>BOND
     1    2    3 1  
     2    2    5 1  
     3    2    1 1  
     4    5    6 1  
     5    6    8 ar 
     6    6    7 ar 
     7    7    9 ar 
     8    9   11 ar 
     9   11   12 1  
    10   11   10 ar 
    11   10    8 ar 
    12    3   13 ar 
    13    3    4 ar 
    14    1   14 1  
    15    1   15 1  
    16    1   16 1  
    17    2   17 1  
    18    5   18 1  
    19    5   19 1  
    20    7   20 1  
    21    8   21 1  
    22    9   22 1  
    23   10   23 1  
    24   12   24 1  
@<TRIPOS>SUBSTRUCTURE
     1 TYR         1

