### 
### Created by X-TOOL on Mon Sep 10 21:13:18 2018
### 

@<TRIPOS>MOLECULE
4tsx_ligand
   56    59     1     0     0
SMALL
GAST_HUCK


@<TRIPOS>ATOM
      1 C1        -45.2590   15.0790   28.2840 C.ar      1 LF0         0.0016
      2 C2        -46.0940   13.9350   28.4050 C.ar      1 LF0         0.0366
      3 C3        -47.4730   14.0700   28.1540 C.ar      1 LF0         0.0291
      4 N1        -47.9600   15.2880   27.8300 N.ar      1 LF0        -0.3083
      5 C5        -47.1990   16.4000   27.6950 C.ar      1 LF0         0.0290
      6 C6        -45.8200   16.3380   27.9240 C.ar      1 LF0        -0.0008
      7 C7        -43.7990   14.8960   28.5070 C.ar      1 LF0        -0.0294
      8 C8        -42.9740   14.8520   27.3720 C.ar      1 LF0        -0.0667
      9 C9        -41.6060   14.6410   27.5360 C.ar      1 LF0        -0.0359
     10 C10       -41.0640   14.4850   28.8180 C.ar      1 LF0         0.0963
     11 C11       -41.8780   14.5470   29.9590 C.ar      1 LF0        -0.0105
     12 C12       -43.2630   14.7350   29.8000 C.ar      1 LF0        -0.0586
     13 C13       -45.0510   17.5090   27.7930 C.ar      1 LF0        -0.0529
     14 C14       -45.6630   18.7140   27.4270 C.ar      1 LF0        -0.0613
     15 C15       -47.0450   18.7490   27.1940 C.ar      1 LF0        -0.0614
     16 C16       -47.8300   17.6050   27.3320 C.ar      1 LF0        -0.0474
     17 C17       -48.5050   12.9360   28.2640 C.3       1 LF0        -0.0155
     18 C18       -45.4970   12.5910   28.7630 C.3       1 LF0         0.1492
     19 C19       -45.9130   12.1880   30.1710 C.2       1 LF0         0.0761
     20 O20       -45.9380   13.0710   31.0470 O.co2     1 LF0        -0.5639
     21 O21       -46.2400   11.0050   30.4260 O.co2     1 LF0        -0.5639
     22 O22       -45.9370   11.5810   27.8330 O.3       1 LF0        -0.3446
     23 C23       -45.3270   11.4360   26.5510 C.3       1 LF0         0.0663
     24 C24       -43.7890   11.4010   26.6800 C.3       1 LF0        -0.0360
     25 C25       -45.7500   12.5690   25.6300 C.3       1 LF0        -0.0360
     26 C26       -45.8330   10.0990   25.9740 C.3       1 LF0        -0.0360
     27 O27       -39.7130   14.3020   28.9500 O.3       1 LF0        -0.3192
     28 C4        -39.1410   13.7580   30.1600 C.3       1 LF0         0.0713
     29 C20       -39.7280   14.5390   31.3340 C.3       1 LF0        -0.0169
     30 C21       -41.2760   14.3770   31.3570 C.3       1 LF0        -0.0180
     31 H         -43.3952   14.9804   26.3814 H         1 LF0         0.0554
     32 H         -40.9588   14.5975   26.6675 H         1 LF0         0.0533
     33 H         -43.9137   14.7559   30.6667 H         1 LF0         0.0541
     34 H         -43.9830   17.4782   27.9757 H         1 LF0         0.0628
     35 H         -45.0707   19.6160   27.3242 H         1 LF0         0.0610
     36 H         -47.5118   19.6825   26.9012 H         1 LF0         0.0624
     37 H         -48.9002   17.6425   27.1639 H         1 LF0         0.0613
     38 H         -49.5034   13.3232   28.0125 H         1 LF0         0.0423
     39 H         -48.5118   12.5448   29.2921 H         1 LF0         0.0423
     40 H         -48.2384   12.1286   27.5662 H         1 LF0         0.0423
     41 H         -44.4005   12.6663   28.7193 H         1 LF0         0.0930
     42 H         -43.3398   11.2889   25.6822 H         1 LF0         0.0257
     43 H         -43.4933   10.5511   27.3127 H         1 LF0         0.0257
     44 H         -43.4379   12.3380   27.1370 H         1 LF0         0.0257
     45 H         -45.2712   12.4414   24.6479 H         1 LF0         0.0257
     46 H         -45.4416   13.5306   26.0661 H         1 LF0         0.0257
     47 H         -46.8433   12.5548   25.5095 H         1 LF0         0.0257
     48 H         -45.3902    9.9376   24.9801 H         1 LF0         0.0257
     49 H         -46.9291   10.1288   25.8865 H         1 LF0         0.0257
     50 H         -45.5407    9.2766   26.6435 H         1 LF0         0.0257
     51 H         -38.0470   13.8712   30.1426 H         1 LF0         0.0614
     52 H         -39.3980   12.6924   30.2513 H         1 LF0         0.0614
     53 H         -39.4743   15.6040   31.2269 H         1 LF0         0.0311
     54 H         -39.3071   14.1546   32.2747 H         1 LF0         0.0311
     55 H         -41.5250   13.3741   31.7341 H         1 LF0         0.0405
     56 H         -41.7052   15.1373   32.0261 H         1 LF0         0.0405
@<TRIPOS>BOND
     1    1    2 ar 
     2    1    6 ar 
     3    1    7 1  
     4    2    3 ar 
     5    2   18 1  
     6    3    4 ar 
     7    3   17 1  
     8    4    5 ar 
     9    5    6 ar 
    10    5   16 ar 
    11    6   13 ar 
    12    7    8 ar 
    13    7   12 ar 
    14    8    9 ar 
    15    9   10 ar 
    16   10   11 ar 
    17   10   27 1  
    18   11   12 ar 
    19   11   30 1  
    20   13   14 ar 
    21   14   15 ar 
    22   15   16 ar 
    23   18   19 1  
    24   18   22 1  
    25   19   20 ar 
    26   19   21 ar 
    27   22   23 1  
    28   23   24 1  
    29   23   25 1  
    30   23   26 1  
    31   27   28 1  
    32   28   29 1  
    33   29   30 1  
    34    8   31 1  
    35    9   32 1  
    36   12   33 1  
    37   13   34 1  
    38   14   35 1  
    39   15   36 1  
    40   16   37 1  
    41   17   38 1  
    42   17   39 1  
    43   17   40 1  
    44   18   41 1  
    45   24   42 1  
    46   24   43 1  
    47   24   44 1  
    48   25   45 1  
    49   25   46 1  
    50   25   47 1  
    51   26   48 1  
    52   26   49 1  
    53   26   50 1  
    54   28   51 1  
    55   28   52 1  
    56   29   53 1  
    57   29   54 1  
    58   30   55 1  
    59   30   56 1  
@<TRIPOS>SUBSTRUCTURE
     1 LF0         1

