### 
### Created by X-TOOL on Mon Sep 10 21:13:20 2018
### 

@<TRIPOS>MOLECULE
4tt2_ligand
   85    84     1     0     0
SMALL
GAST_HUCK


@<TRIPOS>ATOM
      1 N          22.0920   -8.8010   12.1740 N.4       1 SER         0.2396
      2 CA         22.8760   -7.8450   13.0080 C.3       1 SER         0.0884
      3 C          22.2250   -7.6500   14.3730 C.2       1 SER         0.2288
      4 O          21.0550   -7.9870   14.5670 O.2       1 SER        -0.3906
      5 CB         23.0100   -6.4910   12.2960 C.3       1 SER         0.1041
      6 OG         23.9020   -6.5660   11.1930 O.3       1 SER        -0.3870
      7 N          23.0020   -7.1200   15.3150 N.am      1 GLY        -0.2636
      8 CA         22.4760   -6.6500   16.5940 C.3       1 GLY         0.1202
      9 C          21.9360   -5.2410   16.4250 C.2       1 GLY         0.2007
     10 O          22.0520   -4.6550   15.3480 O.2       1 GLY        -0.3947
     11 N          21.3470   -4.6870   17.4800 N.am      1 ARG        -0.2640
     12 CA         20.7770   -3.3460   17.4040 C.3       1 ARG         0.1311
     13 C          21.8410   -2.2870   17.1160 C.2       1 ARG         0.2037
     14 O          23.0030   -2.4250   17.5010 O.2       1 ARG        -0.3944
     15 CB         20.0460   -2.9920   18.6870 C.3       1 ARG        -0.0092
     16 CG         18.7490   -3.7480   18.8880 C.3       1 ARG        -0.0156
     17 CD         17.7590   -2.8850   19.6460 C.3       1 ARG         0.0627
     18 NE         17.1800   -3.5570   20.8030 N.pl3     1 ARG        -0.2723
     19 CZ         16.6970   -2.9310   21.8760 C.cat     1 ARG         0.2882
     20 NH1        16.7130   -1.6020   21.9630 N.pl3     1 ARG        -0.2849
     21 NH2        16.1960   -3.6400   22.8800 N.pl3     1 ARG        -0.2849
     22 N          21.4080   -1.2170   16.4590 N.am      1 GLY        -0.2664
     23 CA         22.2970   -0.1880   15.9530 C.3       1 GLY         0.1201
     24 C          22.3930   -0.3330   14.4510 C.2       1 GLY         0.2007
     25 O          22.3000   -1.4430   13.9240 O.2       1 GLY        -0.3947
     26 OH         15.6680    3.9370   13.1410 O.2       1 ALY        -0.3974
     27 CH         16.0590    4.2550   12.0250 C.2       1 ALY         0.1729
     28 CH3        15.2810    5.2120   11.1650 C.3       1 ALY         0.0256
     29 NZ         17.1930    3.7890   11.4820 N.am      1 ALY        -0.2872
     30 CE         18.0710    2.8520   12.1730 C.3       1 ALY         0.0309
     31 CD         19.4250    2.6950   11.4840 C.3       1 ALY        -0.0325
     32 CG         20.3840    1.8390   12.3070 C.3       1 ALY        -0.0470
     33 CB         21.8100    1.9250   11.7610 C.3       1 ALY        -0.0123
     34 CA         22.7100    0.8220   12.3140 C.3       1 ALY         0.1309
     35 N          22.5730    0.7930   13.7690 N.am      1 ALY        -0.2640
     36 C          24.1480    1.0790   11.9420 C.2       1 ALY         0.2032
     37 O          24.9930    1.3270   12.8090 O.2       1 ALY        -0.3944
     38 N          24.4420    1.0090   10.6450 N.am      1 GLY        -0.2697
     39 CA         25.7820    1.3140   10.1250 C.3       1 GLY         0.1116
     40 C          26.8540    0.2740   10.4280 C.2       1 GLY         0.2118
     41 O          26.6500   -0.6460   11.2280 O.co2     1 GLY        -0.4123
     42 H          22.5416   -8.9128   11.2788 H         1 SER         0.2016
     43 H          21.1595   -8.4429   12.0392 H         1 SER         0.2016
     44 H          22.0451   -9.6935   12.6402 H         1 SER         0.2016
     45 H          23.8826   -8.2623   13.1584 H         1 SER         0.1122
     46 H          23.3896   -5.7472   13.0120 H         1 SER         0.0640
     47 H          22.0195   -6.1788   11.9334 H         1 SER         0.0640
     48 H          23.9614   -5.7142   10.7767 H         1 SER         0.2099
     49 H          23.9834   -7.0406   15.1403 H         1 GLY         0.1882
     50 H          23.2805   -6.6480   17.3442 H         1 GLY         0.0763
     51 H          21.6666   -7.3167   16.9261 H         1 GLY         0.0763
     52 H          21.2937   -5.1969   18.3386 H         1 ARG         0.1883
     53 H          20.0508   -3.3351   16.5779 H         1 ARG         0.0800
     54 H          19.8195   -1.9157   18.6699 H         1 ARG         0.0313
     55 H          20.7101   -3.2136   19.5355 H         1 ARG         0.0313
     56 H          18.9470   -4.6653   19.4619 H         1 ARG         0.0301
     57 H          18.3258   -4.0128   17.9078 H         1 ARG         0.0301
     58 H          16.9451   -2.6032   18.9618 H         1 ARG         0.0689
     59 H          18.2779   -1.9787   19.9915 H         1 ARG         0.0689
     60 H          17.1416   -4.5862   20.7904 H         1 ARG         0.2642
     61 H          16.3351   -1.1361   22.8003 H         1 ARG         0.2615
     62 H          17.1033   -1.0401   21.1930 H         1 ARG         0.2615
     63 H          16.1776   -4.6684   22.8254 H         1 ARG         0.2615
     64 H          15.8256   -3.1618   23.7137 H         1 ARG         0.2615
     65 H          20.4249   -1.1160   16.3062 H         1 GLY         0.1881
     66 H          23.2944   -0.3059   16.4016 H         1 GLY         0.0763
     67 H          21.8966    0.8051   16.2050 H         1 GLY         0.0763
     68 H          15.8072    5.3577   10.2101 H         1 ALY         0.0467
     69 H          15.1875    6.1778   11.6832 H         1 ALY         0.0467
     70 H          14.2791    4.8007   10.9725 H         1 ALY         0.0467
     71 H          17.4471    4.0968   10.5651 H         1 ALY         0.1850
     72 H          17.5784    1.8691   12.2087 H         1 ALY         0.0520
     73 H          18.2377    3.2161   13.1975 H         1 ALY         0.0520
     74 H          19.8696    3.6910   11.3416 H         1 ALY         0.0285
     75 H          19.2729    2.2178   10.5046 H         1 ALY         0.0285
     76 H          20.0494    0.7917   12.2730 H         1 ALY         0.0268
     77 H          20.3768    2.1926   13.3486 H         1 ALY         0.0268
     78 H          22.2362    2.9008   12.0370 H         1 ALY         0.0312
     79 H          21.7751    1.8368   10.6651 H         1 ALY         0.0312
     80 H          22.3976   -0.1466   11.8967 H         1 ALY         0.0800
     81 H          22.6165    1.6563   14.2719 H         1 ALY         0.1883
     82 H          23.7252    0.7392   10.0020 H         1 GLY         0.1874
     83 H          26.1052    2.2710   10.5605 H         1 GLY         0.0714
     84 H          25.7069    1.4152    9.0323 H         1 GLY         0.0714
     85 O1         27.9714    0.3536    9.8511 O.co2     1 GLY        -0.4123
@<TRIPOS>BOND
     1    2    1 1  
     2    3    2 1  
     3    2    5 1  
     4    3    4 2  
     5    7    3 am 
     6    5    6 1  
     7    8    7 1  
     8    9    8 1  
     9    9   10 2  
    10   11    9 am 
    11   12   11 1  
    12   13   12 1  
    13   12   15 1  
    14   13   14 2  
    15   22   13 am 
    16   15   16 1  
    17   16   17 1  
    18   17   18 1  
    19   18   19 ar 
    20   19   20 ar 
    21   19   21 ar 
    22   23   22 1  
    23   24   23 1  
    24   24   25 2  
    25   35   24 am 
    26   27   26 2  
    27   27   28 1  
    28   29   27 am 
    29   30   29 1  
    30   31   30 1  
    31   32   31 1  
    32   33   32 1  
    33   34   33 1  
    34   34   35 1  
    35   34   36 1  
    36   36   37 2  
    37   36   38 am 
    38   38   39 1  
    39   39   40 1  
    40   40   41 ar 
    41    1   42 1  
    42    1   43 1  
    43    1   44 1  
    44    2   45 1  
    45    5   46 1  
    46    5   47 1  
    47    6   48 1  
    48    7   49 1  
    49    8   50 1  
    50    8   51 1  
    51   11   52 1  
    52   12   53 1  
    53   15   54 1  
    54   15   55 1  
    55   16   56 1  
    56   16   57 1  
    57   17   58 1  
    58   17   59 1  
    59   18   60 1  
    60   20   61 1  
    61   20   62 1  
    62   21   63 1  
    63   21   64 1  
    64   22   65 1  
    65   23   66 1  
    66   23   67 1  
    67   28   68 1  
    68   28   69 1  
    69   28   70 1  
    70   29   71 1  
    71   30   72 1  
    72   30   73 1  
    73   31   74 1  
    74   31   75 1  
    75   32   76 1  
    76   32   77 1  
    77   33   78 1  
    78   33   79 1  
    79   34   80 1  
    80   35   81 1  
    81   38   82 1  
    82   39   83 1  
    83   39   84 1  
    84   40   85 ar 
@<TRIPOS>SUBSTRUCTURE
     1 SER         1

