### 
### Created by X-TOOL on Mon Sep 10 21:13:18 2018
### 

@<TRIPOS>MOLECULE
4tte_ligand
   32    33     1     0     0
SMALL
GAST_HUCK


@<TRIPOS>ATOM
      1 CAF       -12.1500   23.8040   12.5600 C.3       1 36Z         0.0132
      2 CAE       -13.4110   24.1590   11.7580 C.2       1 36Z         0.1466
      3 OAA       -14.4700   24.9110   12.2620 O.3       1 36Z        -0.1733
      4 NAB       -15.2830   25.0300   11.4020 N.2       1 36Z        -0.1672
      5 CAC       -14.8910   24.4030   10.3050 C.2       1 36Z         0.0233
      6 CAG       -15.7220   24.3600    9.0050 C.3       1 36Z        -0.0269
      7 CAD       -13.7150   23.8350   10.5090 C.2       1 36Z         0.0187
      8 CAH       -13.0040   23.1660    9.5860 C.ar      1 36Z        -0.0458
      9 CAM       -13.5960   22.1950    8.7700 C.ar      1 36Z        -0.0571
     10 CAI       -11.6570   23.5000    9.3750 C.ar      1 36Z        -0.0448
     11 CAJ       -10.9070   22.8500    8.3950 C.ar      1 36Z         0.0329
     12 NAR        -9.6320   23.1670    8.2190 N.pl3     1 36Z        -0.3377
     13 CAK       -11.4950   21.8720    7.5990 C.ar      1 36Z        -0.0307
     14 CAL       -12.8470   21.5370    7.7830 C.ar      1 36Z         0.0437
     15 CAN       -13.4400   20.5650    6.9640 C.2       1 36Z         0.2585
     16 OAO       -12.7840   20.0430    6.0560 O.2       1 36Z        -0.3568
     17 OAP       -14.7810   20.3450    7.1840 O.3       1 36Z        -0.2810
     18 CAQ       -15.2890   19.0650    6.7830 C.3       1 36Z         0.0647
     19 H         -11.4729   23.2056   11.9327 H         1 36Z         0.0469
     20 H         -12.4331   23.2239   13.4507 H         1 36Z         0.0469
     21 H         -11.6409   24.7282   12.8709 H         1 36Z         0.0469
     22 H         -15.1811   23.7794    8.2432 H         1 36Z         0.0379
     23 H         -15.8834   25.3846    8.6389 H         1 36Z         0.0379
     24 H         -16.6936   23.8852    9.2064 H         1 36Z         0.0379
     25 H         -14.6434   21.9490    8.9020 H         1 36Z         0.0503
     26 H         -11.1947   24.2714    9.9802 H         1 36Z         0.0480
     27 H          -9.0773   22.6876    7.4956 H         1 36Z         0.1716
     28 H          -9.1960   23.8927    8.8057 H         1 36Z         0.1716
     29 H         -10.9104   21.3688    6.8374 H         1 36Z         0.0512
     30 H         -16.3642   19.0102    7.0086 H         1 36Z         0.0575
     31 H         -14.7586   18.2720    7.3306 H         1 36Z         0.0575
     32 H         -15.1339   18.9311    5.7023 H         1 36Z         0.0575
@<TRIPOS>BOND
     1    1    2 1  
     2    2    3 1  
     3    2    7 2  
     4    3    4 1  
     5    4    5 2  
     6    5    6 1  
     7    5    7 1  
     8    7    8 1  
     9    8    9 ar 
    10    8   10 ar 
    11    9   14 ar 
    12   10   11 ar 
    13   11   12 1  
    14   11   13 ar 
    15   13   14 ar 
    16   14   15 1  
    17   15   16 2  
    18   15   17 1  
    19   17   18 1  
    20    1   19 1  
    21    1   20 1  
    22    1   21 1  
    23    6   22 1  
    24    6   23 1  
    25    6   24 1  
    26    9   25 1  
    27   10   26 1  
    28   12   27 1  
    29   12   28 1  
    30   13   29 1  
    31   18   30 1  
    32   18   31 1  
    33   18   32 1  
@<TRIPOS>SUBSTRUCTURE
     1 36Z         1

