### 
### Created by X-TOOL on Mon Sep 10 21:13:25 2018
### 

@<TRIPOS>MOLECULE
4ttv_ligand
   74    75     1     0     0
SMALL
GAST_HUCK


@<TRIPOS>ATOM
      1 C1         34.0320  -11.9460   33.1570 C.3       1 BC9         0.0070
      2 C2         35.2030  -11.8220   34.0630 C.3       1 BC9         0.0175
      3 C3         35.0540  -10.3300   34.0430 C.3       1 BC9        -0.0378
      4 C5         33.9420  -10.4520   33.0410 C.3       1 BC9        -0.0438
      5 C6         34.3230  -12.6280   31.8520 C.3       1 BC9         0.1057
      6 C7         33.0000  -12.4000   31.1810 C.3       1 BC9         0.0179
      7 C8         32.4860  -13.5100   30.3520 C.2       1 BC9        -0.0577
      8 C9         31.2760  -14.0010   30.4740 C.2       1 BC9        -0.0562
      9 C10        31.1110  -15.0320   29.4940 C.2       1 BC9        -0.0408
     10 C11        30.0630  -15.7540   29.1850 C.2       1 BC9         0.0856
     11 C12        28.9640  -15.6920   29.7440 C.1       1 BC9         0.0654
     12 C13        30.3300  -16.6730   28.0670 C.3       1 BC9         0.1023
     13 C14        30.3960  -18.0710   28.5790 C.3       1 BC9        -0.0087
     14 C15        30.4840  -18.9650   27.3750 C.3       1 BC9        -0.0584
     15 C16        31.6120  -18.2250   29.4510 C.3       1 BC9        -0.0439
     16 C17        31.5700  -19.4940   30.2620 C.3       1 BC9        -0.0432
     17 C18        30.2610  -19.6000   30.9860 C.3       1 BC9        -0.0624
     18 C19        32.6810  -19.5070   31.2860 C.3       1 BC9        -0.0478
     19 C20        34.0160  -19.0680   30.7370 C.3       1 BC9        -0.0433
     20 C21        34.7630  -20.2180   30.1320 C.3       1 BC9        -0.0624
     21 C22        34.7920  -18.4900   31.8890 C.3       1 BC9        -0.0454
     22 C23        36.2650  -18.3290   31.6590 C.3       1 BC9        -0.0153
     23 C24        36.9250  -18.6910   32.9560 C.3       1 BC9        -0.0599
     24 C25        36.6160  -16.9110   31.2850 C.3       1 BC9         0.0757
     25 C26        36.0770  -15.9820   32.3440 C.3       1 BC9         0.0749
     26 C27        35.8330  -14.5560   31.9640 C.2       1 BC9         0.2367
     27 O28        36.7140  -13.8620   31.5840 O.2       1 BC9        -0.3703
     28 O29        34.5220  -14.0050   32.0860 O.3       1 BC9        -0.2698
     29 C30        34.8770  -12.3950   35.3770 C.2       1 BC9         0.0382
     30 O31        33.7840  -12.1460   35.8610 O.co2     1 BC9        -0.5687
     31 O32        35.7150  -13.1020   35.9230 O.co2     1 BC9        -0.5687
     32 O33        29.2980  -16.5510   27.1190 O.3       1 BC9        -0.3804
     33 O34        35.9890  -16.6510   30.0540 O.3       1 BC9        -0.3891
     34 N35        27.9400  -15.6440   30.2540 N.1       1 BC9        -0.3637
     35 H1         33.1542  -12.4134   33.6271 H         1 BC9         0.0352
     36 H2         36.1575  -12.2087   33.6766 H         1 BC9         0.0470
     37 H3         35.9393   -9.7956   33.6679 H         1 BC9         0.0286
     38 H4         34.7449   -9.8970   35.0058 H         1 BC9         0.0286
     39 H5         32.9832  -10.0291   33.3755 H         1 BC9         0.0271
     40 H6         34.1874  -10.0601   32.0429 H         1 BC9         0.0271
     41 H7         35.1707  -12.1896   31.3050 H         1 BC9         0.0688
     42 H8         33.1007  -11.5168   30.5331 H         1 BC9         0.0531
     43 H9         32.2569  -12.1962   31.9660 H         1 BC9         0.0531
     44 H10        33.1457  -13.9425   29.6013 H         1 BC9         0.0858
     45 H11        30.5264  -13.6801   31.1958 H         1 BC9         0.0485
     46 H12        32.0034  -15.2517   28.9098 H         1 BC9         0.0706
     47 H13        31.2899  -16.4122   27.5974 H         1 BC9         0.0743
     48 H14        29.4935  -18.3091   29.1610 H         1 BC9         0.0343
     49 H15        30.5353  -20.0145   27.7006 H         1 BC9         0.0235
     50 H16        31.3868  -18.7155   26.7982 H         1 BC9         0.0235
     51 H17        29.5943  -18.8198   26.7446 H         1 BC9         0.0235
     52 H18        31.6675  -17.3671   30.1372 H         1 BC9         0.0273
     53 H19        32.5071  -18.2419   28.8119 H         1 BC9         0.0273
     54 H20        31.6862  -20.3547   29.5869 H         1 BC9         0.0298
     55 H21        30.2416  -20.5293   31.5742 H         1 BC9         0.0232
     56 H22        29.4381  -19.6108   30.2561 H         1 BC9         0.0232
     57 H23        30.1432  -18.7377   31.6588 H         1 BC9         0.0232
     58 H24        32.7845  -20.5313   31.6733 H         1 BC9         0.0270
     59 H25        32.4039  -18.8304   32.1079 H         1 BC9         0.0270
     60 H26        33.8628  -18.2977   29.9668 H         1 BC9         0.0298
     61 H27        35.7288  -19.8636   29.7427 H         1 BC9         0.0232
     62 H28        34.1717  -20.6476   29.3099 H         1 BC9         0.0232
     63 H29        34.9368  -20.9867   30.8994 H         1 BC9         0.0232
     64 H30        34.6549  -19.1525   32.7564 H         1 BC9         0.0271
     65 H31        34.3740  -17.4981   32.1155 H         1 BC9         0.0271
     66 H32        36.5968  -19.0069   30.8588 H         1 BC9         0.0325
     67 H33        38.0157  -18.5925   32.8524 H         1 BC9         0.0233
     68 H34        36.6739  -19.7294   33.2179 H         1 BC9         0.0233
     69 H35        36.5696  -18.0166   33.7490 H         1 BC9         0.0233
     70 H36        37.7056  -16.7900   31.1954 H         1 BC9         0.0622
     71 H37        36.7963  -15.9810   33.1762 H         1 BC9         0.0544
     72 H38        35.1187  -16.3981   32.6882 H         1 BC9         0.0544
     73 H39        29.2662  -15.6565   26.8005 H         1 BC9         0.2127
     74 H40        36.1578  -15.7519   29.7975 H         1 BC9         0.2100
@<TRIPOS>BOND
     1    1    2 1  
     2    1    4 1  
     3    1    5 1  
     4    2    3 1  
     5    2   29 1  
     6    3    4 1  
     7    5    6 1  
     8    5   28 1  
     9    6    7 1  
    10    7    8 2  
    11    8    9 1  
    12    9   10 2  
    13   10   11 1  
    14   10   12 1  
    15   11   34 3  
    16   12   13 1  
    17   12   32 1  
    18   13   14 1  
    19   13   15 1  
    20   15   16 1  
    21   16   17 1  
    22   16   18 1  
    23   18   19 1  
    24   19   20 1  
    25   19   21 1  
    26   21   22 1  
    27   22   23 1  
    28   22   24 1  
    29   24   25 1  
    30   24   33 1  
    31   25   26 1  
    32   26   27 2  
    33   26   28 1  
    34   29   30 ar 
    35   29   31 ar 
    36    1   35 1  
    37    2   36 1  
    38    3   37 1  
    39    3   38 1  
    40    4   39 1  
    41    4   40 1  
    42    5   41 1  
    43    6   42 1  
    44    6   43 1  
    45    7   44 1  
    46    8   45 1  
    47    9   46 1  
    48   12   47 1  
    49   13   48 1  
    50   14   49 1  
    51   14   50 1  
    52   14   51 1  
    53   15   52 1  
    54   15   53 1  
    55   16   54 1  
    56   17   55 1  
    57   17   56 1  
    58   17   57 1  
    59   18   58 1  
    60   18   59 1  
    61   19   60 1  
    62   20   61 1  
    63   20   62 1  
    64   20   63 1  
    65   21   64 1  
    66   21   65 1  
    67   22   66 1  
    68   23   67 1  
    69   23   68 1  
    70   23   69 1  
    71   24   70 1  
    72   25   71 1  
    73   25   72 1  
    74   32   73 1  
    75   33   74 1  
@<TRIPOS>SUBSTRUCTURE
     1 BC9         1

