### 
### Created by X-TOOL on Mon Sep 10 21:13:18 2018
### 

@<TRIPOS>MOLECULE
4tu4_ligand
   41    43     1     0     0
SMALL
GAST_HUCK


@<TRIPOS>ATOM
      1 CAP       -11.9220   23.6620   12.5640 C.3       1 37N         0.0132
      2 CAK       -13.1590   23.8810   11.7070 C.2       1 37N         0.1465
      3 CAJ       -13.3610   23.3600   10.3960 C.2       1 37N         0.0173
      4 CAB       -12.4200   22.5130    9.5780 C.ar      1 37N        -0.0525
      5 CAC       -12.5250   21.1270    9.4970 C.ar      1 37N        -0.0478
      6 CAD       -11.6170   20.4100    8.7080 C.ar      1 37N         0.0581
      7 NAQ       -11.6660   18.9930    8.5900 N.am      1 37N        -0.1885
      8 SAR       -13.0340   18.1510    8.1800 S.o2      1 37N         0.0892
      9 CAS       -13.5540   18.5060    6.5120 C.ar      1 37N         0.1140
     10 CAT       -12.7080   18.2050    5.4410 C.ar      1 37N        -0.0346
     11 CAU       -13.1010   18.4690    4.1300 C.ar      1 37N        -0.0599
     12 CAV       -14.3420   19.0330    3.8850 C.ar      1 37N        -0.0616
     13 CAW       -15.1930   19.3380    4.9520 C.ar      1 37N        -0.0599
     14 CAX       -14.8040   19.0740    6.2640 C.ar      1 37N        -0.0346
     15 OAY       -14.0870   18.3580    9.1360 O.2       1 37N        -0.1447
     16 OAZ       -12.8280   16.7340    8.3640 O.2       1 37N        -0.1447
     17 CAE       -10.6210   21.0840    8.0180 C.ar      1 37N        -0.0383
     18 CAF       -10.5180   22.4690    8.1090 C.ar      1 37N        -0.0122
     19 CAG        -9.4540   23.2030    7.3390 C.2       1 37N         0.0576
     20 OAH        -9.3110   24.4550    7.4060 O.co2     1 37N        -0.5609
     21 OAI        -8.7360   22.5400    6.5640 O.co2     1 37N        -0.5609
     22 CAA       -11.4160   23.1770    8.8840 C.ar      1 37N        -0.0681
     23 CAN       -14.6630   23.8840   10.0340 C.2       1 37N         0.0232
     24 CAO       -15.4030   23.6590    8.7350 C.3       1 37N        -0.0269
     25 NAM       -15.1020   24.6090   11.0470 N.2       1 37N        -0.1672
     26 OAL       -14.2330   24.6020   12.0250 O.3       1 37N        -0.1733
     27 H         -12.0455   24.1817   13.5256 H         1 37N         0.0469
     28 H         -11.0393   24.0606   12.0425 H         1 37N         0.0469
     29 H         -11.7865   22.5853   12.7439 H         1 37N         0.0469
     30 H         -13.3046   20.6063   10.0412 H         1 37N         0.0429
     31 H         -10.8281   18.4758    8.7642 H         1 37N         0.2158
     32 H         -11.7371   17.7621    5.6317 H         1 37N         0.0637
     33 H         -12.4379   18.2338    3.3054 H         1 37N         0.0618
     34 H         -14.6534   19.2378    2.8671 H         1 37N         0.0618
     35 H         -16.1621   19.7829    4.7572 H         1 37N         0.0618
     36 H         -15.4690   19.3087    7.0873 H         1 37N         0.0637
     37 H          -9.9195   20.5298    7.4050 H         1 37N         0.0461
     38 H         -11.3370   24.2560    8.9510 H         1 37N         0.0449
     39 H         -16.3663   24.1892    8.7652 H         1 37N         0.0379
     40 H         -15.5813   22.5825    8.5962 H         1 37N         0.0379
     41 H         -14.8000   24.0417    7.8984 H         1 37N         0.0379
@<TRIPOS>BOND
     1    1    2 1  
     2    2    3 2  
     3    2   26 1  
     4    3    4 1  
     5    3   23 1  
     6    4    5 ar 
     7    4   22 ar 
     8    5    6 ar 
     9    6    7 1  
    10    6   17 ar 
    11    7    8 am 
    12    8    9 1  
    13    8   15 2  
    14    8   16 2  
    15    9   10 ar 
    16    9   14 ar 
    17   10   11 ar 
    18   11   12 ar 
    19   12   13 ar 
    20   13   14 ar 
    21   17   18 ar 
    22   18   19 1  
    23   18   22 ar 
    24   19   20 ar 
    25   19   21 ar 
    26   23   24 1  
    27   23   25 2  
    28   25   26 1  
    29    1   27 1  
    30    1   28 1  
    31    1   29 1  
    32    5   30 1  
    33    7   31 1  
    34   10   32 1  
    35   11   33 1  
    36   12   34 1  
    37   13   35 1  
    38   14   36 1  
    39   17   37 1  
    40   22   38 1  
    41   24   39 1  
    42   24   40 1  
    43   24   41 1  
@<TRIPOS>SUBSTRUCTURE
     1 37N         1

