### 
### Created by X-TOOL on Mon Sep 10 21:13:17 2018
### 

@<TRIPOS>MOLECULE
4tuh_ligand
   76    83     1     0     0
SMALL
GAST_HUCK


@<TRIPOS>ATOM
      1 C1        -10.8650   17.3990   50.7200 C.ar      1 38H         0.0475
      2 N1        -11.3490   19.5290   51.4910 N.2       1 38H        -0.3094
      3 O1         -8.3840   20.4120   48.9210 O.2       1 38H        -0.3704
      4 S1         -9.7460   18.3160   49.8540 S.3       1 38H         0.0300
      5 C2        -11.0230   16.0270   50.6690 C.ar      1 38H        -0.0540
      6 N2         -9.9170   20.9990   50.3370 N.am      1 38H        -0.1896
      7 O2         -1.0850   22.8330   44.6990 O.co2     1 38H        -0.5707
      8 S2         -4.5860   20.3780   47.1360 S.3       1 38H         0.0264
      9 C3        -11.9880   15.4160   51.4570 C.ar      1 38H        -0.0753
     10 N3         -5.5600   22.8930   47.1200 N.pl3     1 38H        -0.2621
     11 O3         -0.2360   20.9730   45.5210 O.co2     1 38H        -0.5707
     12 C4        -12.7690   16.2040   52.3020 C.ar      1 38H        -0.0765
     13 N4         -3.3830   22.5060   46.2430 N.2       1 38H        -0.3239
     14 O4         -1.2170   16.3480   47.3500 O.3       1 38H        -0.3225
     15 C5        -12.5990   17.5870   52.3550 C.ar      1 38H        -0.0646
     16 N5          1.1550   11.5130   46.2160 N.pl3     1 38H        -0.1359
     17 C6        -11.6330   18.1990   51.5610 C.ar      1 38H         0.0067
     18 N6          0.4830   10.2930   46.3430 N.2       1 38H        -0.1794
     19 C7        -10.3080   19.7410   50.6690 C.2       1 38H         0.2112
     20 C8         -8.9910   21.3370   49.4370 C.2       1 38H         0.2405
     21 C9         -8.8490   22.7490   48.9660 C.ar      1 38H         0.0559
     22 C10        -9.9110   23.5890   49.2840 C.ar      1 38H        -0.0546
     23 C11        -9.9620   24.8960   48.8150 C.ar      1 38H        -0.0698
     24 C12        -8.9340   25.3410   47.9930 C.ar      1 38H        -0.0623
     25 C13        -7.9060   24.4870   47.6200 C.ar      1 38H        -0.0311
     26 C14        -7.8480   23.1890   48.1060 C.ar      1 38H         0.0031
     27 C15        -6.7190   22.2660   47.6970 C.3       1 38H         0.0694
     28 C16        -5.4850   24.3410   46.9870 C.3       1 38H         0.0452
     29 C17        -6.8230   25.0130   46.7100 C.3       1 38H         0.0005
     30 C18        -4.5290   22.0840   46.8140 C.2       1 38H         0.1787
     31 C19        -2.5010   21.5070   46.0550 C.2       1 38H         0.0254
     32 C20        -1.1810   21.7890   45.4020 C.2       1 38H         0.0436
     33 C21        -2.9890   20.2610   46.4750 C.2       1 38H         0.0359
     34 C22        -2.2860   18.9190   46.4260 C.3       1 38H        -0.0056
     35 C23        -1.4500   18.6860   47.7000 C.3       1 38H        -0.0144
     36 C24        -0.4580   17.5570   47.5080 C.3       1 38H         0.0708
     37 C25        -0.6560   15.1350   47.0610 C.ar      1 38H         0.0838
     38 C26        -1.4040   14.0040   46.7760 C.ar      1 38H        -0.0374
     39 C27        -0.7610   12.8020   46.5040 C.ar      1 38H        -0.0351
     40 C28         0.6260   12.7090   46.5250 C.ar      1 38H         0.1014
     41 C29         1.3850   13.8500   46.8080 C.ar      1 38H        -0.0351
     42 C30         0.7370   15.0570   47.0870 C.ar      1 38H        -0.0374
     43 C31         1.2830    9.3050   45.8950 C.2       1 38H         0.0384
     44 C32         2.4800    9.9570   45.4540 C.ar      1 38H         0.0635
     45 C33         3.6370    9.4290   44.8960 C.ar      1 38H         0.0267
     46 C34         4.4780   11.5570   44.7720 C.ar      1 38H         0.0765
     47 C35         2.3690   11.3430   45.6580 C.ar      1 38H         0.1920
     48 N8          3.4070   12.1490   45.3010 N.ar      1 38H        -0.2438
     49 N7          4.6420   10.2460   44.5600 N.ar      1 38H        -0.2755
     50 H         -10.3958   15.4307   50.0162 H         1 38H         0.0554
     51 H         -10.3702   21.7502   50.8170 H         1 38H         0.2442
     52 H         -12.1326   14.3425   51.4164 H         1 38H         0.0527
     53 H         -13.5197   15.7342   52.9272 H         1 38H         0.0543
     54 H         -13.2183   18.1850   53.0137 H         1 38H         0.0529
     55 H         -10.7142   23.2169   49.9097 H         1 38H         0.0593
     56 H         -10.7826   25.5515   49.0835 H         1 38H         0.0554
     57 H          -8.9351   26.3657   47.6395 H         1 38H         0.0573
     58 H          -6.3924   21.7185   48.5934 H         1 38H         0.0690
     59 H          -7.1182   21.5553   46.9584 H         1 38H         0.0690
     60 H          -4.8026   24.5762   46.1569 H         1 38H         0.0550
     61 H          -5.0795   24.7528   47.9230 H         1 38H         0.0550
     62 H          -6.7182   26.0965   46.8685 H         1 38H         0.0432
     63 H          -7.1096   24.8212   45.6655 H         1 38H         0.0432
     64 H          -1.6213   18.8930   45.5500 H         1 38H         0.0444
     65 H          -3.0387   18.1216   46.3390 H         1 38H         0.0444
     66 H          -2.1253   18.4324   48.5304 H         1 38H         0.0315
     67 H          -0.9011   19.6080   47.9422 H         1 38H         0.0315
     68 H           0.1517   17.7394   46.6108 H         1 38H         0.0613
     69 H           0.1981   17.4781   48.3874 H         1 38H         0.0613
     70 H          -2.4867   14.0563   46.7652 H         1 38H         0.0526
     71 H          -1.3508   11.9226   46.2717 H         1 38H         0.0552
     72 H           2.4678   13.7984   46.8109 H         1 38H         0.0552
     73 H           1.3209   15.9387   47.3253 H         1 38H         0.0526
     74 H           1.0657    8.2381   45.8730 H         1 38H         0.0758
     75 H           3.7254    8.3609   44.7336 H         1 38H         0.0945
     76 H           5.2994   12.2033   44.4844 H         1 38H         0.1075
@<TRIPOS>BOND
     1    4    1 1  
     2    1    5 ar 
     3    1   17 ar 
     4    2   17 1  
     5   19    2 2  
     6   20    3 2  
     7   19    4 1  
     8    5    9 ar 
     9    6   19 1  
    10   20    6 am 
    11   32    7 ar 
    12    8   30 1  
    13   33    8 1  
    14    9   12 ar 
    15   10   27 1  
    16   10   28 1  
    17   30   10 1  
    18   32   11 ar 
    19   15   12 ar 
    20   13   30 2  
    21   31   13 1  
    22   14   36 1  
    23   37   14 1  
    24   17   15 ar 
    25   16   18 1  
    26   16   40 1  
    27   47   16 1  
    28   43   18 2  
    29   21   20 1  
    30   21   22 ar 
    31   26   21 ar 
    32   22   23 ar 
    33   24   23 ar 
    34   25   24 ar 
    35   26   25 ar 
    36   29   25 1  
    37   27   26 1  
    38   28   29 1  
    39   31   32 1  
    40   33   31 2  
    41   34   33 1  
    42   35   34 1  
    43   36   35 1  
    44   38   37 ar 
    45   42   37 ar 
    46   39   38 ar 
    47   40   39 ar 
    48   40   41 ar 
    49   41   42 ar 
    50   44   43 1  
    51   45   44 ar 
    52   44   47 ar 
    53   49   45 ar 
    54   46   48 ar 
    55   46   49 ar 
    56   47   48 ar 
    57    5   50 1  
    58    6   51 1  
    59    9   52 1  
    60   12   53 1  
    61   15   54 1  
    62   22   55 1  
    63   23   56 1  
    64   24   57 1  
    65   27   58 1  
    66   27   59 1  
    67   28   60 1  
    68   28   61 1  
    69   29   62 1  
    70   29   63 1  
    71   34   64 1  
    72   34   65 1  
    73   35   66 1  
    74   35   67 1  
    75   36   68 1  
    76   36   69 1  
    77   38   70 1  
    78   39   71 1  
    79   41   72 1  
    80   42   73 1  
    81   43   74 1  
    82   45   75 1  
    83   46   76 1  
@<TRIPOS>SUBSTRUCTURE
     1 38H         1

