### 
### Created by X-TOOL on Mon Sep 10 21:13:19 2018
### 

@<TRIPOS>MOLECULE
4tv3_ligand
   58    61     1     0     0
SMALL
GAST_HUCK


@<TRIPOS>ATOM
      1 C14       -16.2770    6.7940   26.9430 C.ar      1 ML9        -0.0474
      2 C15       -15.8980    5.6440   26.2850 C.ar      1 ML9        -0.0069
      3 C18       -14.8680    8.0310   25.4880 C.ar      1 ML9         0.0037
      4 C13       -15.7640    8.0270   26.5540 C.ar      1 ML9        -0.0033
      5 C5        -15.5460   11.4460   28.1800 C.ar      1 ML9         0.0520
      6 C6        -14.6170   12.4730   28.4330 C.ar      1 ML9         0.0317
      7 C4        -16.8820   11.6490   28.6500 C.ar      1 ML9         0.1576
      8 C16       -14.9940    5.7720   25.2350 C.ar      1 ML9         0.1623
      9 C2        -16.2930   13.6830   29.4990 C.ar      1 ML9         0.1652
     10 C10       -15.2730   10.2240   27.5000 C.2       1 ML9        -0.0361
     11 C9        -16.1780    9.2630   27.2740 C.2       1 ML9         0.0510
     12 C8        -17.5640    9.4360   27.7420 C.2       1 ML9         0.2243
     13 C23       -20.2250   11.3090   27.8610 C.3       1 ML9        -0.0196
     14 C27       -19.7200    9.9690   29.9710 C.3       1 ML9        -0.0196
     15 C24       -21.5730   11.7180   28.4750 C.3       1 ML9        -0.0238
     16 C26       -21.0600   10.4170   30.5610 C.3       1 ML9        -0.0238
     17 C22       -19.2040   10.9950   28.9580 C.3       1 ML9         0.0763
     18 C25       -22.0770   10.6890   29.4710 C.3       1 ML9         0.0590
     19 C21       -13.1800   12.4220   28.0090 C.3       1 ML9        -0.0118
     20 C20       -13.7380    4.6690   23.5470 C.3       1 ML9         0.0628
     21 C30       -25.0370    9.6250   29.0890 C.3       1 ML9         0.0676
     22 C29       -24.2870   10.0920   30.3110 C.3       1 ML9         0.0711
     23 N17       -14.4790    6.9250   24.8280 N.ar      1 ML9        -0.2760
     24 N1        -15.0090   13.5760   29.0900 N.ar      1 ML9        -0.2669
     25 N3        -17.2600   12.7570   29.3050 N.ar      1 ML9        -0.2446
     26 N7        -17.8470   10.6720   28.4320 N.am      1 ML9        -0.1936
     27 N12       -16.6370   14.8000   30.1510 N.pl3     1 ML9        -0.3057
     28 O11       -18.4420    8.5960   27.5670 O.2       1 ML9        -0.3958
     29 O31       -25.4990   10.7130   28.2960 O.3       1 ML9        -0.3927
     30 O19       -14.6590    4.6150   24.6310 O.3       1 ML9        -0.3034
     31 O28       -23.3190   11.1150   30.0480 O.3       1 ML9        -0.3743
     32 H         -16.9783    6.7374   27.7677 H         1 ML9         0.0682
     33 H         -16.2896    4.6756   26.5747 H         1 ML9         0.0631
     34 H         -14.4590    8.9834   25.1706 H         1 ML9         0.0767
     35 H         -14.2586   10.0602   27.1392 H         1 ML9         0.0706
     36 H         -19.8457   12.1340   27.2402 H         1 ML9         0.0296
     37 H         -20.3692   10.4157   27.2355 H         1 ML9         0.0296
     38 H         -19.8531    9.0001   29.4675 H         1 ML9         0.0296
     39 H         -18.9856    9.8625   30.7829 H         1 ML9         0.0296
     40 H         -22.3134   11.8246   27.6685 H         1 ML9         0.0291
     41 H         -21.4511   12.6820   28.9906 H         1 ML9         0.0291
     42 H         -20.9053   11.3366   31.1445 H         1 ML9         0.0291
     43 H         -21.4443    9.6247   31.2202 H         1 ML9         0.0291
     44 H         -19.0827   11.9311   29.5228 H         1 ML9         0.0655
     45 H         -22.2535    9.7489   28.9278 H         1 ML9         0.0596
     46 H         -12.6711   13.3441   28.3264 H         1 ML9         0.0457
     47 H         -13.1237   12.3304   26.9143 H         1 ML9         0.0457
     48 H         -12.6907   11.5542   28.4752 H         1 ML9         0.0457
     49 H         -13.5657    3.6533   23.1614 H         1 ML9         0.0583
     50 H         -12.7858    5.0952   23.8957 H         1 ML9         0.0583
     51 H         -14.1508    5.3001   22.7462 H         1 ML9         0.0583
     52 H         -25.9030    9.0280   29.4109 H         1 ML9         0.0580
     53 H         -24.3676    9.0007   28.4790 H         1 ML9         0.0580
     54 H         -23.7658    9.2274   30.7478 H         1 ML9         0.0583
     55 H         -25.0163   10.4845   31.0349 H         1 ML9         0.0583
     56 H         -15.9344   15.5335   30.3222 H         1 ML9         0.1844
     57 H         -17.6043   14.9262   30.4816 H         1 ML9         0.1844
     58 H         -24.7567   11.2312   28.0081 H         1 ML9         0.2095
@<TRIPOS>BOND
     1    1    2 ar 
     2    4    1 ar 
     3    2    8 ar 
     4    4    3 ar 
     5    3   23 ar 
     6   11    4 1  
     7    5    6 ar 
     8    7    5 ar 
     9    5   10 1  
    10    6   19 1  
    11    6   24 ar 
    12    7   25 ar 
    13   26    7 1  
    14   23    8 ar 
    15    8   30 1  
    16    9   24 ar 
    17   25    9 ar 
    18    9   27 1  
    19   11   10 2  
    20   12   11 1  
    21   26   12 am 
    22   12   28 2  
    23   15   13 1  
    24   13   17 1  
    25   16   14 1  
    26   14   17 1  
    27   18   15 1  
    28   18   16 1  
    29   17   26 1  
    30   31   18 1  
    31   30   20 1  
    32   22   21 1  
    33   21   29 1  
    34   22   31 1  
    35    1   32 1  
    36    2   33 1  
    37    3   34 1  
    38   10   35 1  
    39   13   36 1  
    40   13   37 1  
    41   14   38 1  
    42   14   39 1  
    43   15   40 1  
    44   15   41 1  
    45   16   42 1  
    46   16   43 1  
    47   17   44 1  
    48   18   45 1  
    49   19   46 1  
    50   19   47 1  
    51   19   48 1  
    52   20   49 1  
    53   20   50 1  
    54   20   51 1  
    55   21   52 1  
    56   21   53 1  
    57   22   54 1  
    58   22   55 1  
    59   27   56 1  
    60   27   57 1  
    61   29   58 1  
@<TRIPOS>SUBSTRUCTURE
     1 ML9         1

