### 
### Created by X-TOOL on Mon Sep 10 21:13:23 2018
### 

@<TRIPOS>MOLECULE
4tvj_ligand
   53    57     1     0     0
SMALL
GAST_HUCK


@<TRIPOS>ATOM
      1 CAJ        16.4020   -7.5350   12.6810 C.2       1 09L        -0.0573
      2 CAK        17.6490   -7.4050   13.2830 C.2       1 09L        -0.0573
      3 CAI        16.7570   -6.1920   13.2670 C.3       1 09L         0.0862
      4 CAL        16.2000   -5.8620   14.6610 C.2       1 09L         0.1871
      5 OAB        15.2570   -6.5140   15.1140 O.2       1 09L        -0.4001
      6 NAE        16.8100   -4.8650   15.3620 N.am      1 09L        -0.2696
      7 CAM        17.9820   -4.1070   14.8650 C.3       1 09L         0.0539
      8 CAO        19.1900   -4.2450   15.7390 C.3       1 09L         0.0536
      9 CAN        16.3570   -4.6520   16.7490 C.3       1 09L         0.0539
     10 CAP        17.5990   -4.8690   17.5860 C.3       1 09L         0.0536
     11 NAF        18.6990   -4.0190   17.1200 N.am      1 09L        -0.2693
     12 CAQ        19.0550   -2.9570   17.8950 C.2       1 09L         0.2053
     13 OAC        18.5530   -2.8790   19.0210 O.2       1 09L        -0.3868
     14 CAR        20.1040   -2.0070   17.5910 C.ar      1 09L         0.0771
     15 CAS        19.8210   -0.6330   17.5700 C.ar      1 09L        -0.0404
     16 CAU        21.4230   -2.4090   17.3800 C.ar      1 09L         0.1461
     17 FAA        21.7420   -3.7090   17.3940 F         1 09L        -0.1830
     18 CAX        22.4100   -1.4750   17.1640 C.ar      1 09L        -0.0285
     19 CAW        22.1250   -0.0880   17.1600 C.ar      1 09L        -0.0558
     20 CAT        20.8210    0.3620   17.3710 C.ar      1 09L        -0.0303
     21 CAV        20.5120    1.7440   17.3360 C.3       1 09L         0.0254
     22 CAY        19.4670    2.1180   18.3150 C.2       1 09L         0.0655
     23 CAZ        19.7400    2.4230   19.6360 C.ar      1 09L         0.0126
     24 CBB        21.0490    2.3710   20.1340 C.ar      1 09L        -0.0505
     25 CBE        21.3450    2.6590   21.4580 C.ar      1 09L        -0.0598
     26 CBF        20.2880    2.9740   22.3220 C.ar      1 09L        -0.0589
     27 CBD        18.9830    3.0070   21.8430 C.ar      1 09L        -0.0440
     28 CBA        18.6890    2.7420   20.5210 C.ar      1 09L         0.0610
     29 CBC        17.3780    2.8200   20.0520 C.2       1 09L         0.2361
     30 OAD        16.4090    3.1240   20.7760 O.2       1 09L        -0.3937
     31 NAH        17.1870    2.5200   18.7000 N.am      1 09L        -0.1719
     32 NAG        18.2000    2.2090   17.8930 N.2       1 09L        -0.1830
     33 H1         15.6812   -8.1617   12.1579 H         1 09L         0.0613
     34 H2         18.5978   -7.8587   13.5656 H         1 09L         0.0613
     35 H3         16.9287   -5.2980   12.6495 H         1 09L         0.0640
     36 H4         17.7112   -3.0423   14.8091 H         1 09L         0.0542
     37 H5         18.2347   -4.4744   13.8594 H         1 09L         0.0542
     38 H6         19.9476   -3.4938   15.4713 H         1 09L         0.0542
     39 H7         19.6223   -5.2520   15.6434 H         1 09L         0.0542
     40 H8         15.5741   -5.3761   17.0187 H         1 09L         0.0542
     41 H9         15.9723   -3.6299   16.8806 H         1 09L         0.0542
     42 H10        17.9029   -5.9236   17.5128 H         1 09L         0.0542
     43 H11        17.3740   -4.6242   18.6345 H         1 09L         0.0542
     44 H12        18.7947   -0.3140   17.7116 H         1 09L         0.0600
     45 H13        23.4273   -1.8080   16.9933 H         1 09L         0.0599
     46 H14        22.9225    0.6268   16.9924 H         1 09L         0.0586
     47 H15        20.1573    2.0004   16.3268 H         1 09L         0.0573
     48 H16        21.4251    2.3151   17.5599 H         1 09L         0.0573
     49 H17        21.8554    2.0971   19.4633 H         1 09L         0.0617
     50 H18        22.3683    2.6408   21.8153 H         1 09L         0.0642
     51 H19        20.4877    3.1922   23.3649 H         1 09L         0.0609
     52 H20        18.1759    3.2471   22.5256 H         1 09L         0.0659
     53 H21        16.2595    2.5395   18.3266 H         1 09L         0.2568
@<TRIPOS>BOND
     1    1    2 2  
     2    1    3 1  
     3    2    3 1  
     4    3    4 1  
     5    4    5 2  
     6    4    6 am 
     7    6    7 1  
     8    6    9 1  
     9    7    8 1  
    10    8   11 1  
    11    9   10 1  
    12   10   11 1  
    13   11   12 am 
    14   12   13 2  
    15   12   14 1  
    16   14   15 ar 
    17   14   16 ar 
    18   15   20 ar 
    19   16   17 1  
    20   16   18 ar 
    21   18   19 ar 
    22   19   20 ar 
    23   20   21 1  
    24   21   22 1  
    25   22   23 1  
    26   22   32 2  
    27   23   24 ar 
    28   23   28 ar 
    29   24   25 ar 
    30   25   26 ar 
    31   26   27 ar 
    32   27   28 ar 
    33   28   29 1  
    34   29   30 2  
    35   29   31 am 
    36   31   32 1  
    37    1   33 1  
    38    2   34 1  
    39    3   35 1  
    40    7   36 1  
    41    7   37 1  
    42    8   38 1  
    43    8   39 1  
    44    9   40 1  
    45    9   41 1  
    46   10   42 1  
    47   10   43 1  
    48   15   44 1  
    49   18   45 1  
    50   19   46 1  
    51   21   47 1  
    52   21   48 1  
    53   24   49 1  
    54   25   50 1  
    55   26   51 1  
    56   27   52 1  
    57   31   53 1  
@<TRIPOS>SUBSTRUCTURE
     1 09L         1

