### 
### Created by X-TOOL on Mon Sep 10 21:13:16 2018
### 

@<TRIPOS>MOLECULE
4tw6_ligand
   97   100     1     0     0
SMALL
GAST_HUCK


@<TRIPOS>ATOM
      1 CAD       -12.0260    8.6260   -5.9170 C.3       1 37L         0.0563
      2 OBE       -13.2330    7.8510   -5.6910 O.3       1 37L        -0.3297
      3 CBS       -13.7270    7.1770   -6.7480 C.ar      1 37L         0.1052
      4 CAS       -13.1270    7.1420   -8.0250 C.ar      1 37L        -0.0480
      5 CBU       -14.8480    6.4410   -6.5940 C.ar      1 37L         0.1397
      6 OBG       -15.4760    6.4170   -5.3150 O.3       1 37L        -0.3340
      7 CAF       -16.4710    7.4080   -5.2630 C.3       1 37L         0.0527
      8 CBT       -15.3860    5.7180   -7.5890 C.ar      1 37L         0.1052
      9 OBF       -16.5500    4.9740   -7.3400 O.3       1 37L        -0.3297
     10 CAE       -17.0870    4.2690   -8.4130 C.3       1 37L         0.0563
     11 CAT       -14.7730    5.6620   -8.8580 C.ar      1 37L        -0.0480
     12 CBP       -13.5990    6.3830   -9.0340 C.ar      1 37L        -0.0467
     13 CBW       -12.8610    6.3610  -10.3790 C.3       1 37L         0.0826
     14 CAW       -13.7660    6.9900  -11.4670 C.3       1 37L         0.0026
     15 CAK       -13.0890    7.0260  -12.7530 C.2       1 37L        -0.0851
     16 CAA       -12.9580    8.0880  -13.5540 C.2       1 37L        -0.1172
     17 CBL       -12.5610    4.8840  -10.7520 C.2       1 37L         0.1957
     18 OAI       -13.2960    4.2300  -11.4590 O.2       1 37L        -0.3936
     19 N         -11.4820    4.3190  -10.1820 N.am      1 37L        -0.2486
     20 CBB       -10.6810    4.9460   -9.1570 C.3       1 37L         0.0369
     21 CAV        -9.1790    4.6260   -9.3030 C.3       1 37L        -0.0321
     22 CAU        -8.9370    3.1470   -9.4770 C.3       1 37L        -0.0469
     23 CB         -9.7750    2.5990  -10.5920 C.3       1 37L        -0.0108
     24 CA        -11.2640    2.8870  -10.4110 C.3       1 37L         0.1452
     25 C         -11.7410    1.9980   -9.2400 C.2       1 37L         0.2621
     26 O         -11.4290    0.8430   -9.1930 O.2       1 37L        -0.3676
     27 OBI       -12.5200    2.6020   -8.4000 O.3       1 37L        -0.2586
     28 CBV       -12.8910    1.8630   -7.1420 C.3       1 37L         0.1207
     29 CBA       -14.3520    1.8730   -7.0120 C.3       1 37L        -0.0041
     30 CAY       -14.8860    0.7830   -5.9180 C.3       1 37L        -0.0222
     31 CBM       -14.8370   -0.5780   -6.3670 C.ar      1 37L        -0.0624
     32 CAQ       -15.9390   -0.9570   -7.1850 C.ar      1 37L        -0.0398
     33 CAO       -13.8110   -1.4620   -6.1780 C.ar      1 37L        -0.0801
     34 CAP       -13.7240   -2.7290   -6.7160 C.ar      1 37L        -0.0479
     35 CBQ       -14.7660   -3.1260   -7.5510 C.ar      1 37L         0.1122
     36 OBC       -14.6870   -4.4320   -8.1410 O.3       1 37L        -0.3294
     37 CAB       -13.7390   -5.3640   -7.8060 C.3       1 37L         0.0554
     38 CBR       -15.8350   -2.2310   -7.7230 C.ar      1 37L         0.1132
     39 OBD       -17.0190   -2.7140   -8.4240 O.3       1 37L        -0.3266
     40 CAC       -18.1150   -1.8600   -8.2350 C.3       1 37L         0.0568
     41 CBO       -12.0600    2.4570   -6.0170 C.ar      1 37L        -0.0186
     42 CAR       -11.1050    1.7260   -5.3790 C.ar      1 37L        -0.0293
     43 CAN       -12.2280    3.7990   -5.7390 C.ar      1 37L        -0.0686
     44 CAL       -11.4600    4.3750   -4.7890 C.ar      1 37L        -0.0771
     45 CAM       -10.4830    3.6390   -4.1660 C.ar      1 37L        -0.0399
     46 CBN       -10.3330    2.2750   -4.4440 C.ar      1 37L         0.0868
     47 OBH        -9.3540    1.4870   -3.8910 O.3       1 37L        -0.3057
     48 CAX        -8.4380    2.1140   -3.0260 C.3       1 37L         0.1224
     49 CBJ        -9.0660    2.3530   -1.7600 C.2       1 37L         0.0653
     50 OAJ        -8.3710    3.2440   -1.1650 O.co2     1 37L        -0.5662
     51 OAG       -10.1460    1.8370   -1.3540 O.co2     1 37L        -0.5662
     52 H         -11.7295    9.1238   -4.9820 H         1 37L         0.0572
     53 H         -12.2163    9.3837   -6.6914 H         1 37L         0.0572
     54 H         -11.2178    7.9576   -6.2487 H         1 37L         0.0572
     55 H         -12.2485    7.7519   -8.2020 H         1 37L         0.0369
     56 H         -16.9557    7.3894   -4.2757 H         1 37L         0.0565
     57 H         -17.2216    7.2153   -6.0436 H         1 37L         0.0565
     58 H         -16.0146    8.3950   -5.4288 H         1 37L         0.0565
     59 H         -17.9898    3.7331   -8.0846 H         1 37L         0.0572
     60 H         -16.3460    3.5457   -8.7842 H         1 37L         0.0572
     61 H         -17.3497    4.9708   -9.2182 H         1 37L         0.0572
     62 H         -15.2016    5.0787   -9.6649 H         1 37L         0.0369
     63 H         -11.9212    6.9275  -10.3018 H         1 37L         0.0698
     64 H         -14.0261    8.0164  -11.1689 H         1 37L         0.0489
     65 H         -14.6842    6.3916  -11.5609 H         1 37L         0.0489
     66 H         -12.6439    6.0941  -13.0984 H         1 37L         0.0675
     67 H         -12.4265    7.9943  -14.4999 H         1 37L         0.0290
     68 H         -13.3828    9.0469  -13.2607 H         1 37L         0.0290
     69 H         -11.0236    4.5898   -8.1743 H         1 37L         0.0524
     70 H         -10.8173    6.0357   -9.2200 H         1 37L         0.0524
     71 H          -8.6521    4.9695   -8.4006 H         1 37L         0.0285
     72 H          -8.7853    5.1573  -10.1820 H         1 37L         0.0285
     73 H          -9.1949    2.6268   -8.5427 H         1 37L         0.0268
     74 H          -7.8747    2.9800   -9.7085 H         1 37L         0.0268
     75 H          -9.6309    1.5094  -10.6370 H         1 37L         0.0314
     76 H          -9.4419    3.0523  -11.5373 H         1 37L         0.0314
     77 H         -11.8083    2.5988  -11.3224 H         1 37L         0.0819
     78 H         -12.5896    0.8099   -7.2426 H         1 37L         0.0814
     79 H         -14.7956    1.6379   -7.9907 H         1 37L         0.0336
     80 H         -14.6720    2.8768   -6.6959 H         1 37L         0.0336
     81 H         -15.9298    1.0265   -5.6706 H         1 37L         0.0406
     82 H         -14.2651    0.8698   -5.0142 H         1 37L         0.0406
     83 H         -16.7858   -0.3063   -7.3711 H         1 37L         0.0450
     84 H         -12.9910   -1.1373   -5.5477 H         1 37L         0.0436
     85 H         -12.8869   -3.3830   -6.5000 H         1 37L         0.0493
     86 H         -13.8968   -6.2769   -8.3990 H         1 37L         0.0570
     87 H         -13.8221   -5.6032   -6.7356 H         1 37L         0.0570
     88 H         -12.7375   -4.9597   -8.0147 H         1 37L         0.0570
     89 H         -18.9863   -2.2562   -8.7771 H         1 37L         0.0573
     90 H         -17.8696   -0.8583   -8.6176 H         1 37L         0.0573
     91 H         -18.3490   -1.7956   -7.1621 H         1 37L         0.0573
     92 H         -10.9714    0.6815   -5.6363 H         1 37L         0.0479
     93 H         -12.9667    4.3827   -6.2763 H         1 37L         0.0465
     94 H         -11.6144    5.4136   -4.5198 H         1 37L         0.0572
     95 H          -9.8220    4.1179   -3.4527 H         1 37L         0.0486
     96 H          -8.1167    3.0711   -3.4628 H         1 37L         0.0785
     97 H          -7.5625    1.4633   -2.8843 H         1 37L         0.0785
@<TRIPOS>BOND
     1    1    2 1  
     2    2    3 1  
     3    3    4 ar 
     4    3    5 ar 
     5    4   12 ar 
     6    5    6 1  
     7    5    8 ar 
     8    6    7 1  
     9    8    9 1  
    10    8   11 ar 
    11    9   10 1  
    12   11   12 ar 
    13   12   13 1  
    14   13   14 1  
    15   13   17 1  
    16   14   15 1  
    17   15   16 2  
    18   17   18 2  
    19   17   19 am 
    20   19   20 1  
    21   19   24 1  
    22   20   21 1  
    23   21   22 1  
    24   22   23 1  
    25   23   24 1  
    26   24   25 1  
    27   25   26 2  
    28   25   27 1  
    29   27   28 1  
    30   28   29 1  
    31   28   41 1  
    32   29   30 1  
    33   30   31 1  
    34   31   32 ar 
    35   31   33 ar 
    36   32   38 ar 
    37   33   34 ar 
    38   34   35 ar 
    39   35   36 1  
    40   35   38 ar 
    41   36   37 1  
    42   38   39 1  
    43   39   40 1  
    44   41   42 ar 
    45   41   43 ar 
    46   42   46 ar 
    47   43   44 ar 
    48   44   45 ar 
    49   45   46 ar 
    50   46   47 1  
    51   47   48 1  
    52   48   49 1  
    53   49   50 ar 
    54   49   51 ar 
    55    1   52 1  
    56    1   53 1  
    57    1   54 1  
    58    4   55 1  
    59    7   56 1  
    60    7   57 1  
    61    7   58 1  
    62   10   59 1  
    63   10   60 1  
    64   10   61 1  
    65   11   62 1  
    66   13   63 1  
    67   14   64 1  
    68   14   65 1  
    69   15   66 1  
    70   16   67 1  
    71   16   68 1  
    72   20   69 1  
    73   20   70 1  
    74   21   71 1  
    75   21   72 1  
    76   22   73 1  
    77   22   74 1  
    78   23   75 1  
    79   23   76 1  
    80   24   77 1  
    81   28   78 1  
    82   29   79 1  
    83   29   80 1  
    84   30   81 1  
    85   30   82 1  
    86   32   83 1  
    87   33   84 1  
    88   34   85 1  
    89   37   86 1  
    90   37   87 1  
    91   37   88 1  
    92   40   89 1  
    93   40   90 1  
    94   40   91 1  
    95   42   92 1  
    96   43   93 1  
    97   44   94 1  
    98   45   95 1  
    99   48   96 1  
   100   48   97 1  
@<TRIPOS>SUBSTRUCTURE
     1 37L         1

