### 
### Created by X-TOOL on Mon Sep 10 21:13:16 2018
### 

@<TRIPOS>MOLECULE
4tw7_ligand
  119   124     1     0     0
SMALL
GAST_HUCK


@<TRIPOS>ATOM
      1 CBE        15.2590   -2.2620   19.9370 C.3       1 37K        -0.0077
      2 CAW        16.4410   -3.1470   19.6580 C.3       1 37K         0.0878
      3 OBM        17.4710   -2.8570   20.5490 O.3       1 37K        -0.3693
      4 CAX        17.8810   -1.4890   20.3570 C.3       1 37K         0.0878
      5 CBF        16.7200   -0.5680   20.6980 C.3       1 37K        -0.0077
      6 NCE        15.6670   -0.8560   19.7820 N.4       1 37K         0.2404
      7 CBG        14.4990    0.0840   20.0340 C.3       1 37K        -0.0033
      8 CAY        13.4340   -0.0230   18.9990 C.3       1 37K         0.1099
      9 OBN        13.8930    0.4820   17.8360 O.3       1 37K        -0.3145
     10 CBS        13.0580    0.5440   16.7470 C.ar      1 37K         0.0848
     11 CAO        13.6040    1.0620   15.5980 C.ar      1 37K        -0.0295
     12 CAK        11.7450    0.1220   16.7950 C.ar      1 37K        -0.0401
     13 CAJ        10.9660    0.2370   15.6370 C.ar      1 37K        -0.0771
     14 CAL        11.5300    0.7600   14.5010 C.ar      1 37K        -0.0686
     15 CBT        12.8520    1.1670   14.4510 C.ar      1 37K        -0.0186
     16 CCB        13.3730    1.7310   13.1580 C.3       1 37K         0.1207
     17 CBC        13.3070    0.7030   12.0070 C.3       1 37K        -0.0041
     18 CAZ        14.4680   -0.2840   12.1390 C.3       1 37K        -0.0222
     19 CBR        15.8060    0.2970   11.7580 C.ar      1 37K        -0.0624
     20 CAP        16.0850    0.4770   10.4330 C.ar      1 37K        -0.0398
     21 CAM        16.7060    0.6440   12.6890 C.ar      1 37K        -0.0801
     22 CAN        17.9220    1.2110   12.2740 C.ar      1 37K        -0.0479
     23 CBV        18.1940    1.4600   10.9290 C.ar      1 37K         0.1122
     24 OBH        19.3720    1.9880   10.4530 O.3       1 37K        -0.3294
     25 CAA        20.3390    1.9480   11.4310 C.3       1 37K         0.0554
     26 CBW        17.2880    1.0640    9.9970 C.ar      1 37K         0.1132
     27 OBI        17.6070    1.3190    8.6620 O.3       1 37K        -0.3266
     28 CAB        17.2590    0.0750    8.0170 C.3       1 37K         0.0568
     29 OBO        12.4940    2.8880   12.8310 O.3       1 37K        -0.2586
     30 C          13.0580    4.0810   12.6450 C.2       1 37K         0.2621
     31 O          14.2740    4.2410   12.6380 O.2       1 37K        -0.3676
     32 CA         12.0870    5.2420   12.4310 C.3       1 37K         0.1452
     33 CB         12.4030    6.2400   13.5200 C.3       1 37K        -0.0108
     34 CAU        11.9150    5.7410   14.8850 C.3       1 37K        -0.0469
     35 CAV        10.4430    5.5190   14.8680 C.3       1 37K        -0.0321
     36 CBD        10.0860    4.4970   13.7690 C.3       1 37K         0.0369
     37 N          10.6910    4.8390   12.4390 N.am      1 37K        -0.2486
     38 CBQ        10.1420    4.5760   11.2130 C.2       1 37K         0.1954
     39 OAG        10.7390    4.7380   10.1890 O.2       1 37K        -0.3936
     40 CCD         8.7520    3.9690   11.1960 C.3       1 37K         0.0817
     41 CCA         8.0650    4.3350    9.8100 C.3       1 37K         0.0031
     42 CBA         6.7510    3.6360    9.6130 C.3       1 37K        -0.0381
     43 CAT         5.8290    4.1240    8.6090 C.3       1 37K        -0.0443
     44 CAS         5.6110    5.6030    8.5160 C.3       1 37K        -0.0363
     45 CAH         6.8100    6.3270    8.8470 C.2       1 37K        -0.0981
     46 CAI         7.8630    5.8610    9.6640 C.2       1 37K        -0.0914
     47 CBU         8.8080    2.4920   11.4480 C.ar      1 37K        -0.0469
     48 CAR         8.1070    1.9270   12.4800 C.ar      1 37K        -0.0480
     49 CAQ         9.5390    1.7270   10.5360 C.ar      1 37K        -0.0480
     50 CBX         9.5870    0.3250   10.7340 C.ar      1 37K         0.1052
     51 OBJ        10.2580   -0.5390    9.8990 O.3       1 37K        -0.3297
     52 CAC        10.8500   -0.0110    8.8180 C.3       1 37K         0.0563
     53 CBZ         8.8810   -0.2590   11.7870 C.ar      1 37K         0.1397
     54 OBL         8.8980   -1.6410   11.8950 O.3       1 37K        -0.3340
     55 CAE        10.0320   -2.1270   12.6590 C.3       1 37K         0.0527
     56 CBY         8.1570    0.4980   12.6570 C.ar      1 37K         0.1052
     57 OBK         7.5260   -0.1590   13.6890 O.3       1 37K        -0.3297
     58 CAD         6.8230    0.6250   14.5700 C.3       1 37K         0.0563
     59 H          14.9049   -2.4323   20.9644 H         1 37K         0.0837
     60 H          14.4503   -2.4918   19.2276 H         1 37K         0.0837
     61 H          16.7900   -2.9758   18.6290 H         1 37K         0.0613
     62 H          16.1439   -4.1997   19.7742 H         1 37K         0.0613
     63 H          18.1759   -1.3367   19.3083 H         1 37K         0.0613
     64 H          18.7341   -1.2646   21.0141 H         1 37K         0.0613
     65 H          17.0304    0.4824   20.5964 H         1 37K         0.0837
     66 H          16.3832   -0.7528   21.7287 H         1 37K         0.0837
     67 H          15.9996   -0.7152   18.8410 H         1 37K         0.2036
     68 H          14.8761    1.1173   20.0437 H         1 37K         0.0841
     69 H          14.0609   -0.1557   21.0141 H         1 37K         0.0841
     70 H          12.5486    0.5441   19.3222 H         1 37K         0.0667
     71 H          13.1618   -1.0796   18.8592 H         1 37K         0.0667
     72 H          14.6369    1.3910   15.5951 H         1 37K         0.0479
     73 H          11.3268   -0.2885   17.7069 H         1 37K         0.0486
     74 H           9.9304   -0.0832   15.6382 H         1 37K         0.0572
     75 H          10.9187    0.8580   13.6112 H         1 37K         0.0465
     76 H          14.4135    2.0634   13.2878 H         1 37K         0.0814
     77 H          13.3789    1.2270   11.0425 H         1 37K         0.0336
     78 H          12.3536    0.1567   12.0573 H         1 37K         0.0336
     79 H          14.2660   -1.1465   11.4869 H         1 37K         0.0406
     80 H          14.5208   -0.6197   13.1852 H         1 37K         0.0406
     81 H          15.3580    0.1582    9.6948 H         1 37K         0.0450
     82 H          16.4991    0.4899   13.7419 H         1 37K         0.0436
     83 H          18.6688    1.4617   13.0187 H         1 37K         0.0493
     84 H          21.2750    2.3724   11.0387 H         1 37K         0.0570
     85 H          20.5090    0.9050   11.7362 H         1 37K         0.0570
     86 H          20.0062    2.5347   12.2999 H         1 37K         0.0570
     87 H          17.4682    0.1495    6.9397 H         1 37K         0.0573
     88 H          16.1891   -0.1303    8.1694 H         1 37K         0.0573
     89 H          17.8545   -0.7420    8.4505 H         1 37K         0.0573
     90 H          12.2929    5.7009   11.4527 H         1 37K         0.0819
     91 H          11.9069    7.1939   13.2880 H         1 37K         0.0314
     92 H          13.4914    6.3934   13.5618 H         1 37K         0.0314
     93 H          12.1583    6.4911   15.6519 H         1 37K         0.0268
     94 H          12.4203    4.7939   15.1251 H         1 37K         0.0268
     95 H           9.9316    6.4710   14.6625 H         1 37K         0.0285
     96 H          10.1198    5.1327   15.8459 H         1 37K         0.0285
     97 H           8.9919    4.4658   13.6599 H         1 37K         0.0524
     98 H          10.4521    3.5067   14.0775 H         1 37K         0.0524
     99 H           8.1602    4.4238   12.0040 H         1 37K         0.0694
    100 H           8.7438    4.0043    9.0101 H         1 37K         0.0470
    101 H           6.2223    3.6703   10.5770 H         1 37K         0.0292
    102 H           6.9794    2.5909    9.3570 H         1 37K         0.0292
    103 H           4.8515    3.6610    8.8095 H         1 37K         0.0286
    104 H           6.2012    3.7858    7.6307 H         1 37K         0.0286
    105 H           4.8124    5.8927    9.2147 H         1 37K         0.0388
    106 H           5.3100    5.8576    7.4891 H         1 37K         0.0388
    107 H           6.9148    7.3269    8.4285 H         1 37K         0.0450
    108 H           8.5185    6.5610   10.1800 H         1 37K         0.0456
    109 H           7.5238    2.5451   13.1530 H         1 37K         0.0369
    110 H          10.0535    2.1916    9.7027 H         1 37K         0.0369
    111 H          11.3450   -0.8087    8.2447 H         1 37K         0.0572
    112 H          11.5978    0.7308    9.1350 H         1 37K         0.0572
    113 H          10.0929    0.4779    8.1874 H         1 37K         0.0572
    114 H           9.9948   -3.2251   12.7121 H         1 37K         0.0565
    115 H           9.9952   -1.7093   13.6759 H         1 37K         0.0565
    116 H          10.9657   -1.8152   12.1681 H         1 37K         0.0565
    117 H           6.3675   -0.0107   15.3436 H         1 37K         0.0572
    118 H           6.0333    1.1670   14.0290 H         1 37K         0.0572
    119 H           7.5049    1.3468   15.0433 H         1 37K         0.0572
@<TRIPOS>BOND
     1    1    2 1  
     2    1    6 1  
     3    2    3 1  
     4    3    4 1  
     5    4    5 1  
     6    5    6 1  
     7    6    7 1  
     8    7    8 1  
     9    8    9 1  
    10    9   10 1  
    11   10   11 ar 
    12   10   12 ar 
    13   11   15 ar 
    14   12   13 ar 
    15   13   14 ar 
    16   14   15 ar 
    17   15   16 1  
    18   16   17 1  
    19   16   29 1  
    20   17   18 1  
    21   18   19 1  
    22   19   20 ar 
    23   19   21 ar 
    24   20   26 ar 
    25   21   22 ar 
    26   22   23 ar 
    27   23   24 1  
    28   23   26 ar 
    29   24   25 1  
    30   26   27 1  
    31   27   28 1  
    32   29   30 1  
    33   30   31 2  
    34   30   32 1  
    35   32   33 1  
    36   32   37 1  
    37   33   34 1  
    38   34   35 1  
    39   35   36 1  
    40   36   37 1  
    41   37   38 am 
    42   38   39 2  
    43   38   40 1  
    44   40   41 1  
    45   40   47 1  
    46   41   42 1  
    47   41   46 1  
    48   42   43 1  
    49   43   44 1  
    50   44   45 1  
    51   45   46 2  
    52   47   48 ar 
    53   47   49 ar 
    54   48   56 ar 
    55   49   50 ar 
    56   50   51 1  
    57   50   53 ar 
    58   51   52 1  
    59   53   54 1  
    60   53   56 ar 
    61   54   55 1  
    62   56   57 1  
    63   57   58 1  
    64    1   59 1  
    65    1   60 1  
    66    2   61 1  
    67    2   62 1  
    68    4   63 1  
    69    4   64 1  
    70    5   65 1  
    71    5   66 1  
    72    6   67 1  
    73    7   68 1  
    74    7   69 1  
    75    8   70 1  
    76    8   71 1  
    77   11   72 1  
    78   12   73 1  
    79   13   74 1  
    80   14   75 1  
    81   16   76 1  
    82   17   77 1  
    83   17   78 1  
    84   18   79 1  
    85   18   80 1  
    86   20   81 1  
    87   21   82 1  
    88   22   83 1  
    89   25   84 1  
    90   25   85 1  
    91   25   86 1  
    92   28   87 1  
    93   28   88 1  
    94   28   89 1  
    95   32   90 1  
    96   33   91 1  
    97   33   92 1  
    98   34   93 1  
    99   34   94 1  
   100   35   95 1  
   101   35   96 1  
   102   36   97 1  
   103   36   98 1  
   104   40   99 1  
   105   41  100 1  
   106   42  101 1  
   107   42  102 1  
   108   43  103 1  
   109   43  104 1  
   110   44  105 1  
   111   44  106 1  
   112   45  107 1  
   113   46  108 1  
   114   48  109 1  
   115   49  110 1  
   116   52  111 1  
   117   52  112 1  
   118   52  113 1  
   119   55  114 1  
   120   55  115 1  
   121   55  116 1  
   122   58  117 1  
   123   58  118 1  
   124   58  119 1  
@<TRIPOS>SUBSTRUCTURE
     1 37K         1

