### 
### Created by X-TOOL on Mon Sep 10 21:13:19 2018
### 

@<TRIPOS>MOLECULE
4tw8_ligand
  131   138     1     0     0
SMALL
GAST_HUCK


@<TRIPOS>ATOM
      1 CCR         6.7510  -22.9770   60.2560 C.2       1 37M        -0.0175
      2 CCU         6.2960  -23.7470   59.1870 C.2       1 37M         0.0368
      3 CBA         7.0990  -24.7720   58.6680 C.2       1 37M        -0.0483
      4 CAY         6.6420  -25.5470   57.6010 C.2       1 37M        -0.0364
      5 CCS         5.3830  -25.2950   57.0450 C.2       1 37M         0.0661
      6 OAJ         4.9780  -25.9760   56.1040 O.2       1 37M        -0.4446
      7 CBF         4.5750  -24.2750   57.5510 C.2       1 37M        -0.0201
      8 CCT         5.0330  -23.5070   58.6210 C.2       1 37M         0.1284
      9 OBZ         4.2540  -22.5000   59.1300 O.3       1 37M        -0.2386
     10 CCW         4.6150  -21.8530   60.2850 C.ar      1 37M         0.1547
     11 CCV         5.8700  -22.0850   60.8530 C.ar      1 37M         0.0360
     12 CAZ         6.2240  -21.4170   62.0240 C.ar      1 37M        -0.0542
     13 CAX         5.3230  -20.5270   62.6120 C.ar      1 37M        -0.0321
     14 CCF         4.0710  -20.3020   62.0280 C.ar      1 37M         0.1007
     15 OAL         3.1700  -19.4330   62.5800 O.3       1 37M        -0.3298
     16 CCP         3.6960  -20.9650   60.8500 C.ar      1 37M         0.0607
     17 CBL         2.4460  -20.7520   60.2490 C.3       1 37M         0.0646
     18 NBR         2.6250  -19.9120   59.0490 N.am      1 37M        -0.2767
     19 CCB         1.7240  -19.8050   58.0570 C.2       1 37M         0.2083
     20 OAG         0.6380  -20.3820   58.0300 O.2       1 37M        -0.3940
     21 CBM         2.1420  -18.8700   56.9180 C.3       1 37M         0.1589
     22 OBX         2.0240  -19.5390   55.6540 O.3       1 37M        -0.2994
     23 CCG         3.1960  -20.0340   55.1610 C.ar      1 37M         0.0877
     24 CBC         4.4440  -19.5790   55.6120 C.ar      1 37M        -0.0292
     25 CAR         3.1380  -21.0160   54.1780 C.ar      1 37M        -0.0399
     26 CAQ         4.3240  -21.5340   53.6610 C.ar      1 37M        -0.0771
     27 CAT         5.5670  -21.0810   54.1120 C.ar      1 37M        -0.0686
     28 CCH         5.6410  -20.1030   55.1090 C.ar      1 37M        -0.0186
     29 CCY         6.8860  -19.5950   55.5740 C.3       1 37M         0.1207
     30 CBP         7.8110  -20.6200   56.3060 C.3       1 37M        -0.0041
     31 CBK         7.5360  -20.7240   57.8280 C.3       1 37M        -0.0222
     32 CCE         8.3980  -20.0130   58.7130 C.ar      1 37M        -0.0624
     33 CBB         9.8010  -19.9440   58.6000 C.ar      1 37M        -0.0398
     34 CAS         7.7960  -19.3590   59.7880 C.ar      1 37M        -0.0801
     35 CAW         8.5380  -18.6380   60.7240 C.ar      1 37M        -0.0479
     36 CCJ         9.9270  -18.5670   60.6110 C.ar      1 37M         0.1122
     37 OBS        10.7160  -17.8680   61.4990 O.3       1 37M        -0.3294
     38 CAA        10.5930  -18.3010   62.8920 C.3       1 37M         0.0554
     39 CCK        10.5660  -19.2230   59.5470 C.ar      1 37M         0.1132
     40 OBT        11.9410  -19.1060   59.4730 O.3       1 37M        -0.3266
     41 CAB        12.6930  -20.0060   60.3110 C.3       1 37M         0.0568
     42 OBY         7.5950  -19.0090   54.4460 O.3       1 37M        -0.2586
     43 C           7.5410  -17.6390   54.3670 C.2       1 37M         0.2621
     44 O           7.2860  -16.9080   55.3240 O.2       1 37M        -0.3676
     45 CA          7.8560  -17.0780   53.1110 C.3       1 37M         0.1451
     46 CB          7.1150  -15.7500   52.9060 C.3       1 37M        -0.0108
     47 CBI         5.6330  -16.0230   52.6680 C.3       1 37M        -0.0469
     48 CBJ         5.4680  -16.7910   51.3710 C.3       1 37M        -0.0321
     49 CBQ         6.2090  -18.1300   51.4370 C.3       1 37M         0.0369
     50 N           7.5990  -18.0100   51.9740 N.am      1 37M        -0.2487
     51 CCD         8.6420  -18.7160   51.4750 C.2       1 37M         0.1938
     52 OAI         9.7850  -18.6240   51.9220 O.2       1 37M        -0.3938
     53 CDA         8.3660  -19.6780   50.3040 C.3       1 37M         0.0770
     54 CCX         9.6200  -19.7890   49.3850 C.3       1 37M        -0.0055
     55 CBN         9.4380  -20.8340   48.2590 C.3       1 37M        -0.0381
     56 CBH        10.6720  -20.8470   47.3580 C.3       1 37M        -0.0358
     57 CBG        10.8800  -19.4750   46.7090 C.2       1 37M        -0.0986
     58 CAM        10.5860  -18.4100   47.5740 C.2       1 37M        -0.0981
     59 CAN         9.9730  -18.5470   48.8260 C.3       1 37M        -0.0296
     60 CCI         7.9870  -20.9340   50.8040 C.ar      1 37M        -0.0485
     61 CBE         8.8440  -21.6780   51.6260 C.ar      1 37M        -0.0481
     62 CBD         6.7320  -21.4440   50.4640 C.ar      1 37M        -0.0481
     63 CCL         6.3320  -22.6950   50.9350 C.ar      1 37M         0.1052
     64 OBU         5.1140  -23.2440   50.6400 O.3       1 37M        -0.3297
     65 CAC         4.9840  -23.5980   49.2540 C.3       1 37M         0.0563
     66 CCQ         7.1900  -23.4230   51.7640 C.ar      1 37M         0.1397
     67 OBW         6.8040  -24.6520   52.2250 O.3       1 37M        -0.3340
     68 CAE         6.1550  -24.6080   53.5000 C.3       1 37M         0.0527
     69 CCM         8.4480  -22.9260   52.1110 C.ar      1 37M         0.1052
     70 OBV         9.2400  -23.7100   52.9110 O.3       1 37M        -0.3297
     71 CAD         9.6360  -23.0840   54.1410 C.3       1 37M         0.0563
     72 H           7.7746  -23.0728   60.6150 H         1 37M         0.0948
     73 H           8.0809  -24.9639   59.0980 H         1 37M         0.0670
     74 H           7.2643  -26.3466   57.2018 H         1 37M         0.0523
     75 H           3.5965  -24.0810   57.1142 H         1 37M         0.0178
     76 H           7.1943  -21.5876   62.4761 H         1 37M         0.0608
     77 H           5.5942  -20.0083   63.5244 H         1 37M         0.0518
     78 H           2.3839  -19.4127   62.0470 H         1 37M         0.2508
     79 H           1.7777  -20.2427   60.9589 H         1 37M         0.0639
     80 H           2.0065  -21.7181   59.9602 H         1 37M         0.0639
     81 H           3.4727  -19.3876   58.9684 H         1 37M         0.1872
     82 H           3.1867  -18.5601   57.0681 H         1 37M         0.0859
     83 H           1.4923  -17.9824   56.9205 H         1 37M         0.0859
     84 H           4.4826  -18.8031   56.3680 H         1 37M         0.0479
     85 H           2.1806  -21.3747   53.8178 H         1 37M         0.0486
     86 H           4.2818  -22.3011   52.8963 H         1 37M         0.0572
     87 H           6.4770  -21.4892   53.6874 H         1 37M         0.0465
     88 H           6.6611  -18.7956   56.2953 H         1 37M         0.0814
     89 H           8.8566  -20.3104   56.1615 H         1 37M         0.0336
     90 H           7.6566  -21.6117   55.8558 H         1 37M         0.0336
     91 H           7.5944  -21.7884   58.0992 H         1 37M         0.0406
     92 H           6.5137  -20.3569   58.0017 H         1 37M         0.0406
     93 H          10.2989  -20.4482   57.7796 H         1 37M         0.0450
     94 H           6.7191  -19.4126   59.8995 H         1 37M         0.0436
     95 H           8.0348  -18.1323   61.5401 H         1 37M         0.0493
     96 H          11.2545  -17.6914   63.5252 H         1 37M         0.0570
     97 H          10.8806  -19.3596   62.9737 H         1 37M         0.0570
     98 H           9.5516  -18.1773   63.2239 H         1 37M         0.0570
     99 H          13.7689  -19.8245   60.1711 H         1 37M         0.0573
    100 H          12.4578  -21.0450   60.0369 H         1 37M         0.0573
    101 H          12.4263  -19.8353   61.3644 H         1 37M         0.0573
    102 H           8.9342  -16.8600   53.1143 H         1 37M         0.0819
    103 H           7.5355  -15.2267   52.0346 H         1 37M         0.0314
    104 H           7.2325  -15.1230   53.8021 H         1 37M         0.0314
    105 H           5.0894  -15.0690   52.6020 H         1 37M         0.0268
    106 H           5.2303  -16.6177   53.5011 H         1 37M         0.0268
    107 H           5.8759  -16.1930   50.5428 H         1 37M         0.0285
    108 H           4.3984  -16.9785   51.1958 H         1 37M         0.0285
    109 H           6.2619  -18.5504   50.4219 H         1 37M         0.0524
    110 H           5.6411  -18.8118   52.0871 H         1 37M         0.0524
    111 H           7.5345  -19.2756   49.7069 H         1 37M         0.0676
    112 H          10.4569  -20.1222   50.0163 H         1 37M         0.0368
    113 H           8.5521  -20.5750   47.6606 H         1 37M         0.0292
    114 H           9.3011  -21.8304   48.7045 H         1 37M         0.0292
    115 H          10.5366  -21.6027   46.5703 H         1 37M         0.0388
    116 H          11.5569  -21.0998   47.9605 H         1 37M         0.0388
    117 H          11.2205  -19.3403   45.6834 H         1 37M         0.0450
    118 H          10.8534  -17.4056   47.2489 H         1 37M         0.0450
    119 H          10.6553  -18.0750   49.5482 H         1 37M         0.0394
    120 H           9.0403  -17.9666   48.7694 H         1 37M         0.0394
    121 H           9.8191  -21.2827   51.8866 H         1 37M         0.0369
    122 H           6.0668  -20.8663   49.8324 H         1 37M         0.0369
    123 H           3.9888  -24.0323   49.0783 H         1 37M         0.0572
    124 H           5.7572  -24.3343   48.9895 H         1 37M         0.0572
    125 H           5.1063  -22.6985   48.6328 H         1 37M         0.0572
    126 H           5.8750  -25.6273   53.8042 H         1 37M         0.0565
    127 H           5.2512  -23.9849   53.4301 H         1 37M         0.0565
    128 H           6.8401  -24.1781   54.2455 H         1 37M         0.0565
    129 H          10.2650  -23.7769   54.7191 H         1 37M         0.0572
    130 H           8.7409  -22.8264   54.7261 H         1 37M         0.0572
    131 H          10.2055  -22.1692   53.9201 H         1 37M         0.0572
@<TRIPOS>BOND
     1    1    2 2  
     2    1   11 1  
     3    2    3 1  
     4    2    8 1  
     5    3    4 2  
     6    4    5 1  
     7    5    6 2  
     8    5    7 1  
     9    7    8 2  
    10    8    9 1  
    11    9   10 1  
    12   10   11 ar 
    13   10   16 ar 
    14   11   12 ar 
    15   12   13 ar 
    16   13   14 ar 
    17   14   15 1  
    18   14   16 ar 
    19   16   17 1  
    20   17   18 1  
    21   18   19 am 
    22   19   20 2  
    23   19   21 1  
    24   21   22 1  
    25   22   23 1  
    26   23   24 ar 
    27   23   25 ar 
    28   24   28 ar 
    29   25   26 ar 
    30   26   27 ar 
    31   27   28 ar 
    32   28   29 1  
    33   29   30 1  
    34   29   42 1  
    35   30   31 1  
    36   31   32 1  
    37   32   33 ar 
    38   32   34 ar 
    39   33   39 ar 
    40   34   35 ar 
    41   35   36 ar 
    42   36   37 1  
    43   36   39 ar 
    44   37   38 1  
    45   39   40 1  
    46   40   41 1  
    47   42   43 1  
    48   43   44 2  
    49   43   45 1  
    50   45   46 1  
    51   45   50 1  
    52   46   47 1  
    53   47   48 1  
    54   48   49 1  
    55   49   50 1  
    56   50   51 am 
    57   51   52 2  
    58   51   53 1  
    59   53   54 1  
    60   53   60 1  
    61   54   55 1  
    62   54   59 1  
    63   55   56 1  
    64   56   57 1  
    65   57   58 2  
    66   58   59 1  
    67   60   61 ar 
    68   60   62 ar 
    69   61   69 ar 
    70   62   63 ar 
    71   63   64 1  
    72   63   66 ar 
    73   64   65 1  
    74   66   67 1  
    75   66   69 ar 
    76   67   68 1  
    77   69   70 1  
    78   70   71 1  
    79    1   72 1  
    80    3   73 1  
    81    4   74 1  
    82    7   75 1  
    83   12   76 1  
    84   13   77 1  
    85   15   78 1  
    86   17   79 1  
    87   17   80 1  
    88   18   81 1  
    89   21   82 1  
    90   21   83 1  
    91   24   84 1  
    92   25   85 1  
    93   26   86 1  
    94   27   87 1  
    95   29   88 1  
    96   30   89 1  
    97   30   90 1  
    98   31   91 1  
    99   31   92 1  
   100   33   93 1  
   101   34   94 1  
   102   35   95 1  
   103   38   96 1  
   104   38   97 1  
   105   38   98 1  
   106   41   99 1  
   107   41  100 1  
   108   41  101 1  
   109   45  102 1  
   110   46  103 1  
   111   46  104 1  
   112   47  105 1  
   113   47  106 1  
   114   48  107 1  
   115   48  108 1  
   116   49  109 1  
   117   49  110 1  
   118   53  111 1  
   119   54  112 1  
   120   55  113 1  
   121   55  114 1  
   122   56  115 1  
   123   56  116 1  
   124   57  117 1  
   125   58  118 1  
   126   59  119 1  
   127   59  120 1  
   128   61  121 1  
   129   62  122 1  
   130   65  123 1  
   131   65  124 1  
   132   65  125 1  
   133   68  126 1  
   134   68  127 1  
   135   68  128 1  
   136   71  129 1  
   137   71  130 1  
   138   71  131 1  
@<TRIPOS>SUBSTRUCTURE
     1 37M         1

