### 
### Created by X-TOOL on Mon Sep 10 21:13:19 2018
### 

@<TRIPOS>MOLECULE
4tw9_ligand
   46    50     1     0     0
SMALL
GAST_HUCK


@<TRIPOS>ATOM
      1 N1         11.4700  -14.9890    6.4300 N.am      1 386        -0.1951
      2 C2         11.9310  -16.5580    8.7410 C.ar      1 386        -0.0496
      3 O2         12.7060  -16.4920    5.2440 O.2       1 386        -0.3744
      4 N3          7.6000  -11.1040    4.2710 N.am      1 386        -0.1886
      5 C4         12.3420  -16.9920    9.9970 C.ar      1 386        -0.0670
      6 N4          6.3030   -9.2050    3.6300 N.2       1 386        -0.3256
      7 C5         14.5550  -17.4060    9.1420 C.ar      1 386        -0.0264
      8 C6         13.6550  -17.4180   10.1960 C.ar      1 386        -0.0661
      9 F5          1.6560   -5.4150    5.9020 F         1 386        -0.1406
     10 C19         2.9710   -5.0880    5.8030 C.3       1 386         0.5239
     11 F4          3.2140   -3.7920    6.1190 F         1 386        -0.1406
     12 O4          3.4970   -5.3870    4.4950 O.3       1 386        -0.2385
     13 C15         4.2520   -6.4800    4.7020 C.ar      1 386         0.1114
     14 C17         4.8950   -7.2400    3.7560 C.ar      1 386        -0.0484
     15 O5          3.6330   -5.9020    6.7620 O.3       1 386        -0.2379
     16 C16         4.3220   -6.7840    6.0370 C.ar      1 386         0.1141
     17 C18         5.0350   -7.8410    6.5620 C.ar      1 386        -0.0234
     18 C20         5.6760   -8.5980    5.6230 C.ar      1 386         0.0551
     19 C14         5.5920   -8.3090    4.2840 C.ar      1 386        -0.0106
     20 N5          6.4120   -9.6900    5.8230 N.pl3     1 386        -0.2374
     21 C13         6.7840  -10.0280    4.5780 C.2       1 386         0.2335
     22 C12         8.2210  -11.8440    5.2490 C.2       1 386         0.2326
     23 O3          7.9920  -11.6190    6.4360 O.2       1 386        -0.3773
     24 C10         9.2270  -12.8570    4.8630 C.2       1 386         0.0751
     25 C11         9.6280  -13.2800    3.5810 C.2       1 386         0.0216
     26 S          10.7860  -14.4060    3.7690 S.3       1 386         0.0249
     27 N2          9.8810  -13.4540    5.8560 N.2       1 386        -0.3051
     28 C9         10.7790  -14.3370    5.4010 C.2       1 386         0.2091
     29 C8         12.3520  -16.0410    6.3280 C.2       1 386         0.2382
     30 C1         12.8300  -16.5460    7.6560 C.ar      1 386         0.0870
     31 C3         14.1580  -16.9650    7.8830 C.ar      1 386         0.1228
     32 O1         15.0910  -16.9770    6.8870 O.3       1 386        -0.2197
     33 C7         15.7570  -15.7790    6.5400 C.3       1 386         0.5481
     34 F3         16.1750  -15.7980    5.2220 F         1 386        -0.1397
     35 F2         14.8570  -14.8020    6.7040 F         1 386        -0.1397
     36 F1         16.7350  -15.5200    7.4500 F         1 386        -0.1397
     37 H          11.3016  -14.6476    7.3547 H         1 386         0.2401
     38 H          10.9094  -16.2259    8.5955 H         1 386         0.0640
     39 H           7.7413  -11.3493    3.3119 H         1 386         0.2382
     40 H          11.6401  -16.9991   10.8231 H         1 386         0.0536
     41 H          15.5736  -17.7419    9.2991 H         1 386         0.0555
     42 H          13.9717  -17.7586   11.1752 H         1 386         0.0625
     43 H           4.8589   -7.0214    2.6949 H         1 386         0.0397
     44 H           5.0825   -8.0522    7.6242 H         1 386         0.0420
     45 H           6.6392  -10.1586    6.7117 H         1 386         0.2263
     46 H           9.2331  -12.9177    2.6330 H         1 386         0.0722
@<TRIPOS>BOND
     1    1   28 1  
     2   29    1 am 
     3    2    5 ar 
     4   30    2 ar 
     5   29    3 2  
     6    4   21 1  
     7   22    4 am 
     8    5    8 ar 
     9    6   19 1  
    10   21    6 2  
    11    8    7 ar 
    12    7   31 ar 
    13   10    9 1  
    14   10   11 1  
    15   12   10 1  
    16   15   10 1  
    17   13   12 1  
    18   14   13 ar 
    19   16   13 ar 
    20   19   14 ar 
    21   16   15 1  
    22   17   16 ar 
    23   18   17 ar 
    24   18   19 ar 
    25   20   18 1  
    26   21   20 1  
    27   22   23 2  
    28   24   22 1  
    29   24   25 2  
    30   27   24 1  
    31   26   25 1  
    32   28   26 1  
    33   28   27 2  
    34   29   30 1  
    35   30   31 ar 
    36   31   32 1  
    37   32   33 1  
    38   33   34 1  
    39   33   35 1  
    40   33   36 1  
    41    1   37 1  
    42    2   38 1  
    43    4   39 1  
    44    5   40 1  
    45    7   41 1  
    46    8   42 1  
    47   14   43 1  
    48   17   44 1  
    49   20   45 1  
    50   25   46 1  
@<TRIPOS>SUBSTRUCTURE
     1 386         1

