### 
### Created by X-TOOL on Mon Sep 10 21:13:17 2018
### 

@<TRIPOS>MOLECULE
4twc_ligand
   46    49     1     0     0
SMALL
GAST_HUCK


@<TRIPOS>ATOM
      1 N1          9.3220  -13.2930    6.2540 N.2       1 37J        -0.3051
      2 C2          8.7690  -12.6990    5.1990 C.2       1 37J         0.0755
      3 O2         12.0620  -16.0750    5.4260 O.2       1 37J        -0.3744
      4 N3          5.9290   -9.3020    5.7970 N.2       1 37J        -0.3024
      5 C4          7.7840  -11.6220    5.4620 C.2       1 37J         0.2347
      6 N4          6.0850   -9.0160    3.5760 N.pl3     1 37J        -0.2099
      7 C5         11.8670  -15.8330    6.5760 C.2       1 37J         0.2382
      8 C6         12.6450  -16.3490    7.7320 C.ar      1 37J         0.0870
      9 F6          1.8750   -5.6690    6.5770 F         1 37J        -0.2304
     10 C20         3.1390   -5.2250    6.4000 C.3       1 37J         0.3626
     11 F4          3.6340   -5.0410    7.6200 F         1 37J        -0.2304
     12 F5          3.0910   -4.0370    5.7780 F         1 37J        -0.2304
     13 C14         3.9620   -6.2410    5.6130 C.ar      1 37J         0.0247
     14 C15         4.5390   -7.3300    6.2510 C.ar      1 37J        -0.0362
     15 C16         5.2680   -8.2070    5.4620 C.ar      1 37J         0.0426
     16 C19         6.4100   -9.7670    4.6280 C.2       1 37J         0.2496
     17 C17         5.3730   -8.0210    4.1210 C.ar      1 37J         0.1058
     18 C18         4.7830   -6.9890    3.4720 C.ar      1 37J        -0.0155
     19 C13         4.0770   -6.0680    4.2310 C.ar      1 37J        -0.0498
     20 N5          7.2320  -10.8650    4.4410 N.am      1 37J        -0.1835
     21 O1          7.5010  -11.3990    6.6220 O.2       1 37J        -0.3762
     22 C3         10.1780  -14.2320    5.8570 C.2       1 37J         0.2091
     23 S          10.3310  -14.3200    4.2430 S.3       1 37J         0.0250
     24 C1          9.2260  -13.1640    3.9800 C.2       1 37J         0.0217
     25 N2         10.8680  -14.9520    6.8280 N.am      1 37J        -0.1951
     26 C11        11.9960  -16.6070    8.9350 C.ar      1 37J        -0.0496
     27 C10        12.7030  -17.0390   10.0310 C.ar      1 37J        -0.0670
     28 C9         14.0770  -17.2350    9.9370 C.ar      1 37J        -0.0661
     29 C8         14.7460  -16.9610    8.7560 C.ar      1 37J        -0.0264
     30 C7         14.0250  -16.5090    7.6550 C.ar      1 37J         0.1228
     31 O3         14.5960  -16.2290    6.4610 O.3       1 37J        -0.2197
     32 C12        15.9270  -15.8930    6.2140 C.3       1 37J         0.5481
     33 F1         16.2300  -14.8720    7.0080 F         1 37J        -0.1397
     34 F2         15.9830  -15.5580    4.8990 F         1 37J        -0.1397
     35 F3         16.7630  -16.9110    6.4860 F         1 37J        -0.1397
     36 H           6.3234   -9.1646    2.5850 H         1 37J         0.2398
     37 H           4.4251   -7.4879    7.3174 H         1 37J         0.0776
     38 H           4.8601   -6.8865    2.3956 H         1 37J         0.0623
     39 H           3.6138   -5.2130    3.7519 H         1 37J         0.0714
     40 H           7.4428  -11.1313    3.5005 H         1 37J         0.2408
     41 H           8.8975  -12.8114    3.0034 H         1 37J         0.0723
     42 H          10.6073  -14.8087    7.7827 H         1 37J         0.2401
     43 H          10.9237  -16.4661    9.0083 H         1 37J         0.0640
     44 H          12.1908  -17.2269   10.9677 H         1 37J         0.0536
     45 H          14.6278  -17.6048   10.7943 H         1 37J         0.0625
     46 H          15.8194  -17.0971    8.6899 H         1 37J         0.0555
@<TRIPOS>BOND
     1    1    2 1  
     2   22    1 2  
     3    2    5 1  
     4    2   24 2  
     5    7    3 2  
     6    4   15 1  
     7   16    4 2  
     8    5   20 am 
     9    5   21 2  
    10   16    6 1  
    11    6   17 1  
    12    7    8 1  
    13   25    7 am 
    14    8   26 ar 
    15    8   30 ar 
    16   10    9 1  
    17   10   11 1  
    18   10   12 1  
    19   13   10 1  
    20   14   13 ar 
    21   19   13 ar 
    22   15   14 ar 
    23   17   15 ar 
    24   20   16 1  
    25   17   18 ar 
    26   18   19 ar 
    27   22   23 1  
    28   22   25 1  
    29   23   24 1  
    30   26   27 ar 
    31   27   28 ar 
    32   28   29 ar 
    33   29   30 ar 
    34   30   31 1  
    35   31   32 1  
    36   32   33 1  
    37   32   34 1  
    38   32   35 1  
    39    6   36 1  
    40   14   37 1  
    41   18   38 1  
    42   19   39 1  
    43   20   40 1  
    44   24   41 1  
    45   25   42 1  
    46   26   43 1  
    47   27   44 1  
    48   28   45 1  
    49   29   46 1  
@<TRIPOS>SUBSTRUCTURE
     1 37J         1

