### 
### Created by X-TOOL on Mon Sep 10 21:13:19 2018
### 

@<TRIPOS>MOLECULE
4twd_ligand
   35    37     1     0     0
SMALL
GAST_HUCK


@<TRIPOS>ATOM
      1 C10      -125.2200  -42.2530  -68.8140 C.3       1 377        -0.0443
      2 C11      -124.4700  -44.5040  -69.4830 C.3       1 377        -0.0040
      3 N01      -125.2570  -46.4300  -68.2960 N.4       1 377         0.2230
      4 C02      -127.1790  -43.8700  -70.1100 C.3       1 377        -0.0259
      5 C03      -126.3400  -42.8870  -68.0430 C.3       1 377        -0.0259
      6 C04      -125.6360  -45.1140  -68.7490 C.3       1 377        -0.0122
      7 C05      -124.8590  -43.1450  -69.9700 C.3       1 377        -0.0347
      8 C06      -127.5300  -43.0300  -68.9270 C.3       1 377        -0.0418
      9 C07      -126.8240  -45.2480  -69.6680 C.3       1 377        -0.0015
     10 C08      -125.9690  -44.2540  -67.5540 C.3       1 377        -0.0015
     11 C09      -126.0340  -43.2910  -70.8780 C.3       1 377        -0.0443
     12 C12      -128.3720  -43.8640  -70.9750 C.3       1 377        -0.0593
     13 C13      -126.6990  -41.9880  -66.9140 C.3       1 377        -0.0593
     14 H        -124.3458  -42.1260  -68.1585 H         1 377         0.0273
     15 H        -125.5410  -41.2710  -69.1915 H         1 377         0.0273
     16 H        -124.2000  -45.1394  -70.3394 H         1 377         0.0325
     17 H        -123.6094  -44.4198  -68.8031 H         1 377         0.0325
     18 H        -126.0287  -46.8506  -67.8025 H         1 377         0.1999
     19 H        -124.4632  -46.3573  -67.6790 H         1 377         0.1999
     20 H        -125.0143  -47.0017  -69.0899 H         1 377         0.1999
     21 H        -124.0185  -42.6991  -70.5220 H         1 377         0.0303
     22 H        -128.3461  -43.5098  -68.3669 H         1 377         0.0276
     23 H        -127.8541  -42.0356  -69.2677 H         1 377         0.0276
     24 H        -126.5631  -45.8698  -70.5371 H         1 377         0.0328
     25 H        -127.6691  -45.7039  -69.1314 H         1 377         0.0328
     26 H        -126.8140  -44.6937  -67.0040 H         1 377         0.0328
     27 H        -125.0947  -44.1863  -66.8900 H         1 377         0.0328
     28 H        -126.3177  -42.3048  -71.2741 H         1 377         0.0273
     29 H        -125.7741  -43.9601  -71.7115 H         1 377         0.0273
     30 H        -129.2256  -44.2873  -70.4253 H         1 377         0.0235
     31 H        -128.1773  -44.4695  -71.8725 H         1 377         0.0235
     32 H        -128.6038  -42.8308  -71.2729 H         1 377         0.0235
     33 H        -126.9654  -40.9954  -67.3061 H         1 377         0.0235
     34 H        -125.8407  -41.8946  -66.2324 H         1 377         0.0235
     35 H        -127.5564  -42.4089  -66.3684 H         1 377         0.0235
@<TRIPOS>BOND
     1    5    1 1  
     2    1    7 1  
     3    2    6 1  
     4    7    2 1  
     5    6    3 1  
     6    8    4 1  
     7    4    9 1  
     8    4   11 1  
     9    4   12 1  
    10    5    8 1  
    11    5   10 1  
    12    5   13 1  
    13    6    9 1  
    14    6   10 1  
    15    7   11 1  
    16    1   14 1  
    17    1   15 1  
    18    2   16 1  
    19    2   17 1  
    20    3   18 1  
    21    3   19 1  
    22    3   20 1  
    23    7   21 1  
    24    8   22 1  
    25    8   23 1  
    26    9   24 1  
    27    9   25 1  
    28   10   26 1  
    29   10   27 1  
    30   11   28 1  
    31   11   29 1  
    32   12   30 1  
    33   12   31 1  
    34   12   32 1  
    35   13   33 1  
    36   13   34 1  
    37   13   35 1  
@<TRIPOS>SUBSTRUCTURE
     1 377         1

