### 
### Created by X-TOOL on Mon Sep 10 21:13:25 2018
### 

@<TRIPOS>MOLECULE
4twp_ligand
   46    49     1     0     0
SMALL
GAST_HUCK


@<TRIPOS>ATOM
      1 O81        62.0220   19.2470   46.7580 O.2       1 AXI        -0.3884
      2 C80        62.4410   19.2240   47.8990 C.2       1 AXI         0.2009
      3 N82        62.4980   20.4290   48.6620 N.am      1 AXI        -0.2903
      4 C88        62.0520   21.6740   48.0700 C.3       1 AXI         0.0189
      5 C23        62.9000   17.9420   48.5020 C.ar      1 AXI         0.0639
      6 C22        64.1850   17.8490   49.0220 C.ar      1 AXI        -0.0473
      7 C21        64.6240   16.6610   49.5860 C.ar      1 AXI        -0.0628
      8 C20        63.7750   15.5550   49.6320 C.ar      1 AXI        -0.0630
      9 C18        62.0460   16.8310   48.5450 C.ar      1 AXI         0.0508
     10 C19        62.4850   15.6480   49.1080 C.ar      1 AXI        -0.0416
     11 S24        60.3880   16.9320   47.8840 S.3       1 AXI        -0.0376
     12 C07        59.3910   15.7140   48.7410 C.ar      1 AXI         0.0320
     13 C08        59.3110   15.7500   50.1410 C.ar      1 AXI        -0.0465
     14 C09        58.5370   14.7940   50.8280 C.ar      1 AXI        -0.0544
     15 C12        58.7100   14.7330   48.0280 C.ar      1 AXI        -0.0366
     16 C11        57.9160   13.7580   48.7300 C.ar      1 AXI         0.0206
     17 N15        57.1460   12.6910   48.2980 N.2       1 AXI        -0.2533
     18 N14        56.5920   12.0680   49.3930 N.pl3     1 AXI        -0.2171
     19 C13        56.9880   12.7120   50.5070 C.2       1 AXI         0.1258
     20 C10        57.8360   13.7940   50.1000 C.ar      1 AXI         0.0272
     21 C16        56.6090   12.3550   51.9180 C.2       1 AXI        -0.0169
     22 C17        57.3130   12.8630   52.9770 C.2       1 AXI        -0.0447
     23 C02        57.0670   12.3110   54.3540 C.ar      1 AXI         0.0318
     24 N03        57.6910   12.8560   55.4080 N.ar      1 AXI        -0.3035
     25 C04        57.5010   12.3940   56.6560 C.ar      1 AXI         0.0028
     26 C05        56.6410   11.3290   56.8630 C.ar      1 AXI        -0.0393
     27 C06        55.9830   10.7480   55.7900 C.ar      1 AXI        -0.0472
     28 C01        56.1980   11.2450   54.5130 C.ar      1 AXI        -0.0344
     29 H1         62.8439   20.4140   49.6002 H         1 AXI         0.1839
     30 H2         62.1685   22.4892   48.7993 H         1 AXI         0.0483
     31 H3         60.9933   21.5858   47.7847 H         1 AXI         0.0483
     32 H4         62.6556   21.8922   47.1767 H         1 AXI         0.0483
     33 H5         64.8460   18.7074   48.9867 H         1 AXI         0.0652
     34 H6         65.6270   16.5915   49.9913 H         1 AXI         0.0573
     35 H7         64.1165   14.6258   50.0736 H         1 AXI         0.0636
     36 H8         61.8248   14.7889   49.1428 H         1 AXI         0.0581
     37 H9         59.8450   16.5138   50.6946 H         1 AXI         0.0570
     38 H10        58.4760   14.8209   51.9100 H         1 AXI         0.0609
     39 H11        58.7768   14.7024   46.9465 H         1 AXI         0.0576
     40 H12        55.9751   11.2436   49.3648 H         1 AXI         0.2931
     41 H13        55.7680   11.6872   52.0989 H         1 AXI         0.0647
     42 H14        58.0422   13.6572   52.8238 H         1 AXI         0.0560
     43 H15        58.0165   12.8512   57.4928 H         1 AXI         0.0814
     44 H16        56.4819   10.9488   57.8656 H         1 AXI         0.0667
     45 H17        55.3080    9.9145   55.9472 H         1 AXI         0.0716
     46 H18        55.6961   10.8079   53.6574 H         1 AXI         0.0684
@<TRIPOS>BOND
     1    1    2 2  
     2    2    3 am 
     3    2    5 1  
     4    3    4 1  
     5    5    6 ar 
     6    5    9 ar 
     7    6    7 ar 
     8    7    8 ar 
     9    8   10 ar 
    10    9   10 ar 
    11    9   11 1  
    12   11   12 1  
    13   12   13 ar 
    14   12   15 ar 
    15   13   14 ar 
    16   14   20 ar 
    17   15   16 ar 
    18   16   17 2  
    19   16   20 ar 
    20   17   18 1  
    21   18   19 1  
    22   19   20 2  
    23   19   21 1  
    24   21   22 2  
    25   22   23 1  
    26   23   24 ar 
    27   23   28 ar 
    28   24   25 ar 
    29   25   26 ar 
    30   26   27 ar 
    31   27   28 ar 
    32    3   29 1  
    33    4   30 1  
    34    4   31 1  
    35    4   32 1  
    36    6   33 1  
    37    7   34 1  
    38    8   35 1  
    39   10   36 1  
    40   13   37 1  
    41   14   38 1  
    42   15   39 1  
    43   18   40 1  
    44   21   41 1  
    45   22   42 1  
    46   25   43 1  
    47   26   44 1  
    48   27   45 1  
    49   28   46 1  
@<TRIPOS>SUBSTRUCTURE
     1 AXI         1

