### 
### Created by X-TOOL on Mon Sep 10 21:13:25 2018
### 

@<TRIPOS>MOLECULE
4tww_ligand
   60    63     1     0     0
SMALL
GAST_HUCK


@<TRIPOS>ATOM
      1 C1          1.6270   18.8580  -11.4620 C.ar      1 3A7         0.0527
      2 C2          1.8450   19.3870  -12.7420 C.ar      1 3A7        -0.0393
      3 C3          2.0390   20.7540  -12.9010 C.ar      1 3A7        -0.0468
      4 C4          2.0270   21.5950  -11.7770 C.ar      1 3A7         0.0173
      5 C5          1.8160   21.0510  -10.4930 C.ar      1 3A7        -0.0468
      6 C6          1.6180   19.6780  -10.3350 C.ar      1 3A7        -0.0393
      7 C7          3.5490   17.1090  -10.0730 C.3       1 3A7         0.0370
      8 O1         -1.0140   15.4850   -5.4380 O.2       1 3A7        -0.3688
      9 C18        -0.1980   15.3360   -6.3650 C.2       1 3A7         0.1481
     10 C17        -0.4100   14.3510   -7.5480 C.3       1 3A7         0.0542
     11 C19        -1.0440   13.0350   -7.1020 C.3       1 3A7         0.0335
     12 C20        -2.0920   12.4390   -8.0350 C.2       1 3A7         0.0006
     13 N3         -2.5760   11.1880   -7.9040 N.2       1 3A7        -0.3251
     14 C22        -3.5330   10.9820   -8.8230 C.2       1 3A7         0.0907
     15 N2         -3.6390   12.1030   -9.5770 N.pl3     1 3A7        -0.2752
     16 C21        -2.7640   13.0250   -9.1110 C.2       1 3A7         0.0293
     17 N1          0.8250   13.9830   -8.3250 N.4       1 3A7         0.2482
     18 C16         1.5170   15.1900   -8.8070 C.3       1 3A7        -0.0078
     19 C15         1.8680   15.2340  -10.2820 C.3       1 3A7         0.0845
     20 C14         3.0230   14.2740  -10.6420 C.3       1 3A7        -0.0216
     21 C13         4.3810   14.7090  -10.1410 C.3       1 3A7        -0.0341
     22 C12         5.4540   13.8000  -10.7220 C.3       1 3A7        -0.0498
     23 C11         6.8290   14.1590  -10.1880 C.3       1 3A7        -0.0528
     24 C10         7.1470   15.6400  -10.4350 C.3       1 3A7        -0.0527
     25 C9          6.0260   16.5770   -9.9770 C.3       1 3A7        -0.0481
     26 C8          4.6530   16.1530  -10.5390 C.3       1 3A7        -0.0177
     27 N           2.2440   16.6440  -10.6000 N.am      1 3A7        -0.2636
     28 C           1.4300   17.3840  -11.3570 C.2       1 3A7         0.2097
     29 O           0.5540   16.8990  -12.0500 O.2       1 3A7        -0.3833
     30 BR          2.2990   23.4690  -12.0190 Br        1 3A7        -0.0461
     31 H1          1.8622   18.7316  -13.6053 H         1 3A7         0.0675
     32 H2          2.1990   21.1693  -13.8894 H         1 3A7         0.0655
     33 H3          1.8075   21.7012   -9.6257 H         1 3A7         0.0655
     34 H4          1.4595   19.2556   -9.3494 H         1 3A7         0.0675
     35 H5          3.7571   18.1217  -10.4486 H         1 3A7         0.0525
     36 H6          3.5166   17.1250   -8.9736 H         1 3A7         0.0525
     37 H7          0.7154   15.9286   -6.3465 H         1 3A7         0.1410
     38 H8         -1.1024   14.8476   -8.2437 H         1 3A7         0.1107
     39 H9         -1.5229   13.2074   -6.1269 H         1 3A7         0.0454
     40 H10        -0.2372   12.2959   -6.9888 H         1 3A7         0.0454
     41 H11        -4.1211   10.0731   -8.9417 H         1 3A7         0.1199
     42 H12        -4.2795   12.2322  -10.3732 H         1 3A7         0.2361
     43 H13        -2.6128   14.0308   -9.5002 H         1 3A7         0.0729
     44 H14         0.5617   13.4151   -9.1151 H         1 3A7         0.2037
     45 H15         1.4476   13.4609   -7.7285 H         1 3A7         0.2037
     46 H16         2.4541   15.2856   -8.2390 H         1 3A7         0.0837
     47 H17         0.8690   16.0528   -8.5933 H         1 3A7         0.0837
     48 H18         0.9834   14.9489  -10.8704 H         1 3A7         0.0611
     49 H19         3.0718   14.1914  -11.7378 H         1 3A7         0.0292
     50 H20         2.7973   13.2881  -10.2096 H         1 3A7         0.0292
     51 H21         4.3997   14.6316   -9.0439 H         1 3A7         0.0305
     52 H22         5.4567   13.9033  -11.8171 H         1 3A7         0.0268
     53 H23         5.2257   12.7583  -10.4525 H         1 3A7         0.0268
     54 H24         7.5842   13.5399  -10.6944 H         1 3A7         0.0265
     55 H25         6.8576   13.9608   -9.1064 H         1 3A7         0.0265
     56 H26         7.3096   15.7886  -11.5127 H         1 3A7         0.0265
     57 H27         8.0651   15.8976   -9.8866 H         1 3A7         0.0265
     58 H28         6.2518   17.5966  -10.3227 H         1 3A7         0.0269
     59 H29         5.9792   16.5643   -8.8781 H         1 3A7         0.0269
     60 H30         4.6968   16.2025  -11.6370 H         1 3A7         0.0323
@<TRIPOS>BOND
     1    1    2 ar 
     2    1    6 ar 
     3   28    1 1  
     4    2    3 ar 
     5    3    4 ar 
     6    5    4 ar 
     7    4   30 1  
     8    6    5 ar 
     9    7   26 1  
    10   27    7 1  
    11    9    8 2  
    12   10    9 1  
    13   10   11 1  
    14   17   10 1  
    15   11   12 1  
    16   12   13 1  
    17   12   16 2  
    18   13   14 2  
    19   15   14 1  
    20   16   15 1  
    21   18   17 1  
    22   19   18 1  
    23   19   20 1  
    24   27   19 1  
    25   20   21 1  
    26   21   22 1  
    27   26   21 1  
    28   22   23 1  
    29   24   23 1  
    30   25   24 1  
    31   26   25 1  
    32   27   28 am 
    33   28   29 2  
    34    2   31 1  
    35    3   32 1  
    36    5   33 1  
    37    6   34 1  
    38    7   35 1  
    39    7   36 1  
    40    9   37 1  
    41   10   38 1  
    42   11   39 1  
    43   11   40 1  
    44   14   41 1  
    45   15   42 1  
    46   16   43 1  
    47   17   44 1  
    48   17   45 1  
    49   18   46 1  
    50   18   47 1  
    51   19   48 1  
    52   20   49 1  
    53   20   50 1  
    54   21   51 1  
    55   22   52 1  
    56   22   53 1  
    57   23   54 1  
    58   23   55 1  
    59   24   56 1  
    60   24   57 1  
    61   25   58 1  
    62   25   59 1  
    63   26   60 1  
@<TRIPOS>SUBSTRUCTURE
     1 3A7         1

