### 
### Created by X-TOOL on Mon Sep 10 21:13:25 2018
### 

@<TRIPOS>MOLECULE
4twy_ligand
   70    74     1     0     0
SMALL
GAST_HUCK


@<TRIPOS>ATOM
      1 C1        -27.5370  -43.3130    0.9660 C.ar      1 3BL         0.0495
      2 O1        -20.8330  -45.0940    1.0620 O.2       1 3BL        -0.3688
      3 C2        -27.3390  -44.6640    1.1520 C.ar      1 3BL        -0.0418
      4 C3        -28.2490  -45.5930    0.6960 C.ar      1 3BL        -0.0489
      5 C4        -29.3660  -45.1490    0.0460 C.ar      1 3BL        -0.0140
      6 C5        -30.3740  -46.0720   -0.4860 C.ar      1 3BL        -0.0153
      7 C6        -31.0330  -45.6960   -1.6280 C.ar      1 3BL        -0.0530
      8 C24       -21.1690  -44.4050    2.0000 C.2       1 3BL         0.1481
      9 C23       -21.3890  -42.9200    1.8210 C.3       1 3BL         0.0542
     10 C25       -20.0340  -42.2660    2.0130 C.3       1 3BL         0.0335
     11 C26       -19.7540  -41.0340    1.2350 C.2       1 3BL         0.0006
     12 N3        -18.6940  -40.2660    1.4170 N.2       1 3BL        -0.3251
     13 C28       -18.7440  -39.2730    0.5510 C.2       1 3BL         0.0907
     14 N2        -19.8390  -39.3950   -0.1740 N.pl3     1 3BL        -0.2752
     15 C27       -20.4830  -40.4860    0.2240 C.2       1 3BL         0.0293
     16 N1        -22.2870  -42.4000    2.8650 N.4       1 3BL         0.2482
     17 C22       -23.6330  -42.9840    2.8290 C.3       1 3BL        -0.0078
     18 C21       -24.6630  -41.8660    2.8720 C.3       1 3BL         0.0844
     19 C20       -24.7590  -41.2230    4.2470 C.3       1 3BL        -0.0216
     20 C19       -25.2810  -42.1930    5.2730 C.3       1 3BL        -0.0341
     21 C18       -25.3990  -41.5450    6.6240 C.3       1 3BL        -0.0498
     22 C17       -26.0040  -42.4880    7.6370 C.3       1 3BL        -0.0528
     23 C16       -27.3230  -43.0980    7.1800 C.3       1 3BL        -0.0527
     24 C15       -27.1840  -43.6920    5.8070 C.3       1 3BL        -0.0481
     25 C14       -26.6100  -42.7130    4.8150 C.3       1 3BL        -0.0177
     26 C13       -26.3520  -43.4820    3.5550 C.3       1 3BL         0.0369
     27 N         -25.9170  -42.5390    2.5710 N.am      1 3BL        -0.2641
     28 C         -26.5310  -42.3090    1.4480 C.2       1 3BL         0.2073
     29 O         -26.2900  -41.3580    0.7780 O.2       1 3BL        -0.3849
     30 C12       -28.6550  -42.8920    0.3120 C.ar      1 3BL        -0.0418
     31 C11       -29.5660  -43.8170   -0.1460 C.ar      1 3BL        -0.0489
     32 C10       -30.6380  -47.2690    0.1130 C.ar      1 3BL        -0.0530
     33 C9        -31.5890  -48.0960   -0.4390 C.ar      1 3BL        -0.0605
     34 C8        -32.2580  -47.7160   -1.5740 C.ar      1 3BL        -0.0611
     35 C7        -31.9800  -46.5160   -2.1720 C.ar      1 3BL        -0.0605
     36 H1        -26.4482  -45.0033    1.6682 H         1 3BL         0.0667
     37 H2        -28.0823  -46.6530    0.8496 H         1 3BL         0.0633
     38 H3        -30.8023  -44.7475   -2.0993 H         1 3BL         0.0629
     39 H4        -21.3137  -44.8586    2.9794 H         1 3BL         0.1410
     40 H5        -21.7978  -42.7056    0.8226 H         1 3BL         0.1107
     41 H6        -19.2682  -43.0080    1.7428 H         1 3BL         0.0454
     42 H7        -19.9383  -42.0119    3.0790 H         1 3BL         0.0454
     43 H8        -18.0026  -38.4817    0.4508 H         1 3BL         0.1199
     44 H9        -20.1426  -38.7539   -0.9209 H         1 3BL         0.2361
     45 H10       -21.4178  -40.8700   -0.1817 H         1 3BL         0.0729
     46 H11       -22.3695  -41.4025    2.7460 H         1 3BL         0.2037
     47 H12       -21.8779  -42.5984    3.7646 H         1 3BL         0.2037
     48 H13       -23.7708  -43.6451    3.6973 H         1 3BL         0.0837
     49 H14       -23.7579  -43.5642    1.9029 H         1 3BL         0.0837
     50 H15       -24.4321  -41.0967    2.1204 H         1 3BL         0.0611
     51 H16       -25.4393  -40.3604    4.1918 H         1 3BL         0.0292
     52 H17       -23.7589  -40.8823    4.5532 H         1 3BL         0.0292
     53 H18       -24.5783  -43.0355    5.3528 H         1 3BL         0.0305
     54 H19       -26.0379  -40.6536    6.5388 H         1 3BL         0.0268
     55 H20       -24.3972  -41.2467    6.9665 H         1 3BL         0.0268
     56 H21       -26.1811  -41.9320    8.5695 H         1 3BL         0.0265
     57 H22       -25.2895  -43.3027    7.8259 H         1 3BL         0.0265
     58 H23       -28.0951  -42.3149    7.1584 H         1 3BL         0.0265
     59 H24       -27.6204  -43.8868    7.8866 H         1 3BL         0.0265
     60 H25       -28.1773  -44.0090    5.4566 H         1 3BL         0.0269
     61 H26       -26.5195  -44.5666    5.8657 H         1 3BL         0.0269
     62 H27       -27.3109  -41.8827    4.6437 H         1 3BL         0.0323
     63 H28       -27.2744  -43.9789    3.2201 H         1 3BL         0.0525
     64 H29       -25.5703  -44.2367    3.7264 H         1 3BL         0.0525
     65 H30       -28.8267  -41.8336    0.1528 H         1 3BL         0.0667
     66 H31       -30.4548  -43.4795   -0.6667 H         1 3BL         0.0633
     67 H32       -30.1064  -47.5641    1.0104 H         1 3BL         0.0629
     68 H33       -31.8100  -49.0506    0.0247 H         1 3BL         0.0619
     69 H34       -33.0110  -48.3691   -2.0001 H         1 3BL         0.0622
     70 H35       -32.5079  -46.2189   -3.0710 H         1 3BL         0.0619
@<TRIPOS>BOND
     1    1    3 ar 
     2   28    1 1  
     3    1   30 ar 
     4    8    2 2  
     5    3    4 ar 
     6    4    5 ar 
     7    5    6 1  
     8    5   31 ar 
     9    6    7 ar 
    10    6   32 ar 
    11    7   35 ar 
    12    9    8 1  
    13    9   10 1  
    14   16    9 1  
    15   10   11 1  
    16   11   12 1  
    17   11   15 2  
    18   12   13 2  
    19   14   13 1  
    20   15   14 1  
    21   17   16 1  
    22   18   17 1  
    23   18   19 1  
    24   27   18 1  
    25   19   20 1  
    26   20   21 1  
    27   25   20 1  
    28   21   22 1  
    29   23   22 1  
    30   24   23 1  
    31   25   24 1  
    32   26   25 1  
    33   27   26 1  
    34   27   28 am 
    35   28   29 2  
    36   30   31 ar 
    37   32   33 ar 
    38   33   34 ar 
    39   34   35 ar 
    40    3   36 1  
    41    4   37 1  
    42    7   38 1  
    43    8   39 1  
    44    9   40 1  
    45   10   41 1  
    46   10   42 1  
    47   13   43 1  
    48   14   44 1  
    49   15   45 1  
    50   16   46 1  
    51   16   47 1  
    52   17   48 1  
    53   17   49 1  
    54   18   50 1  
    55   19   51 1  
    56   19   52 1  
    57   20   53 1  
    58   21   54 1  
    59   21   55 1  
    60   22   56 1  
    61   22   57 1  
    62   23   58 1  
    63   23   59 1  
    64   24   60 1  
    65   24   61 1  
    66   25   62 1  
    67   26   63 1  
    68   26   64 1  
    69   30   65 1  
    70   31   66 1  
    71   32   67 1  
    72   33   68 1  
    73   34   69 1  
    74   35   70 1  
@<TRIPOS>SUBSTRUCTURE
     1 3BL         1

