### 
### Created by X-TOOL on Mon Sep 10 21:13:16 2018
### 

@<TRIPOS>MOLECULE
4tx6_ligand
   30    32     1     0     0
SMALL
GAST_HUCK


@<TRIPOS>ATOM
      1 CAA        15.6110   41.2980   75.4350 C.3       1 38B         0.0281
      2 CAB        15.3440   39.8130   75.1550 C.2       1 38B         0.1463
      3 NAC        15.4800   39.3490   73.9000 N.2       1 38B        -0.2618
      4 NAF        15.0540   38.9650   76.2300 N.am      1 38B        -0.1976
      5 CAG        14.8240   37.5690   76.0710 C.2       1 38B         0.2150
      6 OAK        14.5920   36.8240   77.0520 O.2       1 38B        -0.4055
      7 CAH        14.9270   37.0860   74.7490 C.2       1 38B         0.0939
      8 CAD        15.2530   38.0230   73.7010 C.2       1 38B         0.2020
      9 OAE        15.2570   37.3460   72.5560 O.3       1 38B        -0.1625
     10 NAJ        14.9700   35.9280   72.8400 N.2       1 38B        -0.1542
     11 CAI        14.7920   35.7920   74.1630 C.2       1 38B         0.0596
     12 CAL        14.4670   34.6350   74.8470 C.ar      1 38B         0.0186
     13 CAM        15.3420   34.1990   75.8530 C.ar      1 38B        -0.0621
     14 CAN        15.0370   33.0540   76.5790 C.ar      1 38B        -0.0724
     15 CAQ        13.8600   32.3550   76.3150 C.ar      1 38B        -0.0706
     16 CAP        12.9720   32.7730   75.3030 C.ar      1 38B        -0.0318
     17 CAO        13.2670   33.9250   74.5600 C.ar      1 38B         0.1010
     18 OAR        12.3810   34.3500   73.5940 O.3       1 38B        -0.3187
     19 CAS        10.9450   34.0920   73.8380 C.3       1 38B         0.0603
     20 H          15.8208   41.8176   74.4884 H         1 38B         0.0532
     21 H          16.4772   41.3947   76.1061 H         1 38B         0.0532
     22 H          14.7265   41.7462   75.9111 H         1 38B         0.0532
     23 H          15.0063   39.3563   77.1490 H         1 38B         0.2547
     24 H          16.2505   34.7519   76.0628 H         1 38B         0.0590
     25 H          15.7139   32.7045   77.3502 H         1 38B         0.0525
     26 H          13.6231   31.4731   76.8991 H         1 38B         0.0588
     27 H          12.0688   32.2086   75.1010 H         1 38B         0.0541
     28 H          10.3544   34.4796   72.9948 H         1 38B         0.0580
     29 H          10.6344   34.5956   74.7653 H         1 38B         0.0580
     30 H          10.7783   33.0091   73.9352 H         1 38B         0.0580
@<TRIPOS>BOND
     1    1    2 1  
     2    2    3 2  
     3    2    4 1  
     4    3    8 1  
     5    4    5 am 
     6    5    6 2  
     7    5    7 1  
     8    7    8 2  
     9    7   11 1  
    10    8    9 1  
    11    9   10 1  
    12   10   11 2  
    13   11   12 1  
    14   12   13 ar 
    15   12   17 ar 
    16   13   14 ar 
    17   14   15 ar 
    18   15   16 ar 
    19   16   17 ar 
    20   17   18 1  
    21   18   19 1  
    22    1   20 1  
    23    1   21 1  
    24    1   22 1  
    25    4   23 1  
    26   13   24 1  
    27   14   25 1  
    28   15   26 1  
    29   16   27 1  
    30   19   28 1  
    31   19   29 1  
    32   19   30 1  
@<TRIPOS>SUBSTRUCTURE
     1 38B         1

