### 
### Created by X-TOOL on Mon Sep 10 21:13:18 2018
### 

@<TRIPOS>MOLECULE
4txc_ligand
   62    65     1     0     0
SMALL
GAST_HUCK


@<TRIPOS>ATOM
      1 CBF        63.6860   90.3670   17.5660 C.3       1 38G         0.0571
      2 OBE        64.4030   91.3850   16.8660 O.3       1 38G        -0.3232
      3 CAZ        63.8890   91.6980   15.6350 C.ar      1 38G         0.1271
      4 CAY        62.7580   91.0770   15.1100 C.ar      1 38G        -0.0235
      5 CBA        64.5630   92.6890   14.9100 C.ar      1 38G         0.1253
      6 OBD        65.6640   93.2230   15.4930 O.3       1 38G        -0.3309
      7 CBB        64.1490   93.0830   13.6400 C.ar      1 38G        -0.0322
      8 CBC        63.0190   92.4540   13.1280 C.ar      1 38G        -0.0624
      9 CAX        62.3180   91.4800   13.8540 C.ar      1 38G        -0.0051
     10 CAV        61.1700   90.9040   13.3100 C.ar      1 38G         0.0613
     11 CAU        60.5330   91.5620   12.2580 C.ar      1 38G        -0.0005
     12 CAT        59.3330   91.0630   11.7550 C.ar      1 38G         0.0343
     13 NAW        60.5280   89.8910   13.8980 N.ar      1 38G        -0.2554
     14 NAS        59.4300   89.4510   13.3980 N.ar      1 38G        -0.2269
     15 CAR        58.7960   90.0020   12.3440 C.ar      1 38G         0.1983
     16 NAQ        57.6700   89.3240   12.0980 N.pl3     1 38G        -0.1847
     17 CAP        57.6100   88.3260   13.0000 C.2       1 38G         0.1599
     18 CAG        58.6930   88.4060   13.7920 C.2       1 38G         0.1490
     19 CAB        58.9480   87.5650   14.8230 C.ar      1 38G         0.0500
     20 CAA        60.0490   87.7280   15.6770 C.ar      1 38G        -0.0108
     21 CAC        58.0880   86.4970   15.0760 C.ar      1 38G        -0.0230
     22 CAD        58.3370   85.6170   16.1380 C.ar      1 38G        -0.0361
     23 CAE        59.4450   85.7910   16.9660 C.ar      1 38G        -0.0229
     24 CAF        60.2980   86.8670   16.7420 C.ar      1 38G         0.0614
     25 CAH        61.4480   87.0470   17.5270 C.3       1 38G         0.1216
     26 OAI        61.3970   88.2780   18.2610 O.3       1 38G        -0.3399
     27 NAJ        61.6310   85.9120   18.4470 N.4       1 38G         0.2656
     28 CAK        62.9380   85.9590   19.1210 C.3       1 38G         0.0115
     29 CAL        64.0570   85.8860   18.0630 C.3       1 38G         0.0088
     30 NAM        65.3880   85.8820   18.6920 N.4       1 38G         0.2346
     31 CAO        65.5040   84.7000   19.5630 C.3       1 38G        -0.0431
     32 CAN        65.5340   87.0900   19.5190 C.3       1 38G        -0.0431
     33 H          64.1668   90.1823   18.5380 H         1 38G         0.0573
     34 H          63.6910   89.4408   16.9725 H         1 38G         0.0573
     35 H          62.6481   90.6940   17.7266 H         1 38G         0.0573
     36 H          62.2372   90.3038   15.6632 H         1 38G         0.0562
     37 H          66.0386   93.8796   14.9177 H         1 38G         0.2478
     38 H          64.6811   93.8423   13.0783 H         1 38G         0.0535
     39 H          62.6697   92.7247   12.1382 H         1 38G         0.0565
     40 H          60.9699   92.4585   11.8331 H         1 38G         0.0854
     41 H          58.8504   91.5298   10.9040 H         1 38G         0.0873
     42 H          56.8190   87.5812   13.0750 H         1 38G         0.1779
     43 H          60.7296   88.5533   15.5014 H         1 38G         0.0729
     44 H          57.2191   86.3460   14.4457 H         1 38G         0.0786
     45 H          57.6593   84.7903   16.3179 H         1 38G         0.0690
     46 H          59.6396   85.0961   17.7749 H         1 38G         0.0815
     47 H          62.3165   87.0874   16.8531 H         1 38G         0.1365
     48 H          62.2092   88.3937   18.7400 H         1 38G         0.2187
     49 H          61.5651   85.0535   17.9229 H         1 38G         0.2059
     50 H          60.9035   85.9368   19.1443 H         1 38G         0.2059
     51 H          63.0273   85.1065   19.8103 H         1 38G         0.0868
     52 H          63.0269   86.8985   19.6862 H         1 38G         0.0868
     53 H          63.9780   86.7579   17.3970 H         1 38G         0.0867
     54 H          63.9354   84.9638   17.4758 H         1 38G         0.0867
     55 H          66.1037   85.8604   17.9826 H         1 38G         0.2030
     56 H          66.4966   84.6899   20.0370 H         1 38G         0.0777
     57 H          65.3753   83.7877   18.9621 H         1 38G         0.0777
     58 H          64.7268   84.7397   20.3404 H         1 38G         0.0777
     59 H          65.4496   87.9828   18.8820 H         1 38G         0.0777
     60 H          66.5183   87.0816   20.0099 H         1 38G         0.0777
     61 H          64.7432   87.1089   20.2834 H         1 38G         0.0777
     62 H1         56.9806   89.5264   11.3599 H         1 38G         0.2760
@<TRIPOS>BOND
     1    1    2 1  
     2    2    3 1  
     3    3    4 ar 
     4    3    5 ar 
     5    4    9 ar 
     6    5    6 1  
     7    5    7 ar 
     8    7    8 ar 
     9    8    9 ar 
    10    9   10 1  
    11   10   11 ar 
    12   10   13 ar 
    13   11   12 ar 
    14   12   15 ar 
    15   13   14 ar 
    16   14   15 ar 
    17   14   18 1  
    18   15   16 1  
    19   16   17 1  
    20   17   18 2  
    21   18   19 1  
    22   19   20 ar 
    23   19   21 ar 
    24   20   24 ar 
    25   21   22 ar 
    26   22   23 ar 
    27   23   24 ar 
    28   24   25 1  
    29   25   26 1  
    30   25   27 1  
    31   27   28 1  
    32   28   29 1  
    33   29   30 1  
    34   30   31 1  
    35   30   32 1  
    36    1   33 1  
    37    1   34 1  
    38    1   35 1  
    39    4   36 1  
    40    6   37 1  
    41    7   38 1  
    42    8   39 1  
    43   11   40 1  
    44   12   41 1  
    45   17   42 1  
    46   20   43 1  
    47   21   44 1  
    48   22   45 1  
    49   23   46 1  
    50   25   47 1  
    51   26   48 1  
    52   27   49 1  
    53   27   50 1  
    54   28   51 1  
    55   28   52 1  
    56   29   53 1  
    57   29   54 1  
    58   30   55 1  
    59   31   56 1  
    60   31   57 1  
    61   31   58 1  
    62   32   59 1  
    63   32   60 1  
    64   32   61 1  
    65   16   62 1  
@<TRIPOS>SUBSTRUCTURE
     1 38G         1

