### 
### Created by X-TOOL on Mon Sep 10 21:13:17 2018
### 

@<TRIPOS>MOLECULE
4txe_ligand
   49    51     1     0     0
SMALL
GAST_HUCK


@<TRIPOS>ATOM
      1 CAO        38.5880   23.4020   27.2770 C.3       1 38F         0.0234
      2 CAP        39.2930   24.7610   27.3810 C.ar      1 38F        -0.0353
      3 CAS        39.5460   25.5940   28.4600 C.ar      1 38F        -0.0667
      4 CAT        40.2300   26.8190   28.2800 C.ar      1 38F        -0.0755
      5 CAU        40.6910   27.1680   27.0340 C.ar      1 38F        -0.0755
      6 CAV        40.4000   26.3410   25.9560 C.ar      1 38F        -0.0667
      7 CAQ        39.7020   25.1520   26.1190 C.ar      1 38F        -0.0353
      8 CAR        39.2680   24.0790   25.1220 C.3       1 38F         0.0234
      9 CAN        39.0410   22.8310   25.9380 C.3       1 38F        -0.0055
     10 NAM        38.0370   21.8890   25.3810 N.4       1 38F         0.2337
     11 CAL        38.6470   21.4330   24.1050 C.3       1 38F        -0.0039
     12 CAI        37.7240   20.6240   23.1880 C.3       1 38F         0.1220
     13 OAH        36.6130   20.0790   23.7480 O.3       1 38F        -0.3838
     14 CAJ        38.4770   19.5440   22.3670 C.3       1 38F         0.0996
     15 OAK        37.9670   18.1520   22.5060 O.3       1 38F        -0.3214
     16 CAF        38.5090   17.3490   21.4630 C.ar      1 38F         0.0776
     17 CAG        38.0920   16.0270   21.3130 C.ar      1 38F        -0.0385
     18 CAB        38.6170   15.2460   20.2540 C.ar      1 38F        -0.0527
     19 CAA        38.1310   13.7990   20.1340 C.3       1 38F        -0.0360
     20 CAC        39.5940   15.7560   19.3590 C.ar      1 38F        -0.0550
     21 CAW        40.1950   14.9270   18.2110 C.3       1 38F        -0.0387
     22 CAD        40.0140   17.0720   19.5050 C.ar      1 38F        -0.0755
     23 CAE        39.4650   17.8430   20.5310 C.ar      1 38F        -0.0466
     24 H          37.4956   23.5296   27.2943 H         1 38F         0.0468
     25 H          38.8933   22.7426   28.1028 H         1 38F         0.0468
     26 H          39.2165   25.3038   29.4511 H         1 38F         0.0537
     27 H          40.3900   27.4809   29.1234 H         1 38F         0.0541
     28 H          41.2716   28.0727   26.8942 H         1 38F         0.0541
     29 H          40.7259   26.6312   24.9637 H         1 38F         0.0537
     30 H          40.0561   23.9097   24.3736 H         1 38F         0.0468
     31 H          38.3393   24.3798   24.6150 H         1 38F         0.0468
     32 H          39.9892   22.2856   26.0534 H         1 38F         0.0895
     33 H          37.1603   22.3571   25.2126 H         1 38F         0.2020
     34 H          37.8885   21.1120   26.0057 H         1 38F         0.2020
     35 H          39.5169   20.8059   24.3497 H         1 38F         0.0840
     36 H          38.9806   22.3229   23.5511 H         1 38F         0.0840
     37 H          37.3497   21.3557   22.4570 H         1 38F         0.0674
     38 H          36.0701   20.7700   24.1089 H         1 38F         0.2101
     39 H          39.5299   19.5510   22.6855 H         1 38F         0.0639
     40 H          38.4133   19.8222   21.3047 H         1 38F         0.0639
     41 H          37.3716   15.6001   22.0014 H         1 38F         0.0462
     42 H          37.3802   13.5987   20.9125 H         1 38F         0.0375
     43 H          38.9826   13.1144   20.2611 H         1 38F         0.0375
     44 H          37.6810   13.6444   19.1422 H         1 38F         0.0375
     45 H          40.9261   15.5380   17.6612 H         1 38F         0.0355
     46 H          39.3929   14.6116   17.5275 H         1 38F         0.0355
     47 H          40.6959   14.0387   18.6233 H         1 38F         0.0355
     48 H          40.7546   17.4926   18.8344 H         1 38F         0.0511
     49 H          39.7842   18.8748   20.6232 H         1 38F         0.0468
@<TRIPOS>BOND
     1    1    2 1  
     2    1    9 1  
     3    2    3 ar 
     4    2    7 ar 
     5    3    4 ar 
     6    4    5 ar 
     7    5    6 ar 
     8    6    7 ar 
     9    7    8 1  
    10    8    9 1  
    11    9   10 1  
    12   10   11 1  
    13   11   12 1  
    14   12   13 1  
    15   12   14 1  
    16   14   15 1  
    17   15   16 1  
    18   16   17 ar 
    19   16   23 ar 
    20   17   18 ar 
    21   18   19 1  
    22   18   20 ar 
    23   20   21 1  
    24   20   22 ar 
    25   22   23 ar 
    26    1   24 1  
    27    1   25 1  
    28    3   26 1  
    29    4   27 1  
    30    5   28 1  
    31    6   29 1  
    32    8   30 1  
    33    8   31 1  
    34    9   32 1  
    35   10   33 1  
    36   10   34 1  
    37   11   35 1  
    38   11   36 1  
    39   12   37 1  
    40   13   38 1  
    41   14   39 1  
    42   14   40 1  
    43   17   41 1  
    44   19   42 1  
    45   19   43 1  
    46   19   44 1  
    47   21   45 1  
    48   21   46 1  
    49   21   47 1  
    50   22   48 1  
    51   23   49 1  
@<TRIPOS>SUBSTRUCTURE
     1 38F         1

