### 
### Created by X-TOOL on Mon Sep 10 21:13:25 2018
### 

@<TRIPOS>MOLECULE
4txs_ligand
   17    17     1     0     0
SMALL
GAST_HUCK


@<TRIPOS>ATOM
      1 C01        -2.7260  -22.4590   19.9390 C.ar      1 3AQ        -0.0667
      2 C02        -2.6970  -24.7910   18.3650 C.ar      1 3AQ        -0.0398
      3 C03        -3.7440  -24.5300   19.2390 C.ar      1 3AQ        -0.0667
      4 C04        -1.6700  -22.7230   19.0740 C.ar      1 3AQ        -0.0398
      5 C05        -4.9800  -23.2400   20.9410 C.3       1 3AQ         0.1014
      6 C06        -5.3170  -21.8460   21.3190 C.1       1 3AQ         0.1015
      7 O          -0.6220  -24.1920   17.3910 O.3       1 3AQ        -0.3376
      8 N          -5.4720  -20.7580   21.6180 N.1       1 3AQ        -0.3013
      9 C07        -1.6490  -23.8890   18.2780 C.ar      1 3AQ         0.0805
     10 C          -3.7820  -23.3720   20.0240 C.ar      1 3AQ        -0.0282
     11 H1         -2.7308  -21.5568   20.5400 H         1 3AQ         0.0531
     12 H2         -2.6996  -25.6893   17.7583 H         1 3AQ         0.0525
     13 H3         -4.5558  -25.2442   19.3155 H         1 3AQ         0.0531
     14 H4         -0.8471  -22.0203   19.0095 H         1 3AQ         0.0525
     15 H5         -5.8514  -23.6779   20.4322 H         1 3AQ         0.0699
     16 H6         -4.7711  -23.8043   21.8618 H         1 3AQ         0.0699
     17 H7         -0.8095  -25.0184   16.9616 H         1 3AQ         0.2458
@<TRIPOS>BOND
     1    1    4 ar 
     2   10    1 ar 
     3    3    2 ar 
     4    2    9 ar 
     5   10    3 ar 
     6    4    9 ar 
     7    5    6 1  
     8    5   10 1  
     9    6    8 3  
    10    9    7 1  
    11    1   11 1  
    12    2   12 1  
    13    3   13 1  
    14    4   14 1  
    15    5   15 1  
    16    5   16 1  
    17    7   17 1  
@<TRIPOS>SUBSTRUCTURE
     1 3AQ         1

