### 
### Created by X-TOOL on Mon Sep 10 21:13:23 2018
### 

@<TRIPOS>MOLECULE
4ty1_ligand
   50    54     1     0     0
SMALL
GAST_HUCK


@<TRIPOS>ATOM
      1 C01       -19.4360   29.0350    3.6560 C.3       1 38W        -0.0392
      2 C02       -19.9690   30.2770    2.8890 C.3       1 38W         0.0473
      3 C03       -21.4510   30.5390    3.2100 C.3       1 38W        -0.0392
      4 C04       -19.1400   31.5100    3.2840 C.3       1 38W        -0.0392
      5 N05       -19.8540   30.0000    1.4780 N.pl3     1 38W        -0.2615
      6 C06       -20.1830   30.9760    0.5000 C.2       1 38W         0.2893
      7 N07       -20.0560   30.7910   -0.8210 N.2       1 38W        -0.2488
      8 N08       -20.4530   31.9170   -1.4510 N.2       1 38W        -0.2625
      9 C09       -20.8450   32.7980   -0.5080 C.2       1 38W         0.2058
     10 O10       -20.6660   32.2240    0.7220 O.3       1 38W        -0.1742
     11 C11       -21.2910   34.0960   -0.7700 C.ar      1 38W         0.0241
     12 C12       -21.4080   34.5210   -2.1090 C.ar      1 38W        -0.0593
     13 C13       -21.8300   35.8110   -2.3990 C.ar      1 38W        -0.0376
     14 C14       -22.1280   36.7060   -1.3310 C.ar      1 38W         0.0740
     15 N15       -22.5580   38.0180   -1.3690 N.pl3     1 38W        -0.2654
     16 C16       -22.7270   38.4600   -0.0910 C.2       1 38W         0.0524
     17 C17       -22.3760   37.4440    0.8100 C.2       1 38W         0.0274
     18 C18       -22.4890   37.5240    2.2050 C.ar      1 38W         0.0925
     19 N19       -22.9880   38.6450    2.8170 N.ar      1 38W        -0.2844
     20 C20       -23.1560   38.7010    4.1770 C.ar      1 38W         0.0100
     21 C21       -22.8620   37.5720    4.9520 C.ar      1 38W        -0.0162
     22 C22       -22.3870   36.4250    4.2930 C.ar      1 38W         0.0378
     23 N23       -22.2260   36.4290    2.9470 N.ar      1 38W        -0.2762
     24 C24       -21.9910   35.1510    5.0140 C.3       1 38W         0.0128
     25 C25       -22.4150   33.6930    4.9620 C.3       1 38W        -0.0341
     26 C26       -21.1130   34.1220    4.3230 C.3       1 38W        -0.0341
     27 C27       -22.0110   36.3120   -0.0060 C.ar      1 38W        -0.0046
     28 C28       -21.5700   34.9800    0.2820 C.ar      1 38W        -0.0556
     29 H1        -19.5096   29.2134    4.7389 H         1 38W         0.0255
     30 H2        -18.3847   28.8594    3.3840 H         1 38W         0.0255
     31 H3        -20.0363   28.1531    3.3881 H         1 38W         0.0255
     32 H4        -21.7963   31.4223    2.6526 H         1 38W         0.0255
     33 H5        -21.5663   30.7183    4.2891 H         1 38W         0.0255
     34 H6        -22.0498   29.6638    2.9176 H         1 38W         0.0255
     35 H7        -18.0795   31.3271    3.0562 H         1 38W         0.0255
     36 H8        -19.2561   31.7002    4.3612 H         1 38W         0.0255
     37 H9        -19.4911   32.3849    2.7172 H         1 38W         0.0255
     38 H10       -19.5256   29.0727    1.1726 H         1 38W         0.1897
     39 H11       -21.1674   33.8376   -2.9153 H         1 38W         0.0562
     40 H12       -21.9320   36.1347   -3.4285 H         1 38W         0.0560
     41 H13       -22.7235   38.5709   -2.2221 H         1 38W         0.2349
     42 H14       -23.0808   39.4514    0.1882 H         1 38W         0.1104
     43 H15       -23.5128   39.6101    4.6475 H         1 38W         0.0888
     44 H16       -22.9967   37.5825    6.0275 H         1 38W         0.0652
     45 H17       -21.7024   35.4881    6.0205 H         1 38W         0.0515
     46 H18       -23.2632   33.3894    4.3308 H         1 38W         0.0297
     47 H19       -22.4032   33.0842    5.8781 H         1 38W         0.0297
     48 H20       -20.1551   33.8248    4.7747 H         1 38W         0.0297
     49 H21       -21.0150   34.1301    3.2274 H         1 38W         0.0297
     50 H22       -21.4523   34.6564    1.3099 H         1 38W         0.0578
@<TRIPOS>BOND
     1    1    2 1  
     2    2    3 1  
     3    2    4 1  
     4    2    5 1  
     5    5    6 1  
     6    6    7 2  
     7    6   10 1  
     8    7    8 1  
     9    8    9 2  
    10    9   10 1  
    11    9   11 1  
    12   11   12 ar 
    13   11   28 ar 
    14   12   13 ar 
    15   13   14 ar 
    16   14   15 1  
    17   14   27 ar 
    18   15   16 1  
    19   16   17 2  
    20   17   18 1  
    21   17   27 1  
    22   18   19 ar 
    23   18   23 ar 
    24   19   20 ar 
    25   20   21 ar 
    26   21   22 ar 
    27   22   23 ar 
    28   22   24 1  
    29   24   25 1  
    30   24   26 1  
    31   25   26 1  
    32   27   28 ar 
    33    1   29 1  
    34    1   30 1  
    35    1   31 1  
    36    3   32 1  
    37    3   33 1  
    38    3   34 1  
    39    4   35 1  
    40    4   36 1  
    41    4   37 1  
    42    5   38 1  
    43   12   39 1  
    44   13   40 1  
    45   15   41 1  
    46   16   42 1  
    47   20   43 1  
    48   21   44 1  
    49   24   45 1  
    50   25   46 1  
    51   25   47 1  
    52   26   48 1  
    53   26   49 1  
    54   28   50 1  
@<TRIPOS>SUBSTRUCTURE
     1 38W         1

