### 
### Created by X-TOOL on Mon Sep 10 21:13:17 2018
### 

@<TRIPOS>MOLECULE
4ty6_ligand
   65    68     1     0     0
SMALL
GAST_HUCK


@<TRIPOS>ATOM
      1 C18        39.0220  -16.4390   27.8590 C.3       1 39D        -0.0328
      2 C17        38.2340  -17.5600   28.5660 C.3       1 39D         0.0488
      3 C15        39.1690  -18.6170   29.1360 C.2       1 39D         0.1817
      4 C19        38.0840  -15.3340   27.3360 C.3       1 39D        -0.0431
      5 C20        37.2080  -14.7530   28.4410 C.3       1 39D        -0.0006
      6 C21        36.4210  -15.8830   29.0870 C.3       1 39D        -0.0431
      7 C22        37.3430  -16.9660   29.6630 C.3       1 39D        -0.0328
      8 C23        36.2910  -13.6380   27.9290 C.3       1 39D        -0.0325
      9 C11        41.4320  -20.7600   28.9200 C.2       1 39D         0.1442
     10 C12        39.9430  -20.9140   28.9150 C.3       1 39D         0.1280
     11 C27        47.0600  -20.8330   30.6920 C.ar      1 39D        -0.0476
     12 C1         40.2460  -23.4010   28.5920 C.ar      1 39D        -0.0383
     13 C2         40.0220  -23.9040   29.8670 C.ar      1 39D        -0.0601
     14 C3         40.7590  -24.9770   30.3470 C.ar      1 39D        -0.0686
     15 C4         41.7310  -25.5590   29.5590 C.ar      1 39D        -0.0687
     16 C5         41.9760  -25.0590   28.2940 C.ar      1 39D        -0.0686
     17 C6         41.2350  -23.9870   27.8140 C.ar      1 39D        -0.0601
     18 N7         42.2290  -21.0200   29.9430 N.2       1 39D        -0.3249
     19 C8         43.5090  -20.8470   29.4510 C.2       1 39D         0.0164
     20 C9         43.4500  -20.4850   28.1350 C.2       1 39D         0.0446
     21 N10        42.1290  -20.4180   27.8140 N.pl3     1 39D        -0.2542
     22 N13        39.2590  -19.7350   28.4120 N.am      1 39D        -0.2642
     23 C14        39.5270  -22.1610   28.1150 C.3       1 39D         0.0203
     24 O16        39.7520  -18.4660   30.2140 O.2       1 39D        -0.3966
     25 N24        37.0100  -12.4680   27.4140 N.4       1 39D         0.2187
     26 C25        44.6840  -21.0560   30.3130 C.ar      1 39D        -0.0274
     27 C26        45.9240  -20.5300   29.9580 C.ar      1 39D        -0.0566
     28 C28        46.9840  -21.6320   31.8310 C.ar      1 39D         0.0437
     29 C29        45.7340  -22.1270   32.2070 C.ar      1 39D        -0.0476
     30 C30        44.6050  -21.8520   31.4530 C.ar      1 39D        -0.0566
     31 C31        48.2820  -21.9580   32.5610 C.2       1 39D         0.1981
     32 O32        49.3750  -21.5590   32.0880 O.2       1 39D        -0.3878
     33 N33        48.2210  -22.6690   33.6790 N.am      1 39D        -0.3010
     34 H          39.5743  -16.8701   27.0110 H         1 39D         0.0292
     35 H          39.7327  -15.9966   28.5726 H         1 39D         0.0292
     36 H          37.5857  -18.0456   27.8217 H         1 39D         0.0538
     37 H          37.4352  -15.7594   26.5562 H         1 39D         0.0271
     38 H          38.6936  -14.5260   26.9053 H         1 39D         0.0271
     39 H          37.8673  -14.3141   29.2044 H         1 39D         0.0352
     40 H          35.7667  -16.3391   28.3295 H         1 39D         0.0271
     41 H          35.8071  -15.4691   29.9005 H         1 39D         0.0271
     42 H          37.9786  -16.5214   30.4429 H         1 39D         0.0292
     43 H          36.7292  -17.7662   30.1022 H         1 39D         0.0292
     44 H          35.6465  -13.3112   28.7583 H         1 39D         0.0816
     45 H          35.6682  -14.0460   27.1193 H         1 39D         0.0816
     46 H          39.6240  -21.0607   29.9574 H         1 39D         0.0822
     47 H          48.0207  -20.4431   30.3756 H         1 39D         0.0653
     48 H          39.2621  -23.4528   30.4947 H         1 39D         0.0557
     49 H          40.5708  -25.3592   31.3438 H         1 39D         0.0599
     50 H          42.2995  -26.4040   29.9303 H         1 39D         0.0559
     51 H          42.7473  -25.5040   27.6759 H         1 39D         0.0599
     52 H          41.4314  -23.6031   26.8194 H         1 39D         0.0557
     53 H          44.2928  -20.2889   27.4739 H         1 39D         0.0895
     54 H          41.7345  -20.1557   26.8994 H         1 39D         0.2412
     55 H          38.8458  -19.7616   27.5018 H         1 39D         0.1889
     56 H          39.7646  -21.9983   27.0534 H         1 39D         0.0477
     57 H          38.4434  -22.3119   28.2293 H         1 39D         0.0477
     58 H          36.3465  -11.7789   27.0963 H         1 39D         0.1994
     59 H          37.5988  -12.7471   26.6449 H         1 39D         0.1994
     60 H          37.5789  -12.0738   28.1468 H         1 39D         0.1994
     61 H          46.0015  -19.8757   29.0972 H         1 39D         0.0585
     62 H          45.6458  -22.7344   33.1005 H         1 39D         0.0653
     63 H          43.6476  -22.2617   31.7542 H         1 39D         0.0585
     64 H          49.0598  -22.8946   34.1745 H         1 39D         0.1806
     65 H          47.3362  -22.9794   34.0265 H         1 39D         0.1806
@<TRIPOS>BOND
     1    2    1 1  
     2    1    4 1  
     3    3    2 1  
     4    2    7 1  
     5   22    3 am 
     6    3   24 2  
     7    4    5 1  
     8    6    5 1  
     9    5    8 1  
    10    7    6 1  
    11    8   25 1  
    12    9   10 1  
    13   18    9 2  
    14   21    9 1  
    15   10   22 1  
    16   10   23 1  
    17   27   11 ar 
    18   11   28 ar 
    19   12   13 ar 
    20   12   17 ar 
    21   23   12 1  
    22   13   14 ar 
    23   14   15 ar 
    24   16   15 ar 
    25   17   16 ar 
    26   19   18 1  
    27   19   20 2  
    28   26   19 1  
    29   20   21 1  
    30   26   27 ar 
    31   26   30 ar 
    32   28   29 ar 
    33   28   31 1  
    34   29   30 ar 
    35   31   32 2  
    36   31   33 am 
    37    1   34 1  
    38    1   35 1  
    39    2   36 1  
    40    4   37 1  
    41    4   38 1  
    42    5   39 1  
    43    6   40 1  
    44    6   41 1  
    45    7   42 1  
    46    7   43 1  
    47    8   44 1  
    48    8   45 1  
    49   10   46 1  
    50   11   47 1  
    51   13   48 1  
    52   14   49 1  
    53   15   50 1  
    54   16   51 1  
    55   17   52 1  
    56   20   53 1  
    57   21   54 1  
    58   22   55 1  
    59   23   56 1  
    60   23   57 1  
    61   25   58 1  
    62   25   59 1  
    63   25   60 1  
    64   27   61 1  
    65   29   62 1  
    66   30   63 1  
    67   33   64 1  
    68   33   65 1  
@<TRIPOS>SUBSTRUCTURE
     1 39D         1

