### 
### Created by X-TOOL on Mon Sep 10 21:13:17 2018
### 

@<TRIPOS>MOLECULE
4ty7_ligand
   66    70     1     0     0
SMALL
GAST_HUCK


@<TRIPOS>ATOM
      1 C13        43.3180  -20.7680   29.2950 C.2       1 39F         0.0280
      2 C18        37.0790  -16.9450   29.4050 C.3       1 39F        -0.0328
      3 C17        38.9840  -18.4880   28.9910 C.2       1 39F         0.1817
      4 C16        41.2260  -20.6240   28.6660 C.2       1 39F         0.1438
      5 C15        43.2270  -20.4720   27.9460 C.2       1 39F         0.1449
      6 C19        38.9440  -16.2560   27.7610 C.3       1 39F        -0.0328
      7 C20        36.2080  -15.7740   28.9140 C.3       1 39F        -0.0431
      8 C21        38.0230  -15.1310   27.2390 C.3       1 39F        -0.0431
      9 C22        38.1240  -17.4130   28.3800 C.3       1 39F         0.0488
     10 C23        37.0820  -14.6190   28.3540 C.3       1 39F        -0.0006
     11 C24        39.2740  -22.1150   28.0390 C.3       1 39F         0.0203
     12 C11        40.0950  -23.3030   28.5160 C.ar      1 39F        -0.0383
     13 C12        46.7530  -20.9130   30.6750 C.ar      1 39F        -0.0577
     14 C1         41.7000  -25.3960   29.4660 C.ar      1 39F        -0.0687
     15 C2         41.9320  -24.8620   28.1820 C.ar      1 39F        -0.0686
     16 C3         40.6800  -24.8740   30.2660 C.ar      1 39F        -0.0686
     17 C4         45.3250  -22.3170   32.0620 C.ar      1 39F        -0.0437
     18 C5         44.2460  -21.9410   31.2400 C.ar      1 39F        -0.0600
     19 C6         41.1300  -23.8120   27.7140 C.ar      1 39F        -0.0601
     20 C7         39.9030  -23.8090   29.8100 C.ar      1 39F        -0.0601
     21 C8         45.6840  -20.4920   29.8720 C.ar      1 39F        -0.0660
     22 C9         46.6050  -21.7960   31.7550 C.ar      1 39F         0.0706
     23 C10        44.4280  -21.0580   30.1580 C.ar      1 39F        -0.0310
     24 C14        47.9210  -21.9250   32.2790 C.2       1 39F         0.2363
     25 C25        36.2000  -13.4510   27.8680 C.3       1 39F        -0.0325
     26 C26        39.7200  -20.8100   28.7620 C.3       1 39F         0.1281
     27 N27        48.8150  -21.2250   31.5820 N.pl3     1 39F        -0.2556
     28 N28        41.9160  -20.3620   27.5820 N.pl3     1 39F        -0.2453
     29 N29        48.0880  -20.6060   30.6310 N.2       1 39F        -0.4412
     30 N30        42.0350  -20.9460   29.7090 N.2       1 39F        -0.3243
     31 N31        48.2080  -22.7050   33.3540 N.pl3     1 39F        -0.2615
     32 N32        37.0110  -12.3380   27.4490 N.4       1 39F         0.2187
     33 N33        38.9810  -19.6620   28.2840 N.am      1 39F        -0.2641
     34 O34        39.5960  -18.3250   30.0530 O.2       1 39F        -0.3966
     35 CL1        44.4780  -20.1680   26.7930 Cl        1 39F        -0.0439
     36 H          36.4193  -17.7934   29.6397 H         1 39F         0.0292
     37 H          37.6058  -16.6269   30.3168 H         1 39F         0.0292
     38 H          39.6153  -15.8424   28.5280 H         1 39F         0.0292
     39 H          39.5407  -16.6477   26.9241 H         1 39F         0.0292
     40 H          35.6092  -15.3951   29.7553 H         1 39F         0.0271
     41 H          35.5377  -16.1341   28.1196 H         1 39F         0.0271
     42 H          37.4166  -15.5199   26.4078 H         1 39F         0.0271
     43 H          38.6433  -14.2961   26.8811 H         1 39F         0.0271
     44 H          37.5719  -17.8767   27.5492 H         1 39F         0.0538
     45 H          37.7107  -14.2434   29.1747 H         1 39F         0.0352
     46 H          38.2114  -22.3012   28.2537 H         1 39F         0.0477
     47 H          39.4131  -21.9923   26.9548 H         1 39F         0.0477
     48 H          42.3128  -26.2115   29.8327 H         1 39F         0.0559
     49 H          42.7256  -25.2609   27.5606 H         1 39F         0.0599
     50 H          40.4917  -25.2986   31.2454 H         1 39F         0.0599
     51 H          45.1804  -22.9846   32.9037 H         1 39F         0.0621
     52 H          43.2580  -22.3379   31.4433 H         1 39F         0.0577
     53 H          41.3088  -23.3917   26.7309 H         1 39F         0.0557
     54 H          39.1502  -23.3721   30.4562 H         1 39F         0.0557
     55 H          45.8176  -19.7700   29.0745 H         1 39F         0.0571
     56 H          35.5428  -13.1293   28.6894 H         1 39F         0.0816
     57 H          35.5874  -13.7903   27.0197 H         1 39F         0.0816
     58 H          39.4767  -20.9267   29.8284 H         1 39F         0.0823
     59 H          49.8320  -21.1695   31.7354 H         1 39F         0.2537
     60 H          41.5461  -20.1232   26.6508 H         1 39F         0.2393
     61 H          47.4540  -23.2141   33.8368 H         1 39F         0.2096
     62 H          49.1796  -22.7871   33.6860 H         1 39F         0.2096
     63 H          36.4155  -11.5874   27.1359 H         1 39F         0.1994
     64 H          37.6131  -12.6264   26.6938 H         1 39F         0.1994
     65 H          37.5722  -12.0207   28.2238 H         1 39F         0.1994
     66 H          38.4636  -19.7256   27.4306 H         1 39F         0.1889
@<TRIPOS>BOND
     1    1    5 2  
     2    1   23 1  
     3   30    1 1  
     4    2    7 1  
     5    9    2 1  
     6    3    9 1  
     7   33    3 am 
     8    3   34 2  
     9   26    4 1  
    10    4   28 1  
    11    4   30 2  
    12   28    5 1  
    13    5   35 1  
    14    6    8 1  
    15    9    6 1  
    16    7   10 1  
    17    8   10 1  
    18   10   25 1  
    19   11   12 1  
    20   26   11 1  
    21   12   19 ar 
    22   12   20 ar 
    23   21   13 ar 
    24   13   22 ar 
    25   13   29 2  
    26   15   14 ar 
    27   16   14 ar 
    28   19   15 ar 
    29   20   16 ar 
    30   18   17 ar 
    31   17   22 ar 
    32   23   18 ar 
    33   23   21 ar 
    34   22   24 2  
    35   24   27 1  
    36   24   31 1  
    37   25   32 1  
    38   26   33 1  
    39   27   29 1  
    40    2   36 1  
    41    2   37 1  
    42    6   38 1  
    43    6   39 1  
    44    7   40 1  
    45    7   41 1  
    46    8   42 1  
    47    8   43 1  
    48    9   44 1  
    49   10   45 1  
    50   11   46 1  
    51   11   47 1  
    52   14   48 1  
    53   15   49 1  
    54   16   50 1  
    55   17   51 1  
    56   18   52 1  
    57   19   53 1  
    58   20   54 1  
    59   21   55 1  
    60   25   56 1  
    61   25   57 1  
    62   26   58 1  
    63   27   59 1  
    64   28   60 1  
    65   31   61 1  
    66   31   62 1  
    67   32   63 1  
    68   32   64 1  
    69   32   65 1  
    70   33   66 1  
@<TRIPOS>SUBSTRUCTURE
     1 39F         1

