### 
### Created by X-TOOL on Mon Sep 10 21:13:24 2018
### 

@<TRIPOS>MOLECULE
4ty8_ligand
   20    21     1     0     0
SMALL
GAST_HUCK


@<TRIPOS>ATOM
      1 C01         7.0680  -23.9150  -22.9150 C.3       1 3AV        -0.0347
      2 C02         3.2420  -24.6810  -21.1460 C.ar      1 3AV         0.1355
      3 C03         3.5160  -24.9830  -22.4750 C.ar      1 3AV        -0.0261
      4 C04         1.6480  -24.6870  -19.3990 C.2       1 3AV         0.2623
      5 C05         3.9420  -23.7880  -19.0200 C.2       1 3AV        -0.0398
      6 C06         5.4760  -23.8540  -20.9440 C.ar      1 3AV        -0.0539
      7 C07         2.6850  -24.0710  -18.5410 C.2       1 3AV         0.0213
      8 O01         1.9670  -24.9800  -20.6890 O.3       1 3AV        -0.2127
      9 C08         5.7430  -24.1710  -22.2790 C.ar      1 3AV        -0.0508
     10 C09         4.2290  -24.1010  -20.3550 C.ar      1 3AV         0.0182
     11 C           4.7520  -24.7390  -23.0480 C.ar      1 3AV        -0.0626
     12 O           0.3930  -24.9690  -18.9630 O.2       1 3AV        -0.3750
     13 H1          7.7472  -23.4621  -22.1777 H         1 3AV         0.0373
     14 H2          6.9401  -23.2292  -23.7655 H         1 3AV         0.0373
     15 H3          7.4937  -24.8649  -23.2707 H         1 3AV         0.0373
     16 H4          2.7350  -25.4247  -23.0833 H         1 3AV         0.0554
     17 H5          4.6950  -23.3324  -18.3785 H         1 3AV         0.0745
     18 H6          6.2588  -23.4026  -20.3453 H         1 3AV         0.0558
     19 H7          2.4462  -23.8362  -17.5048 H         1 3AV         0.0635
     20 H8          4.9370  -24.9911  -24.0859 H         1 3AV         0.0572
@<TRIPOS>BOND
     1    9    1 1  
     2    2    3 ar 
     3    2    8 1  
     4   10    2 ar 
     5    3   11 ar 
     6    7    4 1  
     7    8    4 1  
     8    4   12 2  
     9    5    7 2  
    10   10    5 1  
    11    6    9 ar 
    12    6   10 ar 
    13    9   11 ar 
    14    1   13 1  
    15    1   14 1  
    16    1   15 1  
    17    3   16 1  
    18    5   17 1  
    19    6   18 1  
    20    7   19 1  
    21   11   20 1  
@<TRIPOS>SUBSTRUCTURE
     1 3AV         1

