### 
### Created by X-TOOL on Mon Sep 10 21:13:25 2018
### 

@<TRIPOS>MOLECULE
4ty9_ligand
   16    16     1     0     0
SMALL
GAST_HUCK


@<TRIPOS>ATOM
      1 C01        -3.9800  -20.2860  -36.9490 C.ar      1 3B0         0.0134
      2 F01        -0.9990  -18.0820  -35.0210 F         1 3B0        -0.2299
      3 F02         0.4620  -18.8580  -36.5080 F         1 3B0        -0.2299
      4 C02        -1.6960  -19.6390  -36.6030 C.ar      1 3B0         0.0577
      5 C03        -2.9840  -19.8140  -36.1000 C.ar      1 3B0        -0.0262
      6 C04        -0.5980  -19.1350  -35.7240 C.3       1 3B0         0.3691
      7 F          -0.3440  -20.0550  -34.8070 F         1 3B0        -0.2299
      8 C05        -1.4400  -19.9540  -37.9380 C.ar      1 3B0         0.0318
      9 N01        -2.3860  -20.4130  -38.7790 N.ar      1 3B0        -0.2436
     10 C          -3.6240  -20.5640  -38.2670 C.ar      1 3B0         0.1445
     11 N          -4.6360  -21.0480  -39.1490 N.pl3     1 3B0        -0.3032
     12 H1         -4.9952  -20.4320  -36.5981 H         1 3B0         0.0698
     13 H2         -3.2062  -19.5860  -35.0638 H         1 3B0         0.0902
     14 H3         -0.4324  -19.8231  -38.3157 H         1 3B0         0.1052
     15 H4         -4.4049  -21.2628  -40.1295 H         1 3B0         0.1905
     16 H5         -5.5976  -21.1825  -38.8051 H         1 3B0         0.1905
@<TRIPOS>BOND
     1    5    1 ar 
     2    1   10 ar 
     3    6    2 1  
     4    6    3 1  
     5    4    5 ar 
     6    4    6 1  
     7    4    8 ar 
     8    6    7 1  
     9    8    9 ar 
    10    9   10 ar 
    11   10   11 1  
    12    1   12 1  
    13    5   13 1  
    14    8   14 1  
    15   11   15 1  
    16   11   16 1  
@<TRIPOS>SUBSTRUCTURE
     1 3B0         1

