### 
### Created by X-TOOL on Mon Sep 10 21:13:24 2018
### 

@<TRIPOS>MOLECULE
4tya_ligand
   17    17     1     0     0
SMALL
GAST_HUCK


@<TRIPOS>ATOM
      1 O01        -0.2300   21.5770   45.6060 O.co2     1 3AE        -0.5539
      2 C01         0.4370   21.0140   42.8820 C.ar      1 3AE        -0.0190
      3 C02         1.3770   21.4600   43.8100 C.ar      1 3AE         0.0376
      4 F01         2.8380   20.9420   39.1130 F         1 3AE        -0.2196
      5 F02         3.5240   19.0860   39.9450 F         1 3AE        -0.2196
      6 O           1.5270   22.8040   45.7750 O.co2     1 3AE        -0.5539
      7 C03         0.8680   21.9640   45.1300 C.2       1 3AE         0.0811
      8 C04         3.0990   20.9190   42.2220 C.ar      1 3AE        -0.0290
      9 C05         2.1530   20.4690   41.2920 C.ar      1 3AE         0.0496
     10 C06         2.7310   21.4150   43.4810 C.ar      1 3AE        -0.0190
     11 F           1.4880   19.3120   39.3700 F         1 3AE        -0.2196
     12 C07         2.5140   19.9440   39.9240 C.3       1 3AE         0.3779
     13 C           0.8190   20.5210   41.6440 C.ar      1 3AE        -0.0290
     14 H1         -0.6165   21.0536   43.1343 H         1 3AE         0.0727
     15 H2          4.1502   20.8826   41.9598 H         1 3AE         0.0855
     16 H3          3.4831   21.7560   44.1832 H         1 3AE         0.0727
     17 H4          0.0648   20.1737   40.9471 H         1 3AE         0.0855
@<TRIPOS>BOND
     1    7    1 ar 
     2    3    2 ar 
     3    2   13 ar 
     4    3    7 1  
     5   10    3 ar 
     6   12    4 1  
     7   12    5 1  
     8    7    6 ar 
     9    9    8 ar 
    10    8   10 ar 
    11    9   12 1  
    12    9   13 ar 
    13   12   11 1  
    14    2   14 1  
    15    8   15 1  
    16   10   16 1  
    17   13   17 1  
@<TRIPOS>SUBSTRUCTURE
     1 3AE         1

