### 
### Created by X-TOOL on Mon Sep 10 21:13:24 2018
### 

@<TRIPOS>MOLECULE
4tyb_ligand
   30    31     1     0     0
SMALL
GAST_HUCK


@<TRIPOS>ATOM
      1 C10        -3.9240  -25.4160   17.3890 C.ar      1 3B1        -0.0683
      2 C01        -4.3060  -24.7490   18.5450 C.ar      1 3B1        -0.0527
      3 N01        -3.5210  -20.2280   20.4200 N.1       1 3B1        -0.2950
      4 C02        -3.4570  -24.6590   16.2950 C.ar      1 3B1        -0.0687
      5 C03        -6.6230  -23.5270   22.4140 C.3       1 3B1         0.0878
      6 C04        -4.2210  -23.3460   18.6570 C.ar      1 3B1         0.0315
      7 C05        -5.3330  -22.7610   22.2520 C.3       1 3B1        -0.0040
      8 N          -4.4820  -23.2710   21.1910 N.4       1 3B1         0.2715
      9 C06        -3.3880  -23.2540   16.3850 C.ar      1 3B1        -0.0683
     10 C07        -5.6820  -25.3710   21.4450 C.3       1 3B1         0.0878
     11 C08        -3.9790  -21.3280   20.2030 C.1       1 3B1         0.1580
     12 C09        -4.6720  -22.5890   19.9170 C.3       1 3B1         0.1368
     13 O          -6.4800  -24.8970   22.4810 O.3       1 3B1        -0.3693
     14 C11        -3.7710  -22.5920   17.5480 C.ar      1 3B1        -0.0527
     15 C          -4.3250  -24.6580   21.5070 C.3       1 3B1        -0.0040
     16 H1         -3.9835  -26.4967   17.3287 H         1 3B1         0.0599
     17 H2         -4.6801  -25.3229   19.3851 H         1 3B1         0.0559
     18 H3         -3.1505  -25.1584   15.3830 H         1 3B1         0.0559
     19 H4         -7.2698  -23.2925   21.5557 H         1 3B1         0.0613
     20 H5         -7.1075  -23.1882   23.3416 H         1 3B1         0.0613
     21 H6         -4.7764  -22.8133   23.1993 H         1 3B1         0.0838
     22 H7         -5.5773  -21.7122   22.0277 H         1 3B1         0.0838
     23 H8         -3.5639  -22.9235   21.4197 H         1 3B1         0.2076
     24 H9         -3.0317  -22.6810   15.5366 H         1 3B1         0.0599
     25 H10        -6.1661  -25.1630   20.4794 H         1 3B1         0.0613
     26 H11        -5.5361  -26.4556   21.5560 H         1 3B1         0.0613
     27 H12        -5.7438  -22.3851   19.7768 H         1 3B1         0.1337
     28 H13        -3.7249  -21.5104   17.6032 H         1 3B1         0.0559
     29 H14        -3.9092  -24.7552   22.5207 H         1 3B1         0.0838
     30 H15        -3.6380  -25.1204   20.7830 H         1 3B1         0.0838
@<TRIPOS>BOND
     1    2    1 ar 
     2    1    4 ar 
     3    6    2 ar 
     4   11    3 3  
     5    9    4 ar 
     6    7    5 1  
     7    5   13 1  
     8   12    6 1  
     9    6   14 ar 
    10    8    7 1  
    11   12    8 1  
    12    8   15 1  
    13   14    9 ar 
    14   10   13 1  
    15   15   10 1  
    16   11   12 1  
    17    1   16 1  
    18    2   17 1  
    19    4   18 1  
    20    5   19 1  
    21    5   20 1  
    22    7   21 1  
    23    7   22 1  
    24    8   23 1  
    25    9   24 1  
    26   10   25 1  
    27   10   26 1  
    28   12   27 1  
    29   14   28 1  
    30   15   29 1  
    31   15   30 1  
@<TRIPOS>SUBSTRUCTURE
     1 3B1         1

