### 
### Created by X-TOOL on Mon Sep 10 21:13:17 2018
### 

@<TRIPOS>MOLECULE
4tyl_ligand
   27    28     1     0     0
SMALL
GAST_HUCK


@<TRIPOS>ATOM
      1 CAA        10.9700  -20.0430    9.5440 C.3       1 39O        -0.0443
      2 CAH        12.0830  -21.0620    9.6060 C.ar      1 39O        -0.0542
      3 CAF        12.1570  -21.9490   10.6860 C.ar      1 39O        -0.0613
      4 CAK        13.2180  -22.9290   10.7710 C.ar      1 39O         0.0751
      5 NAM        13.5310  -23.9010   11.7070 N.am      1 39O        -0.2178
      6 CAB        12.7680  -24.1770   12.9150 C.3       1 39O         0.0414
      7 CAJ        14.6400  -24.5670   11.2820 C.2       1 39O         0.3064
      8 OAE        15.1490  -25.4750   11.8650 O.2       1 39O        -0.3972
      9 NAN        15.0540  -24.0430   10.1370 N.am      1 39O        -0.2159
     10 CAC        16.2090  -24.4590    9.3660 C.3       1 39O         0.0425
     11 CAL        14.1650  -23.0150    9.7940 C.ar      1 39O         0.0764
     12 CAG        14.0950  -22.0950    8.6910 C.ar      1 39O        -0.0415
     13 CAI        13.0650  -21.1400    8.5990 C.ar      1 39O         0.0100
     14 NAD        13.0330  -20.2510    7.4590 N.pl3     1 39O        -0.3503
     15 H          10.3198  -20.1563   10.4240 H         1 39O         0.0337
     16 H          10.3796  -20.2000    8.6293 H         1 39O         0.0337
     17 H          11.3999  -19.0306    9.5337 H         1 39O         0.0337
     18 H          11.4093  -21.9011   11.4694 H         1 39O         0.0375
     19 H          11.9272  -23.4713   12.9868 H         1 39O         0.0543
     20 H          13.4191  -24.0623   13.7942 H         1 39O         0.0543
     21 H          12.3808  -25.2059   12.8771 H         1 39O         0.0543
     22 H          16.7156  -25.2875    9.8826 H         1 39O         0.0546
     23 H          16.9039  -23.6128    9.2610 H         1 39O         0.0546
     24 H          15.8839  -24.7924    8.3694 H         1 39O         0.0546
     25 H          14.8505  -22.1378    7.9149 H         1 39O         0.0343
     26 H          12.2863  -19.5464    7.3762 H         1 39O         0.1655
     27 H          13.7570  -20.3223    6.7298 H         1 39O         0.1655
@<TRIPOS>BOND
     1    1    2 1  
     2    2    3 ar 
     3    2   13 ar 
     4    3    4 ar 
     5    4    5 1  
     6    4   11 ar 
     7    5    6 1  
     8    5    7 am 
     9    7    8 2  
    10    7    9 am 
    11    9   10 1  
    12    9   11 1  
    13   11   12 ar 
    14   12   13 ar 
    15   13   14 1  
    16    1   15 1  
    17    1   16 1  
    18    1   17 1  
    19    3   18 1  
    20    6   19 1  
    21    6   20 1  
    22    6   21 1  
    23   10   22 1  
    24   10   23 1  
    25   10   24 1  
    26   12   25 1  
    27   14   26 1  
    28   14   27 1  
@<TRIPOS>SUBSTRUCTURE
     1 39O         1

