### 
### Created by X-TOOL on Mon Sep 10 21:13:18 2018
### 

@<TRIPOS>MOLECULE
4tyo_ligand
   43    46     1     0     0
SMALL
GAST_HUCK


@<TRIPOS>ATOM
      1 O3         16.1950   -0.4420    0.4930 O.co2     1 39X        -0.5664
      2 C21        15.2710    0.2610    0.0190 C.2       1 39X         0.0629
      3 O2         14.6490    0.0450   -1.0560 O.co2     1 39X        -0.5664
      4 C20        14.8860    1.5200    0.8080 C.3       1 39X         0.1114
      5 C12        15.9070    2.6120    0.4720 C.3       1 39X         0.0641
      6 C13        15.5950    3.9630    1.0020 C.2       1 39X         0.1230
      7 N3         14.7580    4.8180    0.4450 N.2       1 39X        -0.3205
      8 C15        14.7490    5.9250    1.2980 C.ar      1 39X         0.0174
      9 C19        14.0160    7.1120    1.2480 C.ar      1 39X        -0.0662
     10 C18        14.1880    8.0630    2.2450 C.ar      1 39X        -0.0442
     11 C17        15.0870    7.8030    3.2590 C.ar      1 39X         0.1174
     12 F1         15.2170    8.7150    4.2620 F         1 39X        -0.1922
     13 C16        15.8230    6.6390    3.3520 C.ar      1 39X        -0.0093
     14 C14        15.6240    5.6950    2.3590 C.ar      1 39X         0.0764
     15 N2         16.1240    4.4250    2.1540 N.pl3     1 39X        -0.2477
     16 N1         13.5220    1.9390    0.5010 N.am      1 39X        -0.2682
     17 C1         12.7390    2.5010    1.4340 C.2       1 39X         0.2065
     18 O1         13.1020    2.6040    2.6060 O.2       1 39X        -0.3848
     19 C2         11.4340    3.0850    0.9750 C.ar      1 39X         0.0504
     20 C7         10.8230    4.0300    1.8040 C.ar      1 39X        -0.0432
     21 C6          9.6640    4.6460    1.4320 C.ar      1 39X        -0.0509
     22 C5          9.0560    4.3670    0.1890 C.ar      1 39X        -0.0152
     23 C11         7.8970    5.0440   -0.2660 C.ar      1 39X        -0.0524
     24 C10         7.3690    4.7710   -1.4910 C.ar      1 39X        -0.0598
     25 C9          7.9500    3.8220   -2.3150 C.ar      1 39X        -0.0596
     26 C8          9.0670    3.1440   -1.9160 C.ar      1 39X        -0.0517
     27 C4          9.6560    3.4020   -0.6560 C.ar      1 39X        -0.0116
     28 C3         10.8460    2.7660   -0.2290 C.ar      1 39X        -0.0329
     29 H          14.9429    1.2992    1.8841 H         1 39X         0.0758
     30 H          15.9767    2.6854   -0.6233 H         1 39X         0.0572
     31 H          16.8802    2.3037    0.8816 H         1 39X         0.0572
     32 H          13.3184    7.2898    0.4376 H         1 39X         0.0530
     33 H          13.6275    8.9907    2.2271 H         1 39X         0.0510
     34 H          16.5227    6.4721    4.1630 H         1 39X         0.0522
     35 H          16.7806    3.9221    2.7679 H         1 39X         0.2317
     36 H          13.1641    1.8045   -0.4230 H         1 39X         0.1870
     37 H          11.2769    4.2772    2.7569 H         1 39X         0.0652
     38 H           9.2022    5.3618    2.1023 H         1 39X         0.0627
     39 H           7.4261    5.7867    0.3677 H         1 39X         0.0626
     40 H           6.4848    5.3020   -1.8245 H         1 39X         0.0630
     41 H           7.5145    3.6150   -3.2859 H         1 39X         0.0622
     42 H           9.5063    2.4009   -2.5716 H         1 39X         0.0636
     43 H          11.3033    2.0137   -0.8614 H         1 39X         0.0695
@<TRIPOS>BOND
     1    1    2 ar 
     2    2    3 ar 
     3    2    4 1  
     4    4    5 1  
     5    4   16 1  
     6    5    6 1  
     7    6    7 2  
     8    6   15 1  
     9    7    8 1  
    10    8    9 ar 
    11    8   14 ar 
    12    9   10 ar 
    13   10   11 ar 
    14   11   12 1  
    15   11   13 ar 
    16   13   14 ar 
    17   14   15 1  
    18   16   17 am 
    19   17   18 2  
    20   17   19 1  
    21   19   20 ar 
    22   19   28 ar 
    23   20   21 ar 
    24   21   22 ar 
    25   22   23 ar 
    26   22   27 ar 
    27   23   24 ar 
    28   24   25 ar 
    29   25   26 ar 
    30   26   27 ar 
    31   27   28 ar 
    32    4   29 1  
    33    5   30 1  
    34    5   31 1  
    35    9   32 1  
    36   10   33 1  
    37   13   34 1  
    38   15   35 1  
    39   16   36 1  
    40   20   37 1  
    41   21   38 1  
    42   23   39 1  
    43   24   40 1  
    44   25   41 1  
    45   26   42 1  
    46   28   43 1  
@<TRIPOS>SUBSTRUCTURE
     1 39X         1

