### 
### Created by X-TOOL on Mon Sep 10 21:13:16 2018
### 

@<TRIPOS>MOLECULE
4tyt_ligand
   19    19     1     0     0
SMALL
GAST_HUCK


@<TRIPOS>ATOM
      1 C10        59.7920    9.7190   27.8470 C.ar      1 S3C         0.0572
      2 C15        59.0950   11.1340   25.5830 C.ar      1 S3C        -0.0501
      3 CL1        61.4990   10.7100   24.3820 Cl        1 S3C        -0.0720
      4 C2         60.3500   10.5520   25.6850 C.ar      1 S3C         0.0434
      5 C3         60.7000    9.8400   26.8060 C.ar      1 S3C        -0.0055
      6 C4         62.0800    9.2180   26.8960 C.2       1 S3C        -0.0393
      7 C5         62.2850    7.9990   26.2560 C.2       1 S3C         0.0517
      8 C6         63.6240    7.3190   26.4750 C.2       1 S3C         0.0772
      9 O7         64.3640    7.6810   27.4310 O.co2     1 S3C        -0.5578
     10 O8         64.0040    6.3880   25.7170 O.co2     1 S3C        -0.5578
     11 S9         61.3110    7.4950   24.9820 S.3       1 S3C        -0.1067
     12 CL2        60.2090    8.8290   29.2860 Cl        1 S3C        -0.0715
     13 C12        58.5330   10.2980   27.7540 C.ar      1 S3C         0.0517
     14 CL3        57.3950   10.1350   29.0660 Cl        1 S3C        -0.0707
     15 C14        58.1800   11.0100   26.6170 C.ar      1 S3C        -0.0499
     16 H          58.8285   11.6884   24.6905 H         1 S3C         0.0616
     17 H          62.8838    9.7086   27.4430 H         1 S3C         0.0520
     18 H          61.8044    7.6228   24.1124 H         1 S3C         0.1263
     19 H          57.1991   11.4646   26.5379 H         1 S3C         0.0598
@<TRIPOS>BOND
     1    5    1 ar 
     2    1   12 1  
     3    1   13 ar 
     4    4    2 ar 
     5    2   15 ar 
     6    4    3 1  
     7    4    5 ar 
     8    5    6 1  
     9    6    7 2  
    10    7    8 1  
    11    7   11 1  
    12    8    9 ar 
    13    8   10 ar 
    14   13   14 1  
    15   13   15 ar 
    16    2   16 1  
    17    6   17 1  
    18   11   18 1  
    19   15   19 1  
@<TRIPOS>SUBSTRUCTURE
     1 S3C         1

