### 
### Created by X-TOOL on Mon Sep 10 21:13:17 2018
### 

@<TRIPOS>MOLECULE
4tz2_ligand
   30    32     1     0     0
SMALL
GAST_HUCK


@<TRIPOS>ATOM
      1 CAJ        21.8960  -43.5250   10.1350 C.ar      1 39R        -0.0280
      2 CAN        20.6300  -43.7010    9.5910 C.ar      1 39R         0.0395
      3 NAA        19.7110  -42.7710   10.0580 N.pl3     1 39R        -0.3364
      4 CAF        20.3090  -44.7140    8.6300 C.ar      1 39R        -0.0410
      5 CAE        21.3270  -45.5780    8.2640 C.ar      1 39R        -0.0687
      6 CAI        22.6050  -45.3970    8.8200 C.ar      1 39R        -0.0577
      7 CAP        22.9150  -44.3890    9.7600 C.ar      1 39R         0.0250
      8 CAQ        24.2710  -44.1670   10.3920 C.2       1 39R         0.1610
      9 NAL        25.4050  -44.8350   10.1250 N.2       1 39R        -0.2781
     10 NAK        24.5130  -43.2080   11.3730 N.pl3     1 39R        -0.1879
     11 NAM        25.8100  -43.3190   11.6750 N.2       1 39R        -0.1835
     12 CAR        26.3770  -44.3170   10.9450 C.2       1 39R         0.1042
     13 CAO        27.8520  -44.6810   11.0010 C.ar      1 39R         0.0023
     14 CAG        28.5920  -44.4110   12.1480 C.ar      1 39R        -0.0525
     15 CAC        29.9490  -44.7180   12.1680 C.ar      1 39R        -0.0612
     16 CAB        30.5660  -45.2700   11.0520 C.ar      1 39R        -0.0618
     17 CAD        29.8260  -45.5200    9.9020 C.ar      1 39R        -0.0612
     18 CAH        28.4700  -45.2150    9.8710 C.ar      1 39R        -0.0525
     19 H          22.0850  -42.7250   10.8416 H         1 39R         0.0551
     20 H          18.7362  -42.7991    9.7266 H         1 39R         0.1717
     21 H          20.0041  -42.0530   10.7358 H         1 39R         0.1717
     22 H          19.3140  -44.8001    8.2085 H         1 39R         0.0546
     23 H          21.1413  -46.3811    7.5600 H         1 39R         0.0593
     24 H          23.3974  -46.0686    8.5101 H         1 39R         0.0550
     25 H          23.8335  -42.5501   11.7808 H         1 39R         0.2610
     26 H          28.1171  -43.9669   13.0154 H         1 39R         0.0624
     27 H          30.5302  -44.5248   13.0624 H         1 39R         0.0618
     28 H          31.6238  -45.5056   11.0781 H         1 39R         0.0617
     29 H          30.3054  -45.9520    9.0310 H         1 39R         0.0618
     30 H          27.8941  -45.3920    8.9698 H         1 39R         0.0624
@<TRIPOS>BOND
     1    1    2 ar 
     2    1    7 ar 
     3    2    3 1  
     4    2    4 ar 
     5    4    5 ar 
     6    5    6 ar 
     7    6    7 ar 
     8    7    8 1  
     9    8    9 2  
    10    8   10 1  
    11    9   12 1  
    12   10   11 1  
    13   11   12 2  
    14   12   13 1  
    15   13   14 ar 
    16   13   18 ar 
    17   14   15 ar 
    18   15   16 ar 
    19   16   17 ar 
    20   17   18 ar 
    21    1   19 1  
    22    3   20 1  
    23    3   21 1  
    24    4   22 1  
    25    5   23 1  
    26    6   24 1  
    27   10   25 1  
    28   14   26 1  
    29   15   27 1  
    30   16   28 1  
    31   17   29 1  
    32   18   30 1  
@<TRIPOS>SUBSTRUCTURE
     1 39R         1

