### 
### Created by X-TOOL on Mon Sep 10 21:13:19 2018
### 

@<TRIPOS>MOLECULE
4tz8_ligand
   27    28     1     0     0
SMALL
GAST_HUCK


@<TRIPOS>ATOM
      1 C13        28.4120  -45.5840  148.4800 C.3       1 39U        -0.0561
      2 C01        24.6220  -45.3670  148.6640 C.2       1 39U         0.0973
      3 C02        25.0700  -46.4280  147.9030 C.2       1 39U         0.0037
      4 N03        24.0740  -46.9540  147.0650 N.2       1 39U        -0.2988
      5 S04        22.9440  -45.0040  148.3530 S.3       1 39U         0.0165
      6 C05        22.9130  -46.3170  147.1920 C.2       1 39U         0.1827
      7 C06        25.2700  -44.5010  149.6620 C.2       1 39U         0.1854
      8 N07        26.2760  -44.9920  150.3960 N.am      1 39U        -0.2919
      9 C08        26.4440  -47.0510  147.8590 C.3       1 39U        -0.0087
     10 C09        27.4880  -46.7210  148.9780 C.3       1 39U        -0.0049
     11 O10        24.8880  -43.3440  149.8280 O.2       1 39U        -0.4067
     12 N11        21.7800  -46.6490  146.4810 N.pl3     1 39U        -0.2942
     13 C12        26.8630  -46.3320  150.3470 C.3       1 39U         0.0362
     14 C14        28.3670  -47.9670  149.2150 C.3       1 39U        -0.0561
     15 H          28.8507  -45.8657  147.5114 H         1 39U         0.0237
     16 H          29.2160  -45.4177  149.2121 H         1 39U         0.0237
     17 H          27.8262  -44.6604  148.3624 H         1 39U         0.0237
     18 H          26.6774  -44.3636  151.0623 H         1 39U         0.1826
     19 H          26.8980  -46.7521  146.9027 H         1 39U         0.0440
     20 H          26.2991  -48.1413  147.8712 H         1 39U         0.0440
     21 H          21.8043  -47.4282  145.8078 H         1 39U         0.1890
     22 H          20.9089  -46.1179  146.6228 H         1 39U         0.1890
     23 H          26.0728  -47.0604  150.5815 H         1 39U         0.0524
     24 H          27.6520  -46.3880  151.1114 H         1 39U         0.0524
     25 H          28.8294  -48.2754  148.2658 H         1 39U         0.0237
     26 H          27.7443  -48.7867  149.6028 H         1 39U         0.0237
     27 H          29.1539  -47.7271  149.9453 H         1 39U         0.0237
@<TRIPOS>BOND
     1   10    1 1  
     2    3    2 2  
     3    2    5 1  
     4    2    7 1  
     5    3    4 1  
     6    9    3 1  
     7    4    6 2  
     8    6    5 1  
     9    6   12 1  
    10    7    8 am 
    11    7   11 2  
    12    8   13 1  
    13    9   10 1  
    14   10   13 1  
    15   10   14 1  
    16    1   15 1  
    17    1   16 1  
    18    1   17 1  
    19    8   18 1  
    20    9   19 1  
    21    9   20 1  
    22   12   21 1  
    23   12   22 1  
    24   13   23 1  
    25   13   24 1  
    26   14   25 1  
    27   14   26 1  
    28   14   27 1  
@<TRIPOS>SUBSTRUCTURE
     1 39U         1

