### 
### Created by X-TOOL on Mon Sep 10 21:13:25 2018
### 

@<TRIPOS>MOLECULE
4u01_ligand
   98   104     1     0     0
SMALL
GAST_HUCK


@<TRIPOS>ATOM
      1 C1         56.9890   29.1580  -20.6080 C.ar      1 39W         0.1750
      2 C2         56.6930   28.2590  -19.5880 C.ar      1 39W         0.0614
      3 C3         56.1980   29.1770  -21.7520 C.ar      1 39W         0.1279
      4 C4         55.6100   27.3900  -19.7230 C.ar      1 39W         0.0335
      5 C5         55.1280   28.3070  -21.8760 C.ar      1 39W        -0.0273
      6 C6         54.8290   27.4160  -20.8680 C.ar      1 39W        -0.0526
      7 C8         57.1470   27.3170  -17.4410 C.ar      1 39W         0.0651
      8 C12        57.6370   30.4320  -23.3770 C.3       1 39W         0.0594
      9 O14        54.2300   25.6790  -18.9200 O.3       1 39W        -0.2980
     10 C15        57.9390   27.3040  -16.2280 C.2       1 39W         0.1237
     11 C18        58.4470   26.9630  -14.0860 C.2       1 39W         0.0112
     12 C19        59.4420   27.8550  -14.4410 C.2       1 39W         0.0114
     13 C21        57.3300   25.2030  -12.6100 C.3       1 39W        -0.0542
     14 C23        53.8140   24.6340  -18.0540 C.3       1 39W         0.1108
     15 C24        52.2990   24.5150  -18.0130 C.3       1 39W         0.0211
     16 C32        49.6950   22.1370  -16.0000 C.3       1 39W         0.0226
     17 C33        48.3520   21.6910  -17.9670 C.3       1 39W         0.0338
     18 C34        48.3110   20.4510  -18.8700 C.3       1 39W        -0.0310
     19 C35        49.3230   19.3320  -18.5800 C.3       1 39W        -0.0446
     20 C36        49.7840   18.8340  -19.9650 C.3       1 39W        -0.0364
     21 C37        50.6330   17.5790  -19.9520 C.2       1 39W        -0.0985
     22 C38        51.9570   17.5480  -20.2000 C.2       1 39W        -0.0942
     23 O50        55.2120   16.4500  -16.1010 O.2       1 39W        -0.1501
     24 S47        56.1570   17.3380  -16.7300 S.o2      1 39W         0.0671
     25 O49        57.0030   16.5340  -17.5820 O.2       1 39W        -0.1501
     26 C48        57.1720   18.1580  -15.4750 C.3       1 39W         0.1085
     27 C53        58.2520   17.2370  -14.9130 C.3       1 39W        -0.0239
     28 C52        58.5810   18.5150  -15.7720 C.3       1 39W        -0.0239
     29 C51        56.4040   18.8440  -14.3430 C.3       1 39W        -0.0378
     30 N45        55.4050   18.4720  -17.6270 N.am      1 39W        -0.1548
     31 C44        54.8390   18.1560  -18.8290 C.2       1 39W         0.2461
     32 O46        54.9430   17.0220  -19.2100 O.2       1 39W        -0.3402
     33 C41        54.1530   19.1400  -19.7450 C.3       1 39W         0.1455
     34 C43        54.1620   18.8710  -21.1910 C.3       1 39W        -0.0072
     35 C42        52.8300   18.7740  -20.4940 C.3       1 39W         0.0103
     36 N31        49.6680   22.1580  -17.4730 N.am      1 39W        -0.2744
     37 C28        50.7550   22.5940  -18.2470 C.2       1 39W         0.2039
     38 O30        50.6760   22.5840  -19.4760 O.2       1 39W        -0.3944
     39 C25        52.0750   23.0610  -17.6220 C.3       1 39W         0.1370
     40 N40        54.1980   20.5280  -19.3100 N.am      1 39W        -0.2599
     41 C29        53.1320   21.0650  -18.6440 C.2       1 39W         0.2617
     42 O39        52.1770   20.3770  -18.3720 O.2       1 39W        -0.4006
     43 N27        53.1650   22.3750  -18.2790 N.am      1 39W        -0.2351
     44 C26        54.2760   23.2840  -18.5760 C.3       1 39W         0.0687
     45 C10        55.3060   26.4960  -18.7200 C.ar      1 39W         0.1197
     46 O11        56.3960   30.0450  -22.7900 O.3       1 39W        -0.3191
     47 F13        58.0150   29.9890  -20.4840 F         1 39W        -0.1920
     48 C9         56.0810   26.4610  -17.5700 C.ar      1 39W         0.0011
     49 N7         57.4510   28.2270  -18.4310 N.ar      1 39W        -0.3111
     50 S17        59.1900   28.2430  -15.9580 S.3       1 39W        -0.0124
     51 N16        57.6840   26.5690  -15.1410 N.2       1 39W        -0.2965
     52 C20        58.4410   26.2510  -12.7380 C.3       1 39W        -0.0106
     53 C22        58.3630   27.2790  -11.5940 C.3       1 39W        -0.0542
     54 H1         54.5204   28.3269  -22.7735 H         1 39W         0.0573
     55 H2         53.9881   26.7395  -20.9699 H         1 39W         0.0606
     56 H3         57.4499   31.1457  -24.1928 H         1 39W         0.0577
     57 H4         58.1464   29.5430  -23.7772 H         1 39W         0.0577
     58 H5         58.2717   30.9058  -22.6137 H         1 39W         0.0577
     59 H6         60.2443   28.2208  -13.8019 H         1 39W         0.0655
     60 H7         57.3840   24.7307  -11.6180 H         1 39W         0.0251
     61 H8         57.4575   24.4364  -13.3885 H         1 39W         0.0251
     62 H9         56.3510   25.6897  -12.7315 H         1 39W         0.0251
     63 H10        54.2141   24.8183  -17.0461 H         1 39W         0.0683
     64 H11        51.8595   24.7308  -18.9980 H         1 39W         0.0343
     65 H12        51.8700   25.1957  -17.2630 H         1 39W         0.0343
     66 H13        48.7343   21.7582  -15.6211 H         1 39W         0.0486
     67 H14        49.8621   23.1563  -15.6217 H         1 39W         0.0486
     68 H15        50.5087   21.4808  -15.6575 H         1 39W         0.0486
     69 H16        47.7324   21.4719  -17.0849 H         1 39W         0.0522
     70 H17        47.9038   22.5208  -18.5331 H         1 39W         0.0522
     71 H18        48.4800   20.7892  -19.9030 H         1 39W         0.0286
     72 H19        47.3044   20.0153  -18.7868 H         1 39W         0.0286
     73 H20        48.8456   18.5169  -18.0164 H         1 39W         0.0285
     74 H21        50.1767   19.7230  -18.0071 H         1 39W         0.0285
     75 H22        50.3705   19.6362  -20.4367 H         1 39W         0.0388
     76 H23        48.8874   18.6315  -20.5691 H         1 39W         0.0388
     77 H24        50.1382   16.6355  -19.7263 H         1 39W         0.0450
     78 H25        52.4460   16.5750  -20.1909 H         1 39W         0.0452
     79 H26        58.3998   16.2305  -15.3314 H         1 39W         0.0288
     80 H27        58.4647   17.2204  -13.8339 H         1 39W         0.0288
     81 H28        59.0379   19.3953  -15.2964 H         1 39W         0.0288
     82 H29        58.9730   18.4055  -16.7939 H         1 39W         0.0288
     83 H30        57.1166   19.3056  -13.6436 H         1 39W         0.0251
     84 H31        55.7959   18.0993  -13.8085 H         1 39W         0.0251
     85 H32        55.7475   19.6202  -14.7631 H         1 39W         0.0251
     86 H33        55.3573   19.4131  -17.2923 H         1 39W         0.2148
     87 H34        54.6428   17.9561  -21.5676 H         1 39W         0.0300
     88 H35        54.3455   19.6974  -21.8934 H         1 39W         0.0300
     89 H36        52.1187   19.5882  -20.6968 H         1 39W         0.0435
     90 H37        52.0793   22.9112  -16.5323 H         1 39W         0.0800
     91 H38        55.0058   21.0868  -19.4976 H         1 39W         0.1834
     92 H39        55.1917   22.9602  -18.0596 H         1 39W         0.0552
     93 H40        54.4623   23.3291  -19.6592 H         1 39W         0.0552
     94 H41        55.8461   25.7608  -16.7765 H         1 39W         0.0563
     95 H42        59.3995   25.7193  -12.6456 H         1 39W         0.0433
     96 H43        59.1696   28.0180  -11.7095 H         1 39W         0.0251
     97 H44        58.4740   26.7629  -10.6290 H         1 39W         0.0251
     98 H45        57.3897   27.7905  -11.6264 H         1 39W         0.0251
@<TRIPOS>BOND
     1    2    1 ar 
     2    1    3 ar 
     3    1   47 1  
     4    4    2 ar 
     5    2   49 ar 
     6    5    3 ar 
     7    3   46 1  
     8    4    6 ar 
     9   45    4 ar 
    10    6    5 ar 
    11    7   10 1  
    12    7   48 ar 
    13   49    7 ar 
    14   46    8 1  
    15   14    9 1  
    16    9   45 1  
    17   10   50 1  
    18   10   51 2  
    19   11   12 2  
    20   51   11 1  
    21   11   52 1  
    22   50   12 1  
    23   52   13 1  
    24   15   14 1  
    25   14   44 1  
    26   39   15 1  
    27   36   16 1  
    28   17   18 1  
    29   36   17 1  
    30   18   19 1  
    31   19   20 1  
    32   20   21 1  
    33   21   22 2  
    34   22   35 1  
    35   24   23 2  
    36   24   25 2  
    37   24   26 1  
    38   30   24 am 
    39   26   27 1  
    40   26   28 1  
    41   26   29 1  
    42   28   27 1  
    43   31   30 am 
    44   31   32 2  
    45   33   31 1  
    46   34   33 1  
    47   35   33 1  
    48   33   40 1  
    49   35   34 1  
    50   37   36 am 
    51   37   38 2  
    52   37   39 1  
    53   39   43 1  
    54   40   41 am 
    55   41   42 2  
    56   41   43 am 
    57   43   44 1  
    58   45   48 ar 
    59   52   53 1  
    60    5   54 1  
    61    6   55 1  
    62    8   56 1  
    63    8   57 1  
    64    8   58 1  
    65   12   59 1  
    66   13   60 1  
    67   13   61 1  
    68   13   62 1  
    69   14   63 1  
    70   15   64 1  
    71   15   65 1  
    72   16   66 1  
    73   16   67 1  
    74   16   68 1  
    75   17   69 1  
    76   17   70 1  
    77   18   71 1  
    78   18   72 1  
    79   19   73 1  
    80   19   74 1  
    81   20   75 1  
    82   20   76 1  
    83   21   77 1  
    84   22   78 1  
    85   27   79 1  
    86   27   80 1  
    87   28   81 1  
    88   28   82 1  
    89   29   83 1  
    90   29   84 1  
    91   29   85 1  
    92   30   86 1  
    93   34   87 1  
    94   34   88 1  
    95   35   89 1  
    96   39   90 1  
    97   40   91 1  
    98   44   92 1  
    99   44   93 1  
   100   48   94 1  
   101   52   95 1  
   102   53   96 1  
   103   53   97 1  
   104   53   98 1  
@<TRIPOS>SUBSTRUCTURE
     1 39W         1

