### 
### Created by X-TOOL on Mon Sep 10 21:13:18 2018
### 

@<TRIPOS>MOLECULE
4u03_ligand
   75    77     1     0     0
SMALL
GAST_HUCK


@<TRIPOS>ATOM
      1 O2         68.2840    9.9160  168.9450 O.co2     1 TLL        -0.5666
      2 CT         67.0870   10.2850  169.0550 C.2       1 TLL         0.0602
      3 O1         66.2630    9.5980  169.7160 O.co2     1 TLL        -0.5666
      4 CA         66.6290   11.5580  168.4070 C.3       1 TLL         0.0957
      5 CB         65.5570   11.3080  167.3490 C.3       1 TLL        -0.0011
      6 CG         65.2030   12.6520  166.6560 C.3       1 TLL         0.0410
      7 CD         64.0690   12.4290  165.6280 C.2       1 TLL         0.1778
      8 OE2        63.3250   11.4840  165.7280 O.2       1 TLL        -0.3970
      9 N          67.7210   12.1890  167.7430 N.am      1 TLL        -0.2725
     10 C          68.4910   13.2070  168.4200 C.2       1 TLL         0.1968
     11 O          68.2340   13.5330  169.5630 O.2       1 TLL        -0.3908
     12 C11        69.6290   13.8880  167.6570 C.ar      1 TLL         0.0362
     13 C16        70.1640   13.2590  166.3800 C.ar      1 TLL        -0.0535
     14 C15        71.1640   13.8860  165.7040 C.ar      1 TLL        -0.0382
     15 C14        71.7030   15.2040  166.2290 C.ar      1 TLL         0.0434
     16 C13        71.2210   15.7710  167.3670 C.ar      1 TLL        -0.0382
     17 C12        70.1140   15.0680  168.1170 C.ar      1 TLL        -0.0535
     18 N10        72.7440   15.8600  165.5110 N.pl3     1 TLL        -0.3144
     19 C9         72.8070   15.7390  164.0730 C.3       1 TLL         0.0697
     20 C6         71.5400   16.2650  163.4020 C.3       1 TLL         0.0235
     21 N5         71.6300   16.1960  161.9750 N.4       1 TLL         0.2665
     22 C7         71.3380   17.7250  163.6600 C.3       1 TLL         0.0798
     23 N8         72.3040   18.5690  163.0340 N.pl3     1 TLL        -0.2792
     24 C8A        72.9350   18.1530  161.8400 C.2       1 TLL         0.1492
     25 C4A        72.6300   16.9890  161.3260 C.3       1 TLL         0.1319
     26 N1         73.8600   18.8990  161.1900 N.2       1 TLL        -0.3100
     27 C2         74.5630   18.6570  160.0450 C.cat     1 TLL         0.2551
     28 NA2        75.5070   19.5960  159.5290 N.pl3     1 TLL        -0.2718
     29 N3         74.3470   17.4990  159.4290 N.pl3     1 TLL        -0.2265
     30 C4         73.3390   16.5550  160.0150 C.3       1 TLL         0.2638
     31 O4         73.0460   15.3210  159.4480 O.3       1 TLL        -0.3445
     32 N2         63.9000   13.3210  164.5150 N.am      1 TLL        -0.2713
     33 C3         62.8460   13.0940  163.5760 C.3       1 TLL         0.0958
     34 C5         63.3030   12.3100  162.3530 C.2       1 TLL         0.0602
     35 O6         62.6470   12.4050  161.2730 O.co2     1 TLL        -0.5666
     36 O7         64.3160   11.5440  162.3720 O.co2     1 TLL        -0.5666
     37 C8         62.2840   14.4730  163.2060 C.3       1 TLL        -0.0064
     38 C10        61.1990   14.8450  164.2450 C.3       1 TLL         0.0038
     39 C17        59.9510   13.9620  164.0450 C.2       1 TLL         0.0350
     40 O18        59.1420   13.8080  164.9980 O.co2     1 TLL        -0.5690
     41 O19        59.7370   13.3760  162.9380 O.co2     1 TLL        -0.5690
     42 C1         70.6760   15.5010  161.1770 C.3       1 TLL        -0.0397
     43 H          66.2281   12.2262  169.1834 H         1 TLL         0.0727
     44 H          64.6578   10.8921  167.8269 H         1 TLL         0.0330
     45 H          65.9368   10.5968  166.6008 H         1 TLL         0.0330
     46 H          66.0925   13.0419  166.1395 H         1 TLL         0.0504
     47 H          64.8715   13.3773  167.4137 H         1 TLL         0.0504
     48 H          67.9547   11.9266  166.8068 H         1 TLL         0.1864
     49 H          69.7544   12.3246  166.0138 H         1 TLL         0.0636
     50 H          71.5717   13.4489  164.7997 H         1 TLL         0.0530
     51 H          71.6236   16.7100  167.7293 H         1 TLL         0.0530
     52 H          69.7079   15.5061  169.0216 H         1 TLL         0.0636
     53 H          73.4482   16.4178  166.0148 H         1 TLL         0.1777
     54 H          72.9345   14.6784  163.8104 H         1 TLL         0.0571
     55 H          73.6694   16.3141  163.7050 H         1 TLL         0.0571
     56 H          70.6780   15.6856  163.7642 H         1 TLL         0.0893
     57 H          72.2303   15.3874  162.0173 H         1 TLL         0.2067
     58 H          71.3852   17.8932  164.7460 H         1 TLL         0.0590
     59 H          70.3417   18.0064  163.2883 H         1 TLL         0.0590
     60 H          72.5408   19.4801  163.4520 H         1 TLL         0.1935
     61 H          73.4134   16.4951  161.9195 H         1 TLL         0.1234
     62 H          75.6641   20.4894  160.0169 H         1 TLL         0.3180
     63 H          76.0309   19.3799  158.6689 H         1 TLL         0.3180
     64 H          74.8597   17.2556  158.5695 H         1 TLL         0.3235
     65 H          72.5449   17.0180  159.4109 H         1 TLL         0.1266
     66 H          72.3851   14.8824  159.9708 H         1 TLL         0.2150
     67 H          64.5177   14.0985  164.3972 H         1 TLL         0.1875
     68 H          62.0550   12.5096  164.0687 H         1 TLL         0.0727
     69 H          61.8401   14.4371  162.2002 H         1 TLL         0.0323
     70 H          63.0900   15.2213  163.2246 H         1 TLL         0.0323
     71 H          60.9212   15.9018  164.1188 H         1 TLL         0.0432
     72 H          61.5968   14.6889  165.2586 H         1 TLL         0.0432
     73 H          69.9868   14.9455  161.8301 H         1 TLL         0.0778
     74 H          71.1976   14.7974  160.5115 H         1 TLL         0.0778
     75 H          70.1070   16.2234  160.5734 H         1 TLL         0.0778
@<TRIPOS>BOND
     1    1    2 ar 
     2    2    3 ar 
     3    2    4 1  
     4    4    5 1  
     5    4    9 1  
     6    5    6 1  
     7    6    7 1  
     8    7    8 2  
     9    7   32 am 
    10    9   10 am 
    11   10   11 2  
    12   10   12 1  
    13   12   13 ar 
    14   12   17 ar 
    15   13   14 ar 
    16   14   15 ar 
    17   15   16 ar 
    18   15   18 1  
    19   16   17 ar 
    20   18   19 1  
    21   19   20 1  
    22   20   21 1  
    23   20   22 1  
    24   21   25 1  
    25   21   42 1  
    26   22   23 1  
    27   23   24 1  
    28   24   25 1  
    29   24   26 2  
    30   25   30 1  
    31   26   27 ar 
    32   27   28 ar 
    33   27   29 ar 
    34   29   30 1  
    35   30   31 1  
    36   32   33 1  
    37   33   34 1  
    38   33   37 1  
    39   34   35 ar 
    40   34   36 ar 
    41   37   38 1  
    42   38   39 1  
    43   39   40 ar 
    44   39   41 ar 
    45    4   43 1  
    46    5   44 1  
    47    5   45 1  
    48    6   46 1  
    49    6   47 1  
    50    9   48 1  
    51   13   49 1  
    52   14   50 1  
    53   16   51 1  
    54   17   52 1  
    55   18   53 1  
    56   19   54 1  
    57   19   55 1  
    58   20   56 1  
    59   21   57 1  
    60   22   58 1  
    61   22   59 1  
    62   23   60 1  
    63   25   61 1  
    64   28   62 1  
    65   28   63 1  
    66   29   64 1  
    67   30   65 1  
    68   31   66 1  
    69   32   67 1  
    70   33   68 1  
    71   37   69 1  
    72   37   70 1  
    73   38   71 1  
    74   38   72 1  
    75   42   73 1  
    76   42   74 1  
    77   42   75 1  
@<TRIPOS>SUBSTRUCTURE
     1 TLL         1

