### 
### Created by X-TOOL on Mon Sep 10 21:13:19 2018
### 

@<TRIPOS>MOLECULE
4u0e_ligand
   59    62     1     0     0
SMALL
GAST_HUCK


@<TRIPOS>ATOM
      1 O24       -15.2730  -27.3070   -0.4430 O.2       1 1B0        -0.3959
      2 C23       -14.9200  -26.1580   -0.6390 C.2       1 1B0         0.1811
      3 N4        -13.9860  -25.5460    0.0820 N.am      1 1B0        -0.2627
      4 C5        -13.2990  -26.1910    1.1910 C.3       1 1B0         0.1463
      5 C13       -14.0230  -25.8360    2.4620 C.2       1 1B0         0.2335
      6 N15       -14.1660  -26.7200    3.4580 N.am      1 1B0        -0.2210
      7 C17       -13.6600  -28.0180    3.3180 C.ar      1 1B0         0.0688
      8 C22       -12.4200  -28.3540    3.8510 C.ar      1 1B0        -0.0411
      9 C21       -11.9350  -29.6500    3.7000 C.ar      1 1B0        -0.0755
     10 C20       -12.6860  -30.6060    3.0170 C.ar      1 1B0        -0.0772
     11 C19       -13.9300  -30.2660    2.4830 C.ar      1 1B0        -0.0755
     12 C18       -14.4170  -28.9750    2.6370 C.ar      1 1B0        -0.0411
     13 C16       -14.8440  -26.4220    4.7140 C.3       1 1B0         0.0445
     14 O14       -14.4580  -24.7010    2.5600 O.2       1 1B0        -0.3819
     15 C6        -11.8770  -25.6300    1.2690 C.3       1 1B0         0.0219
     16 C7        -10.9870  -26.1990    0.1840 C.ar      1 1B0        -0.0385
     17 C12       -10.3520  -27.4210    0.3700 C.ar      1 1B0        -0.0601
     18 C11        -9.5470  -27.9440   -0.6400 C.ar      1 1B0        -0.0686
     19 C10        -9.3680  -27.2400   -1.8270 C.ar      1 1B0        -0.0687
     20 C9        -10.0020  -26.0200   -2.0140 C.ar      1 1B0        -0.0686
     21 C8        -10.8110  -25.5020   -1.0100 C.ar      1 1B0        -0.0601
     22 C25       -15.5590  -25.3310   -1.7260 C.3       1 1B0         0.0481
     23 C1        -15.4400  -25.9040   -3.1170 C.2       1 1B0        -0.0299
     24 C26       -16.3910  -26.7890   -3.8270 C.ar      1 1B0        -0.0298
     25 C31       -17.5890  -27.3520   -3.3990 C.ar      1 1B0        -0.0797
     26 C30       -18.2910  -28.1750   -4.2740 C.ar      1 1B0        -0.0830
     27 C29       -17.7920  -28.4260   -5.5540 C.ar      1 1B0        -0.0802
     28 C28       -16.5850  -27.8590   -5.9650 C.ar      1 1B0        -0.0482
     29 C27       -15.8760  -27.0310   -5.0960 C.ar      1 1B0         0.0561
     30 N3        -14.7010  -26.3620   -5.2390 N.pl3     1 1B0        -0.2813
     31 C2        -14.3740  -25.6680   -4.1180 C.2       1 1B0         0.0375
     32 C32       -13.1470  -24.8180   -3.9370 C.3       1 1B0        -0.0119
     33 H         -13.7453  -24.6028   -0.1472 H         1 1B0         0.1885
     34 H         -13.2764  -27.2818    1.0507 H         1 1B0         0.0829
     35 H         -11.8348  -27.6111    4.3808 H         1 1B0         0.0502
     36 H         -10.9698  -29.9171    4.1149 H         1 1B0         0.0577
     37 H         -12.3036  -31.6136    2.9007 H         1 1B0         0.0487
     38 H         -14.5139  -31.0075    1.9498 H         1 1B0         0.0577
     39 H         -15.3853  -28.7092    2.2286 H         1 1B0         0.0502
     40 H         -15.1940  -25.3792    4.7033 H         1 1B0         0.0550
     41 H         -14.1450  -26.5655    5.5511 H         1 1B0         0.0550
     42 H         -15.7046  -27.0963    4.8351 H         1 1B0         0.0550
     43 H         -11.4481  -25.8825    2.2499 H         1 1B0         0.0474
     44 H         -11.9191  -24.5365    1.1577 H         1 1B0         0.0474
     45 H         -10.4825  -27.9658    1.2980 H         1 1B0         0.0557
     46 H          -9.0589  -28.9018   -0.5007 H         1 1B0         0.0599
     47 H          -8.7326  -27.6451   -2.6063 H         1 1B0         0.0559
     48 H          -9.8667  -25.4730   -2.9400 H         1 1B0         0.0599
     49 H         -11.3083  -24.5500   -1.1563 H         1 1B0         0.0557
     50 H         -15.0838  -24.3390   -1.7239 H         1 1B0         0.0555
     51 H         -16.6284  -25.2259   -1.4907 H         1 1B0         0.0555
     52 H         -17.9682  -27.1533   -2.4031 H         1 1B0         0.0510
     53 H         -19.2276  -28.6225   -3.9614 H         1 1B0         0.0500
     54 H         -18.3456  -29.0651   -6.2323 H         1 1B0         0.0502
     55 H         -16.1996  -28.0619   -6.9577 H         1 1B0         0.0531
     56 H         -14.1277  -26.3793   -6.0945 H         1 1B0         0.2218
     57 H         -13.1499  -24.3801   -2.9279 H         1 1B0         0.0409
     58 H         -13.1451  -24.0126   -4.6862 H         1 1B0         0.0409
     59 H         -12.2484  -25.4394   -4.0644 H         1 1B0         0.0409
@<TRIPOS>BOND
     1    1    2 2  
     2    2    3 am 
     3    2   22 1  
     4    3    4 1  
     5    4    5 1  
     6    4   15 1  
     7    5    6 am 
     8    5   14 2  
     9    6    7 1  
    10    6   13 1  
    11    7    8 ar 
    12    7   12 ar 
    13    8    9 ar 
    14    9   10 ar 
    15   10   11 ar 
    16   11   12 ar 
    17   15   16 1  
    18   16   17 ar 
    19   16   21 ar 
    20   17   18 ar 
    21   18   19 ar 
    22   19   20 ar 
    23   20   21 ar 
    24   22   23 1  
    25   23   24 1  
    26   23   31 2  
    27   24   25 ar 
    28   24   29 ar 
    29   25   26 ar 
    30   26   27 ar 
    31   27   28 ar 
    32   28   29 ar 
    33   29   30 1  
    34   30   31 1  
    35   31   32 1  
    36    3   33 1  
    37    4   34 1  
    38    8   35 1  
    39    9   36 1  
    40   10   37 1  
    41   11   38 1  
    42   12   39 1  
    43   13   40 1  
    44   13   41 1  
    45   13   42 1  
    46   15   43 1  
    47   15   44 1  
    48   17   45 1  
    49   18   46 1  
    50   19   47 1  
    51   20   48 1  
    52   21   49 1  
    53   22   50 1  
    54   22   51 1  
    55   25   52 1  
    56   26   53 1  
    57   27   54 1  
    58   28   55 1  
    59   30   56 1  
    60   32   57 1  
    61   32   58 1  
    62   32   59 1  
@<TRIPOS>SUBSTRUCTURE
     1 1B0         1

