### 
### Created by X-TOOL on Mon Sep 10 21:13:20 2018
### 

@<TRIPOS>MOLECULE
4u0f_ligand
   35    38     1     0     0
SMALL
GAST_HUCK


@<TRIPOS>ATOM
      1 CAJ       -13.2910   84.1700    4.9020 C.ar      1 3A8        -0.0651
      2 CAH       -12.0820   84.5410    4.3090 C.ar      1 3A8        -0.0395
      3 CAP       -11.2820   83.5780    3.6980 C.ar      1 3A8         0.0807
      4 OAB       -10.1020   83.9290    3.1220 O.3       1 3A8        -0.3375
      5 CAI       -11.6880   82.2480    3.6800 C.ar      1 3A8        -0.0395
      6 CAK       -12.8960   81.8740    4.2700 C.ar      1 3A8        -0.0651
      7 CAR       -13.7180   82.8340    4.8740 C.ar      1 3A8        -0.0213
      8 CAV       -14.9260   82.4700    5.5070 C.3       1 3A8         0.0959
      9 CAU       -15.8270   81.6870    4.7540 C.2       1 3A8         0.0352
     10 NAM       -14.5550   81.5800    6.6310 N.am      1 3A8        -0.2664
     11 CAO       -15.2060   80.4440    6.4430 C.2       1 3A8         0.2129
     12 OAA       -15.1170   79.4590    7.1770 O.2       1 3A8        -0.3868
     13 CAT       -15.9720   80.5000    5.3580 C.2       1 3A8         0.1214
     14 NAN       -16.8420   79.7910    4.6460 N.2       1 3A8        -0.1929
     15 NAL       -17.2310   80.4260    3.6990 N.pl3     1 3A8        -0.2138
     16 CAS       -16.6520   81.6300    3.6980 C.2       1 3A8         0.0966
     17 CAQ       -16.8700   82.5730    2.7530 C.ar      1 3A8         0.0032
     18 CAF       -16.6450   83.9330    2.9940 C.ar      1 3A8        -0.0552
     19 CAD       -16.8710   84.8740    1.9900 C.ar      1 3A8        -0.0640
     20 CAC       -17.3250   84.4820    0.7320 C.ar      1 3A8        -0.0643
     21 CAE       -17.5520   83.1370    0.4760 C.ar      1 3A8        -0.0640
     22 CAG       -17.3230   82.1980    1.4810 C.ar      1 3A8        -0.0552
     23 H         -13.9042   84.9204    5.3877 H         1 3A8         0.0533
     24 H         -11.7663   85.5779    4.3242 H         1 3A8         0.0526
     25 H          -9.5327   84.3138    3.7780 H         1 3A8         0.2459
     26 H         -11.0638   81.4992    3.2059 H         1 3A8         0.0526
     27 H         -13.2003   80.8336    4.2608 H         1 3A8         0.0533
     28 H         -15.4342   83.3799    5.8587 H         1 3A8         0.0811
     29 H         -13.9340   81.7956    7.3845 H         1 3A8         0.1892
     30 H         -17.9068   80.0917    2.9973 H         1 3A8         0.2549
     31 H         -16.2930   84.2569    3.9668 H         1 3A8         0.0601
     32 H         -16.6912   85.9240    2.1906 H         1 3A8         0.0610
     33 H         -17.4995   85.2220   -0.0406 H         1 3A8         0.0596
     34 H         -17.9048   82.8187   -0.4983 H         1 3A8         0.0610
     35 H         -17.5003   81.1491    1.2727 H         1 3A8         0.0601
@<TRIPOS>BOND
     1    1    2 ar 
     2    1    7 ar 
     3    2    3 ar 
     4    3    4 1  
     5    3    5 ar 
     6    5    6 ar 
     7    6    7 ar 
     8    7    8 1  
     9    8    9 1  
    10    8   10 1  
    11    9   13 1  
    12    9   16 2  
    13   10   11 am 
    14   11   12 2  
    15   11   13 1  
    16   13   14 2  
    17   14   15 1  
    18   15   16 1  
    19   16   17 1  
    20   17   18 ar 
    21   17   22 ar 
    22   18   19 ar 
    23   19   20 ar 
    24   20   21 ar 
    25   21   22 ar 
    26    1   23 1  
    27    2   24 1  
    28    4   25 1  
    29    5   26 1  
    30    6   27 1  
    31    8   28 1  
    32   10   29 1  
    33   15   30 1  
    34   18   31 1  
    35   19   32 1  
    36   20   33 1  
    37   21   34 1  
    38   22   35 1  
@<TRIPOS>SUBSTRUCTURE
     1 3A8         1

