### 
### Created by X-TOOL on Mon Sep 10 21:13:18 2018
### 

@<TRIPOS>MOLECULE
4u0g_ligand
  113   117     1     0     0
SMALL
GAST_HUCK


@<TRIPOS>ATOM
      1 O         -75.8970   16.6220   54.3950 O.2       1 39Y        -0.4010
      2 C8        -75.1790   15.6180   54.4970 C.2       1 39Y         0.1782
      3 C9        -73.8110   15.5460   53.9480 C.2       1 39Y        -0.0028
      4 C10       -73.2780   16.5680   53.3260 C.2       1 39Y        -0.0593
      5 C11       -71.9010   16.5780   52.7510 C.3       1 39Y        -0.0122
      6 C12       -71.1220   17.8350   53.1010 C.3       1 39Y        -0.0308
      7 C13       -70.9480   17.9280   54.6130 C.3       1 39Y        -0.0599
      8 C14       -69.8220   17.8450   52.4060 C.3       1 39Y        -0.0508
      9 C15       -69.8260   17.6900   50.9040 C.3       1 39Y        -0.0648
     10 C         -76.8530   14.9210   57.1600 C.2       1 WFP         0.2059
     11 N         -75.6010   14.5040   55.1140 N.am      1 WFP        -0.2687
     12 O         -76.7010   14.1310   58.0870 O.2       1 WFP        -0.3942
     13 F1        -79.8060   12.7390   51.4610 F         1 WFP        -0.1863
     14 F2        -75.6840   10.5600   51.8470 F         1 WFP        -0.1863
     15 CA        -76.9120   14.4130   55.7250 C.3       1 WFP         0.1390
     16 CB        -77.4250   12.9670   55.6820 C.3       1 WFP         0.0195
     17 CG        -77.5640   12.4550   54.2720 C.ar      1 WFP        -0.0423
     18 CZ        -77.7460   11.6400   51.6020 C.ar      1 WFP        -0.0019
     19 CD1       -78.6710   12.7990   53.5060 C.ar      1 WFP        -0.0308
     20 CD2       -76.5570   11.6870   53.7020 C.ar      1 WFP        -0.0308
     21 CE1       -78.7250   12.3850   52.2010 C.ar      1 WFP         0.1242
     22 CE2       -76.6780   11.3070   52.3920 C.ar      1 WFP         0.1242
     23 N         -76.9470   16.2450   57.3270 N.am      1 THR        -0.2609
     24 CA        -76.6850   16.8770   58.6080 C.3       1 THR         0.1614
     25 C         -77.8370   17.8370   58.9280 C.2       1 THR         0.2093
     26 O         -78.2440   18.6360   58.0850 O.2       1 THR        -0.3941
     27 CB        -75.2810   17.4930   58.6200 C.3       1 THR         0.1247
     28 OG1       -74.1890   16.5160   58.6590 O.3       1 THR        -0.2673
     29 CG2       -75.0820   18.5160   59.7130 C.3       1 THR        -0.0298
     30 N         -78.4170   17.7470   60.1420 N.am      1 PRO        -0.2497
     31 CA        -78.0310   16.7560   61.1580 C.3       1 PRO         0.1340
     32 C         -78.4460   15.3370   60.7440 C.2       1 PRO         0.2066
     33 O         -79.2200   15.1930   59.8170 O.2       1 PRO        -0.3942
     34 CB        -78.8000   17.2100   62.4040 C.3       1 PRO        -0.0104
     35 CG        -80.0060   17.9270   61.8530 C.3       1 PRO        -0.0281
     36 CD        -79.4900   18.6340   60.6220 C.3       1 PRO         0.0369
     37 N3        -77.9460   14.2760   61.4090 N.am      1 3A0        -0.2498
     38 O4        -74.8700   12.7390   62.4330 O.2       1 3A0        -0.3944
     39 C21       -76.7040   14.2510   62.1920 C.3       1 3A0         0.1339
     40 C22       -75.5960   13.3440   61.6500 C.2       1 3A0         0.2041
     41 C33       -77.0300   13.8810   63.6370 C.3       1 3A0        -0.0096
     42 C34       -77.6950   12.5130   63.6900 C.3       1 3A0        -0.0378
     43 C35       -77.9910   12.0940   65.1240 C.3       1 3A0        -0.0621
     44 C36       -78.9460   12.5400   62.8340 C.3       1 3A0        -0.0295
     45 C37       -78.6570   12.9920   61.4050 C.3       1 3A0         0.0370
     46 N         -75.4740   13.2420   60.3200 N.am      1 ALA        -0.2640
     47 CA        -74.5080   12.3350   59.7190 C.3       1 ALA         0.1284
     48 C         -74.0140   12.8290   58.3530 C.2       1 ALA         0.2062
     49 O         -73.9180   12.0440   57.4290 O.2       1 ALA        -0.3942
     50 CB        -75.1230   10.9540   59.5460 C.3       1 ALA        -0.0244
     51 N         -73.2540   13.9340   58.4150 N.am      1 PRO        -0.2485
     52 CA        -73.0020   14.6890   59.6400 C.3       1 PRO         0.1450
     53 C         -73.9730   15.8500   59.8110 C.2       1 PRO         0.2602
     54 O         -74.4970   16.1140   60.8540 O.2       1 PRO        -0.3678
     55 CB        -71.5650   15.1760   59.4470 C.3       1 PRO        -0.0090
     56 CG        -71.4240   15.3460   57.9400 C.3       1 PRO        -0.0280
     57 CD        -72.4900   14.4770   57.2820 C.3       1 PRO         0.0371
     58 H         -73.2355   14.6285   54.0619 H         1 39Y         0.0472
     59 H         -73.8794   17.4699   53.2216 H         1 39Y         0.0846
     60 H         -71.9775   16.5063   51.6560 H         1 39Y         0.0491
     61 H         -71.3528   15.7065   53.1382 H         1 39Y         0.0491
     62 H         -71.6984   18.7093   52.7643 H         1 39Y         0.0329
     63 H         -70.3838   18.8389   54.8618 H         1 39Y         0.0235
     64 H         -70.3982   17.0462   54.9738 H         1 39Y         0.0235
     65 H         -71.9364   17.9660   55.0942 H         1 39Y         0.0235
     66 H         -69.2225   17.0206   52.8194 H         1 39Y         0.0267
     67 H         -69.3344   18.8039   52.6356 H         1 39Y         0.0267
     68 H         -68.7919   17.7164   50.5299 H         1 39Y         0.0230
     69 H         -70.4004   18.5120   50.4521 H         1 39Y         0.0230
     70 H         -70.2885   16.7287   50.6358 H         1 39Y         0.0230
     71 H         -74.9920   13.7118   55.1535 H         1 WFP         0.1865
     72 H         -77.6089   15.0470   55.1572 H         1 WFP         0.0821
     73 H         -78.4086   12.9251   56.1728 H         1 WFP         0.0472
     74 H         -76.7168   12.3234   56.2245 H         1 WFP         0.0472
     75 H         -77.8118   11.3320   50.5648 H         1 WFP         0.0532
     76 H         -79.4773   13.3843   53.9331 H         1 WFP         0.0508
     77 H         -75.6907   11.3936   54.2837 H         1 WFP         0.0508
     78 H         -77.2050   16.8158   56.5475 H         1 THR         0.1884
     79 H         -76.6935   16.0957   59.3822 H         1 THR         0.0830
     80 H         -75.1841   18.0299   57.6649 H         1 THR         0.0696
     81 H         -74.0576   18.9134   59.6611 H         1 THR         0.0260
     82 H         -75.2421   18.0419   60.6926 H         1 THR         0.0260
     83 H         -75.8012   19.3378   59.5814 H         1 THR         0.0260
     84 H         -76.9457   16.7805   61.3356 H         1 PRO         0.0802
     85 H         -78.1873   17.8896   63.0146 H         1 PRO         0.0313
     86 H         -79.1043   16.3449   63.0115 H         1 PRO         0.0313
     87 H         -80.3962   18.6511   62.5833 H         1 PRO         0.0287
     88 H         -80.7977   17.2108   61.5878 H         1 PRO         0.0287
     89 H         -80.2827   18.7372   59.8664 H         1 PRO         0.0524
     90 H         -79.0942   19.6283   60.8763 H         1 PRO         0.0524
     91 H         -76.3032   15.2754   62.1868 H         1 3A0         0.0802
     92 H         -77.7118   14.6334   64.0602 H         1 3A0         0.0315
     93 H         -76.1005   13.8565   64.2248 H         1 3A0         0.0315
     94 H         -77.0016   11.7743   63.2617 H         1 3A0         0.0301
     95 H         -78.4700   11.1037   65.1252 H         1 3A0         0.0232
     96 H         -78.6656   12.8281   65.5887 H         1 3A0         0.0232
     97 H         -77.0513   12.0474   65.6938 H         1 3A0         0.0232
     98 H         -79.6695   13.2346   63.2858 H         1 3A0         0.0287
     99 H         -79.3775   11.5286   62.8052 H         1 3A0         0.0287
    100 H         -78.0357   12.2351   60.9040 H         1 3A0         0.0524
    101 H         -79.6066   13.1051   60.8615 H         1 3A0         0.0524
    102 H         -76.0575   13.7994   59.7294 H         1 ALA         0.1883
    103 H         -73.6434   12.2578   60.3947 H         1 ALA         0.0797
    104 H         -74.3840   10.2779   59.0913 H         1 ALA         0.0277
    105 H         -76.0056   11.0248   58.8933 H         1 ALA         0.0277
    106 H         -75.4239   10.5609   60.5283 H         1 ALA         0.0277
    107 H         -73.0748   14.0332   60.5201 H         1 PRO         0.0818
    108 H         -70.8476   14.4322   59.8239 H         1 PRO         0.0314
    109 H         -71.4056   16.1339   59.9637 H         1 PRO         0.0314
    110 H         -70.4234   15.0228   57.6170 H         1 PRO         0.0287
    111 H         -71.5755   16.4001   57.6646 H         1 PRO         0.0287
    112 H         -73.1365   15.0797   56.6272 H         1 PRO         0.0524
    113 H         -72.0286   13.6675   56.6974 H         1 PRO         0.0524
@<TRIPOS>BOND
     1    2    1 2  
     2    2    3 1  
     3   11    2 am 
     4    3    4 2  
     5    4    5 1  
     6    5    6 1  
     7    6    7 1  
     8    6    8 1  
     9    8    9 1  
    10   10   12 2  
    11   10   15 1  
    12   23   10 am 
    13   15   11 1  
    14   21   13 1  
    15   22   14 1  
    16   15   16 1  
    17   16   17 1  
    18   17   19 ar 
    19   17   20 ar 
    20   21   18 ar 
    21   22   18 ar 
    22   19   21 ar 
    23   20   22 ar 
    24   24   23 1  
    25   25   24 1  
    26   24   27 1  
    27   25   26 2  
    28   30   25 am 
    29   27   28 1  
    30   27   29 1  
    31   28   53 1  
    32   31   30 1  
    33   30   36 1  
    34   32   31 1  
    35   31   34 1  
    36   32   33 2  
    37   37   32 am 
    38   34   35 1  
    39   35   36 1  
    40   39   37 1  
    41   37   45 1  
    42   40   38 2  
    43   39   40 1  
    44   39   41 1  
    45   40   46 am 
    46   41   42 1  
    47   42   43 1  
    48   42   44 1  
    49   44   45 1  
    50   46   47 1  
    51   47   48 1  
    52   47   50 1  
    53   48   49 2  
    54   48   51 am 
    55   51   52 1  
    56   51   57 1  
    57   52   53 1  
    58   52   55 1  
    59   53   54 2  
    60   55   56 1  
    61   56   57 1  
    62    3   58 1  
    63    4   59 1  
    64    5   60 1  
    65    5   61 1  
    66    6   62 1  
    67    7   63 1  
    68    7   64 1  
    69    7   65 1  
    70    8   66 1  
    71    8   67 1  
    72    9   68 1  
    73    9   69 1  
    74    9   70 1  
    75   11   71 1  
    76   15   72 1  
    77   16   73 1  
    78   16   74 1  
    79   18   75 1  
    80   19   76 1  
    81   20   77 1  
    82   23   78 1  
    83   24   79 1  
    84   27   80 1  
    85   29   81 1  
    86   29   82 1  
    87   29   83 1  
    88   31   84 1  
    89   34   85 1  
    90   34   86 1  
    91   35   87 1  
    92   35   88 1  
    93   36   89 1  
    94   36   90 1  
    95   39   91 1  
    96   41   92 1  
    97   41   93 1  
    98   42   94 1  
    99   43   95 1  
   100   43   96 1  
   101   43   97 1  
   102   44   98 1  
   103   44   99 1  
   104   45  100 1  
   105   45  101 1  
   106   46  102 1  
   107   47  103 1  
   108   50  104 1  
   109   50  105 1  
   110   50  106 1  
   111   52  107 1  
   112   55  108 1  
   113   55  109 1  
   114   56  110 1  
   115   56  111 1  
   116   57  112 1  
   117   57  113 1  
@<TRIPOS>SUBSTRUCTURE
     1 39Y         1

