### 
### Created by X-TOOL on Mon Sep 10 21:13:19 2018
### 

@<TRIPOS>MOLECULE
4u0i_ligand
   68    72     1     0     0
SMALL
GAST_HUCK


@<TRIPOS>ATOM
      1 N1         34.5450   14.9950   38.5350 N.2       1 0LI        -0.3247
      2 N3         35.3820    6.6870   52.5870 N.4       1 0LI         0.2588
      3 C4         35.2620   10.9050   40.8230 C.1       1 0LI        -0.0766
      4 C5         34.9380    9.6780   41.5510 C.ar      1 0LI         0.0257
      5 C6         34.4960    8.4170   40.9130 C.ar      1 0LI        -0.0273
      6 C7         34.1880    7.2550   41.7570 C.ar      1 0LI        -0.0547
      7 C8         34.3190    7.3560   43.2100 C.ar      1 0LI        -0.0494
      8 C10        35.0580    9.7460   42.9550 C.ar      1 0LI        -0.0347
      9 C13        34.6850    7.7090   47.4910 C.ar      1 0LI         0.0879
     10 C15        34.9570    6.4910   49.6580 C.ar      1 0LI        -0.0316
     11 C17        33.9920    8.8310   49.6560 C.ar      1 0LI         0.0386
     12 C20        34.3120    7.4800   51.9630 C.3       1 0LI         0.0130
     13 C21        36.7400    7.3360   52.5280 C.3       1 0LI         0.0114
     14 C22        37.8400    6.3420   53.0320 C.3       1 0LI         0.0092
     15 C24        35.0350    6.1990   53.9750 C.3       1 0LI         0.0114
     16 C81        36.8240   15.9620   37.9630 C.2       1 0LI         0.0052
     17 C82        38.1890   15.6700   38.1020 C.2       1 0LI        -0.0245
     18 C83        38.6010   14.4420   38.7700 C.2       1 0LI         0.0552
     19 N81        37.7650   13.5240   39.2940 N.2       1 0LI        -0.1413
     20 N82        36.4350   13.8600   39.1340 N.pl3     1 0LI        -0.1187
     21 C84        35.8650   15.0310   38.4970 C.2       1 0LI         0.1691
     22 C1         34.2230   13.8230   39.1930 C.2       1 0LI        -0.0017
     23 C2         35.3520   13.1430   39.5490 C.2       1 0LI         0.1589
     24 C3         35.3660   11.9400   40.2250 C.1       1 0LI        -0.0467
     25 C9         34.7600    8.6200   43.8100 C.ar      1 0LI         0.0483
     26 C11        34.3390    8.2910   39.3860 C.3       1 0LI        -0.0278
     27 C12        34.9140    8.8350   45.2770 C.2       1 0LI         0.2262
     28 O1         35.0780    9.9780   45.6940 O.2       1 0LI        -0.3767
     29 N2         34.8330    7.7340   46.0670 N.am      1 0LI        -0.2315
     30 C14        35.0950    6.5350   48.2150 C.ar      1 0LI        -0.0148
     31 C16        34.4140    7.6170   50.4070 C.ar      1 0LI         0.0246
     32 C18        34.1410    8.8330   48.2360 C.ar      1 0LI        -0.0202
     33 C19        33.4080   10.1070   50.3060 C.3       1 0LI         0.3645
     34 F1         34.3540   10.7030   51.0250 F         1 0LI        -0.2292
     35 F2         32.9700   10.9910   49.4120 F         1 0LI        -0.2292
     36 F3         32.3530    9.7900   51.0610 F         1 0LI        -0.2292
     37 C23        36.1900    5.3120   54.6120 C.3       1 0LI         0.0092
     38 C25        38.6690    5.1440   55.0120 C.3       1 0LI        -0.0427
     39 N4         37.5700    5.9440   54.4460 N.4       1 0LI         0.2405
     40 H          35.4586    5.8562   52.0213 H         1 0LI         0.2058
     41 H          33.8644    6.3249   41.3040 H         1 0LI         0.0565
     42 H          34.0919    6.5030   43.8392 H         1 0LI         0.0639
     43 H          35.3850   10.6750   43.4079 H         1 0LI         0.0649
     44 H          35.2651    5.5994   50.1921 H         1 0LI         0.0616
     45 H          34.3380    8.4903   52.3972 H         1 0LI         0.1043
     46 H          33.3499    7.0030   52.2015 H         1 0LI         0.1043
     47 H          36.7417    8.2325   53.1653 H         1 0LI         0.0868
     48 H          36.9597    7.6240   51.4894 H         1 0LI         0.0868
     49 H          38.8242    6.8299   52.9740 H         1 0LI         0.0868
     50 H          37.8374    5.4448   52.3957 H         1 0LI         0.0868
     51 H          34.1170    5.5957   53.9181 H         1 0LI         0.0868
     52 H          34.8612    7.0709   54.6228 H         1 0LI         0.0868
     53 H          36.4974   16.8723   37.4625 H         1 0LI         0.0752
     54 H          38.9377   16.3581   37.7124 H         1 0LI         0.0701
     55 H          39.6699   14.2509   38.8523 H         1 0LI         0.0937
     56 H          33.2076   13.4878   39.3993 H         1 0LI         0.0575
     57 H          34.6085    9.2452   38.9097 H         1 0LI         0.0404
     58 H          33.2952    8.0424   39.1440 H         1 0LI         0.0404
     59 H          35.0012    7.4955   39.0137 H         1 0LI         0.0404
     60 H          34.8818    6.8478   45.6063 H         1 0LI         0.2238
     61 H          35.5063    5.6849   47.6827 H         1 0LI         0.0763
     62 H          33.8336    9.7154   47.6866 H         1 0LI         0.0655
     63 H          36.1911    4.3279   54.1206 H         1 0LI         0.0868
     64 H          35.9866    5.1855   55.6856 H         1 0LI         0.0868
     65 H          39.6235    5.6667   54.8513 H         1 0LI         0.0778
     66 H          38.7007    4.1623   54.5168 H         1 0LI         0.0778
     67 H          38.5039    5.0054   56.0907 H         1 0LI         0.0778
     68 H          37.5474    6.7984   54.9803 H         1 0LI         0.2035
@<TRIPOS>BOND
     1    1   21 2  
     2   22    1 1  
     3   12    2 1  
     4    2   13 1  
     5    2   15 1  
     6    4    3 1  
     7    3   24 3  
     8    4    5 ar 
     9    8    4 ar 
    10    6    5 ar 
    11    5   26 1  
    12    7    6 ar 
    13   25    7 ar 
    14   25    8 ar 
    15   29    9 1  
    16    9   30 ar 
    17    9   32 ar 
    18   30   10 ar 
    19   10   31 ar 
    20   11   31 ar 
    21   32   11 ar 
    22   11   33 1  
    23   31   12 1  
    24   13   14 1  
    25   14   39 1  
    26   15   37 1  
    27   16   17 2  
    28   21   16 1  
    29   18   17 1  
    30   19   18 2  
    31   20   19 1  
    32   20   21 1  
    33   23   20 1  
    34   23   22 2  
    35   24   23 1  
    36   27   25 1  
    37   27   28 2  
    38   27   29 am 
    39   33   34 1  
    40   33   35 1  
    41   33   36 1  
    42   37   39 1  
    43   39   38 1  
    44    2   40 1  
    45    6   41 1  
    46    7   42 1  
    47    8   43 1  
    48   10   44 1  
    49   12   45 1  
    50   12   46 1  
    51   13   47 1  
    52   13   48 1  
    53   14   49 1  
    54   14   50 1  
    55   15   51 1  
    56   15   52 1  
    57   16   53 1  
    58   17   54 1  
    59   18   55 1  
    60   22   56 1  
    61   26   57 1  
    62   26   58 1  
    63   26   59 1  
    64   29   60 1  
    65   30   61 1  
    66   32   62 1  
    67   37   63 1  
    68   37   64 1  
    69   38   65 1  
    70   38   66 1  
    71   38   67 1  
    72   39   68 1  
@<TRIPOS>SUBSTRUCTURE
     1 0LI         1

