### 
### Created by X-TOOL on Mon Sep 10 21:13:19 2018
### 

@<TRIPOS>MOLECULE
4u0m_ligand
   75    77     1     0     0
SMALL
GAST_HUCK


@<TRIPOS>ATOM
      1 O2         69.3290    9.9930  168.9000 O.co2     1 TLL        -0.5666
      2 CT         68.1370   10.3400  169.0750 C.2       1 TLL         0.0602
      3 O1         67.3610    9.6070  169.7470 O.co2     1 TLL        -0.5666
      4 CA         67.6380   11.6230  168.4870 C.3       1 TLL         0.0957
      5 CB         66.5760   11.3210  167.4380 C.3       1 TLL        -0.0011
      6 CG         66.3970   12.5290  166.4960 C.3       1 TLL         0.0410
      7 CD         65.2230   12.2480  165.5380 C.2       1 TLL         0.1778
      8 OE2        64.6080   11.2140  165.6370 O.2       1 TLL        -0.3970
      9 N          68.7230   12.3060  167.8500 N.am      1 TLL        -0.2725
     10 C          69.5660   13.2390  168.5720 C.2       1 TLL         0.1968
     11 O          69.3770   13.4710  169.7540 O.2       1 TLL        -0.3908
     12 C11        70.7040   13.9310  167.8030 C.ar      1 TLL         0.0362
     13 C16        71.1930   13.3170  166.4970 C.ar      1 TLL        -0.0535
     14 C15        72.1940   13.9150  165.7960 C.ar      1 TLL        -0.0382
     15 C14        72.8240   15.1990  166.3190 C.ar      1 TLL         0.0434
     16 C13        72.3880   15.7490  167.4790 C.ar      1 TLL        -0.0382
     17 C12        71.2580   15.0770  168.2680 C.ar      1 TLL        -0.0535
     18 N10        73.8810   15.8320  165.5730 N.pl3     1 TLL        -0.3144
     19 C9         73.9070   15.7280  164.1410 C.3       1 TLL         0.0697
     20 C6         72.6640   16.3580  163.5320 C.3       1 TLL         0.0235
     21 N5         72.7400   16.2600  162.1030 N.4       1 TLL         0.2665
     22 C7         72.5720   17.8150  163.8710 C.3       1 TLL         0.0798
     23 N8         73.5480   18.6090  163.1980 N.pl3     1 TLL        -0.2792
     24 C8A        74.1330   18.1690  161.9830 C.2       1 TLL         0.1492
     25 C4A        73.7570   17.0340  161.4350 C.3       1 TLL         0.1319
     26 N1         75.0960   18.8750  161.3340 N.2       1 TLL        -0.3100
     27 C2         75.7860   18.6350  160.1730 C.cat     1 TLL         0.2551
     28 NA2        76.7750   19.5510  159.6860 N.pl3     1 TLL        -0.2718
     29 N3         75.5020   17.5110  159.5160 N.pl3     1 TLL        -0.2265
     30 C4         74.4480   16.5990  160.0940 C.3       1 TLL         0.2638
     31 O4         74.1060   15.4030  159.4500 O.3       1 TLL        -0.3445
     32 N2         64.8700   13.2070  164.5200 N.am      1 TLL        -0.2713
     33 C3         63.7930   12.9270  163.6330 C.3       1 TLL         0.0958
     34 C5         64.3490   12.2250  162.4260 C.2       1 TLL         0.0602
     35 O6         63.6230   12.0140  161.4150 O.co2     1 TLL        -0.5666
     36 O7         65.5430   11.8360  162.4180 O.co2     1 TLL        -0.5666
     37 C8         63.0920   14.2220  163.2160 C.3       1 TLL        -0.0064
     38 C10        61.6900   14.3280  163.8630 C.3       1 TLL         0.0038
     39 C17        60.8290   13.0950  163.5380 C.2       1 TLL         0.0350
     40 O18        59.9050   12.7530  164.3190 O.co2     1 TLL        -0.5690
     41 O19        61.0500   12.4130  162.4950 O.co2     1 TLL        -0.5690
     42 C1         71.8340   15.4500  161.3530 C.3       1 TLL        -0.0397
     43 H          67.2118   12.2543  169.2806 H         1 TLL         0.0727
     44 H          65.6207   11.1071  167.9396 H         1 TLL         0.0330
     45 H          66.8856   10.4446  166.8497 H         1 TLL         0.0330
     46 H          67.3182   12.6835  165.9151 H         1 TLL         0.0504
     47 H          66.1818   13.4303  167.0887 H         1 TLL         0.0504
     48 H          68.9043   12.1351  166.8815 H         1 TLL         0.1864
     49 H          70.7430   12.4032  166.1262 H         1 TLL         0.0636
     50 H          72.5424   13.4783  164.8670 H         1 TLL         0.0530
     51 H          72.8380   16.6633  167.8485 H         1 TLL         0.0530
     52 H          70.9039   15.5166  169.1935 H         1 TLL         0.0636
     53 H          74.6167   16.3582  166.0656 H         1 TLL         0.1777
     54 H          73.9493   14.6661  163.8571 H         1 TLL         0.0571
     55 H          74.7986   16.2458  163.7578 H         1 TLL         0.0571
     56 H          71.7706   15.8333  163.9015 H         1 TLL         0.0893
     57 H          73.3699   15.4770  162.1822 H         1 TLL         0.2067
     58 H          72.7132   17.9317  164.9556 H         1 TLL         0.0590
     59 H          71.5720   18.1773  163.5903 H         1 TLL         0.0590
     60 H          73.8316   19.5140  163.5999 H         1 TLL         0.1935
     61 H          72.9760   17.5512  160.8584 H         1 TLL         0.1234
     62 H          76.9794   20.4143  160.2092 H         1 TLL         0.3180
     63 H          77.2813   19.3459  158.8128 H         1 TLL         0.3180
     64 H          75.9875   17.2719  158.6397 H         1 TLL         0.3235
     65 H          73.6700   17.1225  159.5189 H         1 TLL         0.1266
     66 H          73.4309   14.9579  159.9487 H         1 TLL         0.2150
     67 H          65.3792   14.0637  164.4380 H         1 TLL         0.1875
     68 H          63.0662   12.2720  164.1356 H         1 TLL         0.0727
     69 H          62.9848   14.2364  162.1213 H         1 TLL         0.0323
     70 H          63.7015   15.0799  163.5361 H         1 TLL         0.0323
     71 H          61.1860   15.2277  163.4804 H         1 TLL         0.0432
     72 H          61.8041   14.4076  164.9542 H         1 TLL         0.0432
     73 H          71.1406   14.9430  162.0401 H         1 TLL         0.0778
     74 H          72.3998   14.6986  160.7827 H         1 TLL         0.0778
     75 H          71.2637   16.0844  160.6586 H         1 TLL         0.0778
@<TRIPOS>BOND
     1    1    2 ar 
     2    2    3 ar 
     3    2    4 1  
     4    4    5 1  
     5    4    9 1  
     6    5    6 1  
     7    6    7 1  
     8    7    8 2  
     9    7   32 am 
    10    9   10 am 
    11   10   11 2  
    12   10   12 1  
    13   12   13 ar 
    14   12   17 ar 
    15   13   14 ar 
    16   14   15 ar 
    17   15   16 ar 
    18   15   18 1  
    19   16   17 ar 
    20   18   19 1  
    21   19   20 1  
    22   20   21 1  
    23   20   22 1  
    24   21   25 1  
    25   21   42 1  
    26   22   23 1  
    27   23   24 1  
    28   24   25 1  
    29   24   26 2  
    30   25   30 1  
    31   26   27 ar 
    32   27   28 ar 
    33   27   29 ar 
    34   29   30 1  
    35   30   31 1  
    36   32   33 1  
    37   33   34 1  
    38   33   37 1  
    39   34   35 ar 
    40   34   36 ar 
    41   37   38 1  
    42   38   39 1  
    43   39   40 ar 
    44   39   41 ar 
    45    4   43 1  
    46    5   44 1  
    47    5   45 1  
    48    6   46 1  
    49    6   47 1  
    50    9   48 1  
    51   13   49 1  
    52   14   50 1  
    53   16   51 1  
    54   17   52 1  
    55   18   53 1  
    56   19   54 1  
    57   19   55 1  
    58   20   56 1  
    59   21   57 1  
    60   22   58 1  
    61   22   59 1  
    62   23   60 1  
    63   25   61 1  
    64   28   62 1  
    65   28   63 1  
    66   29   64 1  
    67   30   65 1  
    68   31   66 1  
    69   32   67 1  
    70   33   68 1  
    71   37   69 1  
    72   37   70 1  
    73   38   71 1  
    74   38   72 1  
    75   42   73 1  
    76   42   74 1  
    77   42   75 1  
@<TRIPOS>SUBSTRUCTURE
     1 TLL         1

