### 
### Created by X-TOOL on Mon Sep 10 21:13:19 2018
### 

@<TRIPOS>MOLECULE
4u0n_ligand
   74    76     1     0     0
SMALL
GAST_HUCK


@<TRIPOS>ATOM
      1 O2        175.3970 -105.4160   35.0740 O.co2     1 TLL        -0.5666
      2 CT        175.4620 -104.1800   35.2690 C.2       1 TLL         0.0602
      3 O1        176.4100 -103.7200   35.9660 O.co2     1 TLL        -0.5666
      4 CA        174.3910 -103.2950   34.6980 C.3       1 TLL         0.0957
      5 CB        174.4170 -101.9300   35.3810 C.3       1 TLL        -0.0011
      6 CG        175.6710 -101.1210   35.0100 C.3       1 TLL         0.0410
      7 CD        175.2990 -100.1710   33.8640 C.2       1 TLL         0.1778
      8 OE2       174.4330 -100.4890   33.0820 O.2       1 TLL        -0.3970
      9 N         173.2000 -104.0710   34.9240 N.am      1 TLL        -0.2725
     10 C         172.0020 -103.6130   35.6070 C.2       1 TLL         0.1968
     11 O         171.8670 -102.5070   36.0920 O.2       1 TLL        -0.3908
     12 C11       170.8300 -104.5690   35.8220 C.ar      1 TLL         0.0362
     13 C16       169.8200 -104.0790   36.8250 C.ar      1 TLL        -0.0535
     14 C15       168.7460 -104.8170   37.1400 C.ar      1 TLL        -0.0382
     15 C14       168.5450 -106.1640   36.4830 C.ar      1 TLL         0.0433
     16 C13       169.4560 -106.6370   35.5950 C.ar      1 TLL        -0.0382
     17 C12       170.6840 -105.7820   35.2400 C.ar      1 TLL        -0.0535
     18 N10       167.3830 -106.8780   36.9110 N.pl3     1 TLL        -0.3172
     19 C9        167.1030 -106.7090   38.3110 C.3       1 TLL         0.0541
     20 C6        166.1330 -107.6810   38.9470 C.3       1 TLL         0.1000
     21 N5        164.7640 -107.6030   38.4840 N.pl3     1 TLL        -0.2513
     22 C7        166.1770 -107.3270   40.4070 C.3       1 TLL         0.0726
     23 N8        165.0040 -107.6370   41.1530 N.pl3     1 TLL        -0.2521
     24 C8A       163.9310 -108.3500   40.5710 C.2       1 TLL         0.2686
     25 C4A       163.7860 -108.3470   39.2610 C.2       1 TLL         0.2371
     26 N1        163.0160 -109.0330   41.3160 N.pl3     1 TLL        -0.2361
     27 C2        161.9140 -109.7680   40.9580 C.cat     1 TLL         0.1563
     28 NA2       161.1070 -110.4120   41.9570 N.pl3     1 TLL        -0.3535
     29 N3        161.6420 -109.8660   39.6490 N.pl3     1 TLL        -0.2929
     30 C4        162.5610 -109.1530   38.6730 C.3       1 TLL         0.2266
     31 O4        162.3100 -109.2300   37.2930 O.3       1 TLL        -0.3454
     32 N2        175.9910  -98.9120   33.7470 N.am      1 TLL        -0.2713
     33 C3        175.6570  -97.9920   32.7110 C.3       1 TLL         0.0958
     34 C5        176.9050  -97.6200   31.9450 C.2       1 TLL         0.0602
     35 O6        177.3590  -98.4200   31.0760 O.co2     1 TLL        -0.5666
     36 O7        177.5110  -96.5360   32.1500 O.co2     1 TLL        -0.5666
     37 C8        174.9610  -96.7930   33.3780 C.3       1 TLL        -0.0064
     38 C10       174.2590  -97.2160   34.6970 C.3       1 TLL         0.0038
     39 C17       173.0470  -96.3150   34.9970 C.2       1 TLL         0.0350
     40 O18       171.8830  -96.7310   34.7690 O.co2     1 TLL        -0.5690
     41 O19       173.1990  -95.1570   35.4820 O.co2     1 TLL        -0.5690
     42 C1        164.3160 -106.8320   37.3550 C.3       1 TLL         0.0361
     43 H         174.5397 -103.1449   33.6185 H         1 TLL         0.0727
     44 H         174.4003 -102.0784   36.4708 H         1 TLL         0.0330
     45 H         173.5257 -101.3630   35.0744 H         1 TLL         0.0330
     46 H         176.4721 -101.8015   34.6858 H         1 TLL         0.0504
     47 H         176.0122 -100.5409   35.8801 H         1 TLL         0.0504
     48 H         173.1967 -105.0100   34.5800 H         1 TLL         0.1864
     49 H         169.9633 -103.1150   37.2996 H         1 TLL         0.0636
     50 H         168.0255 -104.4500   37.8619 H         1 TLL         0.0530
     51 H         169.3189 -107.6109   35.1391 H         1 TLL         0.0530
     52 H         171.4218 -106.1456   34.5340 H         1 TLL         0.0636
     53 H         166.8060 -107.4540   36.2815 H         1 TLL         0.1775
     54 H         166.6932 -105.6972   38.4463 H         1 TLL         0.0542
     55 H         168.0574 -106.7934   38.8514 H         1 TLL         0.0542
     56 H         166.4922 -108.7081   38.7861 H         1 TLL         0.0651
     57 H         166.3521 -106.2440   40.4871 H         1 TLL         0.0589
     58 H         167.0195 -107.8693   40.8611 H         1 TLL         0.0589
     59 H         164.9362 -107.3358   42.1357 H         1 TLL         0.2105
     60 H         163.1820 -108.9894   42.3316 H         1 TLL         0.2226
     61 H         160.2819 -110.9613   41.6770 H         1 TLL         0.1648
     62 H         161.3535 -110.3244   42.9532 H         1 TLL         0.1648
     63 H         160.8331 -110.4092   39.3150 H         1 TLL         0.1751
     64 H         161.9371 -108.2488   38.7300 H         1 TLL         0.1221
     65 H         162.9707 -108.7340   36.8239 H         1 TLL         0.2182
     66 H         176.7129  -98.6817   34.3995 H         1 TLL         0.1875
     67 H         174.9519  -98.4650   32.0117 H         1 TLL         0.0727
     68 H         174.2097  -96.3837   32.6866 H         1 TLL         0.0323
     69 H         175.7119  -96.0211   33.6024 H         1 TLL         0.0323
     70 H         174.9774  -97.1388   35.5264 H         1 TLL         0.0432
     71 H         173.9173  -98.2574   34.6035 H         1 TLL         0.0432
     72 H         163.2300 -106.9573   37.2332 H         1 TLL         0.0535
     73 H         164.8294 -107.1798   36.4465 H         1 TLL         0.0535
     74 H         164.5460 -105.7694   37.5221 H         1 TLL         0.0535
@<TRIPOS>BOND
     1    1    2 ar 
     2    2    3 ar 
     3    2    4 1  
     4    4    5 1  
     5    4    9 1  
     6    5    6 1  
     7    6    7 1  
     8    7    8 2  
     9    7   32 am 
    10    9   10 am 
    11   10   11 2  
    12   10   12 1  
    13   12   13 ar 
    14   12   17 ar 
    15   13   14 ar 
    16   14   15 ar 
    17   15   16 ar 
    18   15   18 1  
    19   16   17 ar 
    20   18   19 1  
    21   19   20 1  
    22   20   21 1  
    23   20   22 1  
    24   21   25 1  
    25   21   42 1  
    26   22   23 1  
    27   23   24 1  
    28   24   25 2  
    29   24   26 1  
    30   25   30 1  
    31   26   27 ar 
    32   27   28 ar 
    33   27   29 ar 
    34   29   30 1  
    35   30   31 1  
    36   32   33 1  
    37   33   34 1  
    38   33   37 1  
    39   34   35 ar 
    40   34   36 ar 
    41   37   38 1  
    42   38   39 1  
    43   39   40 ar 
    44   39   41 ar 
    45    4   43 1  
    46    5   44 1  
    47    5   45 1  
    48    6   46 1  
    49    6   47 1  
    50    9   48 1  
    51   13   49 1  
    52   14   50 1  
    53   16   51 1  
    54   17   52 1  
    55   18   53 1  
    56   19   54 1  
    57   19   55 1  
    58   20   56 1  
    59   22   57 1  
    60   22   58 1  
    61   23   59 1  
    62   26   60 1  
    63   28   61 1  
    64   28   62 1  
    65   29   63 1  
    66   30   64 1  
    67   31   65 1  
    68   32   66 1  
    69   33   67 1  
    70   37   68 1  
    71   37   69 1  
    72   38   70 1  
    73   38   71 1  
    74   42   72 1  
    75   42   73 1  
    76   42   74 1  
@<TRIPOS>SUBSTRUCTURE
     1 TLL         1

