### 
### Created by X-TOOL on Mon Sep 10 21:13:23 2018
### 

@<TRIPOS>MOLECULE
4u2y_ligand
   46    47     1     0     0
SMALL
GAST_HUCK


@<TRIPOS>ATOM
      1 O6'        27.3770  -29.4670  278.9870 O.3       1 RZM        -0.3894
      2 C6'        27.2450  -30.7450  279.6140 C.3       1 RZM         0.0894
      3 C5'        25.8170  -31.0760  280.0380 C.3       1 RZM         0.0309
      4 C2'        23.8070  -30.1220  280.4210 C.3       1 RZM         0.0306
      5 C1'        23.0010  -30.3880  281.5160 C.3       1 RZM         0.0893
      6 O1'        22.4760  -29.0960  281.9220 O.3       1 RZM        -0.3894
      7 C3'        23.6710  -31.2280  279.2710 C.3       1 RZM         0.1311
      8 O3'        22.5290  -30.8150  278.3730 O.3       1 RZM        -0.3833
      9 C4'        24.7930  -31.1390  278.7190 C.3       1 RZM         0.1372
     10 O4'        25.1430  -32.2780  277.8500 O.3       1 RZM        -0.3370
     11 C1         24.7000  -32.0300  276.5420 C.3       1 RZM         0.1886
     12 C2         24.3670  -33.3570  275.9370 C.3       1 RZM         0.1341
     13 O2         23.3400  -33.9690  276.7540 O.3       1 RZM        -0.3841
     14 C3         25.5910  -34.1920  275.8300 C.3       1 RZM         0.1141
     15 O3         25.3160  -35.5290  275.3250 O.3       1 RZM        -0.3864
     16 C4         26.5740  -33.5070  274.9590 C.3       1 RZM         0.1119
     17 O4         27.7510  -34.3480  274.7720 O.3       1 RZM        -0.3865
     18 C5         26.9350  -32.2140  275.6360 C.3       1 RZM         0.1130
     19 C6         28.0290  -31.4480  274.9630 C.3       1 RZM         0.0730
     20 O6         27.5060  -30.7740  273.8310 O.3       1 RZM        -0.3924
     21 O5         25.7540  -31.3280  275.7860 O.3       1 RZM        -0.3405
     22 N5'        25.2970  -30.1390  280.7830 N.4       1 RZM         0.2384
     23 H1         27.0963  -28.7890  279.5903 H         1 RZM         0.2097
     24 H2         27.8852  -30.7608  280.5084 H         1 RZM         0.0614
     25 H3         27.5845  -31.5157  278.9064 H         1 RZM         0.0614
     26 H4         25.8177  -32.0366  280.5739 H         1 RZM         0.0900
     27 H5         23.5303  -29.1349  280.0223 H         1 RZM         0.0900
     28 H6         23.5899  -30.8382  282.3287 H         1 RZM         0.0614
     29 H7         22.1820  -31.0672  281.2368 H         1 RZM         0.0614
     30 H8         23.1964  -28.5198  282.1489 H         1 RZM         0.2097
     31 H9         23.4961  -32.2380  279.6702 H         1 RZM         0.0679
     32 H10        21.7287  -30.7662  278.8825 H         1 RZM         0.2102
     33 H11        24.8530  -30.2146  278.1259 H         1 RZM         0.0683
     34 H12        23.7981  -31.4007  276.5645 H         1 RZM         0.0938
     35 H13        23.9663  -33.2030  274.9242 H         1 RZM         0.0671
     36 H14        23.1100  -34.8158  276.3899 H         1 RZM         0.2101
     37 H15        26.0246  -34.2932  276.8358 H         1 RZM         0.0648
     38 H16        24.9292  -35.4661  274.4596 H         1 RZM         0.2100
     39 H17        26.1225  -33.2979  273.9780 H         1 RZM         0.0647
     40 H18        28.3739  -33.8992  274.2125 H         1 RZM         0.2100
     41 H19        27.2910  -32.4736  276.6439 H         1 RZM         0.0647
     42 H20        28.8199  -32.1424  274.6433 H         1 RZM         0.0584
     43 H21        28.4483  -30.7132  275.6660 H         1 RZM         0.0584
     44 H22        26.8230  -30.1746  274.1082 H         1 RZM         0.2095
     45 H23        25.7211  -29.2478  280.5782 H         1 RZM         0.2023
     46 H24        25.4214  -30.3538  281.7600 H         1 RZM         0.2023
@<TRIPOS>BOND
     1    2    1 1  
     2    3    2 1  
     3    3    9 1  
     4   22    3 1  
     5    4    5 1  
     6    4    7 1  
     7    4   22 1  
     8    5    6 1  
     9    7    8 1  
    10    7    9 1  
    11    9   10 1  
    12   10   11 1  
    13   11   12 1  
    14   11   21 1  
    15   12   13 1  
    16   12   14 1  
    17   14   15 1  
    18   14   16 1  
    19   16   17 1  
    20   16   18 1  
    21   18   19 1  
    22   18   21 1  
    23   19   20 1  
    24    1   23 1  
    25    2   24 1  
    26    2   25 1  
    27    3   26 1  
    28    4   27 1  
    29    5   28 1  
    30    5   29 1  
    31    6   30 1  
    32    7   31 1  
    33    8   32 1  
    34    9   33 1  
    35   11   34 1  
    36   12   35 1  
    37   13   36 1  
    38   14   37 1  
    39   15   38 1  
    40   16   39 1  
    41   17   40 1  
    42   18   41 1  
    43   19   42 1  
    44   19   43 1  
    45   20   44 1  
    46   22   45 1  
    47   22   46 1  
@<TRIPOS>SUBSTRUCTURE
     1 RZM         1

