### 
### Created by X-TOOL on Mon Sep 10 21:13:25 2018
### 

@<TRIPOS>MOLECULE
4u3f_ligand
   46    48     1     0     0
SMALL
GAST_HUCK


@<TRIPOS>ATOM
      1 C1         12.2940  133.0950   77.4950 C.3       1 Y52         0.0638
      2 O2         11.6150  133.6540   78.6380 O.3       1 Y52        -0.2865
      3 C3         10.2830  133.7950   78.5320 C.2       1 Y52         0.2390
      4 O4          9.6280  133.3290   77.6470 O.2       1 Y52        -0.3768
      5 C5          9.7390  134.5920   79.6530 C.2       1 Y52         0.0793
      6 C6         10.5640  135.0570   80.5800 C.2       1 Y52         0.0953
      7 O7         10.0950  135.7790   81.5990 O.3       1 Y52        -0.3031
      8 C8         11.0670  136.4740   82.3950 C.3       1 Y52         0.0696
      9 C9          8.2720  134.8300   79.6600 C.ar      1 Y52        -0.0242
     10 C10         7.7970  135.9650   79.0150 C.ar      1 Y52        -0.0703
     11 C11         6.4480  136.2330   78.9900 C.ar      1 Y52        -0.0758
     12 C12         5.5570  135.3830   79.6040 C.ar      1 Y52        -0.0753
     13 C13         6.0160  134.2630   80.2450 C.ar      1 Y52        -0.0658
     14 C14         7.3770  133.9730   80.2790 C.ar      1 Y52        -0.0303
     15 C15         7.8680  132.7480   80.9810 C.3       1 Y52         0.0487
     16 S16         6.7660  131.3010   80.8550 S.3       1 Y52        -0.0295
     17 C17         7.7410  130.1430   81.7070 C.2       1 Y52         0.1600
     18 S18         7.0570  128.5400   81.8810 S.3       1 Y52         0.0131
     19 C19         8.4860  128.0680   82.7390 C.ar      1 Y52         0.0434
     20 C20         8.8220  126.8410   83.2970 C.ar      1 Y52        -0.0573
     21 C21        10.0300  126.7200   83.9330 C.ar      1 Y52        -0.0424
     22 C22        10.9060  127.7940   84.0240 C.ar      1 Y52         0.0791
     23 O23        12.0780  127.5410   84.6810 O.3       1 Y52        -0.3268
     24 C24        12.2150  126.3650   85.4630 C.3       1 Y52         0.0578
     25 C25        10.5830  129.0200   83.4730 C.ar      1 Y52        -0.0316
     26 C26         9.3630  129.1510   82.8270 C.ar      1 Y52         0.0138
     27 N27         8.9060  130.3310   82.2250 N.2       1 Y52        -0.3018
     28 H1         13.3721  133.0311   77.7041 H         1 Y52         0.0574
     29 H2         12.1280  133.7390   76.6188 H         1 Y52         0.0574
     30 H3         11.8999  132.0886   77.2904 H         1 Y52         0.0574
     31 H4         11.6306  134.8486   80.5095 H         1 Y52         0.1298
     32 H5         10.5562  137.0279   83.1964 H         1 Y52         0.0603
     33 H6         11.6247  137.1784   81.7604 H         1 Y52         0.0603
     34 H7         11.7647  135.7482   82.8382 H         1 Y52         0.0603
     35 H8          8.4914  136.6414   78.5300 H         1 Y52         0.0535
     36 H9          6.0845  137.1196   78.4833 H         1 Y52         0.0543
     37 H10         4.4950  135.5991   79.5805 H         1 Y52         0.0542
     38 H11         5.3127  133.5961   80.7305 H         1 Y52         0.0536
     39 H12         7.9930  132.9911   82.0465 H         1 Y52         0.0569
     40 H13         8.8426  132.4744   80.5505 H         1 Y52         0.0569
     41 H14         8.1438  125.9979   83.2309 H         1 Y52         0.0543
     42 H15        10.3068  125.7688   84.3730 H         1 Y52         0.0490
     43 H16        13.2197  126.3370   85.9100 H         1 Y52         0.0575
     44 H17        12.0733  125.4810   84.8238 H         1 Y52         0.0575
     45 H18        11.4583  126.3653   86.2614 H         1 Y52         0.0575
     46 H19        11.2666  129.8583   83.5442 H         1 Y52         0.0467
@<TRIPOS>BOND
     1    1    2 1  
     2    2    3 1  
     3    3    4 2  
     4    3    5 1  
     5    5    6 2  
     6    5    9 1  
     7    6    7 1  
     8    7    8 1  
     9    9   10 ar 
    10    9   14 ar 
    11   10   11 ar 
    12   11   12 ar 
    13   12   13 ar 
    14   13   14 ar 
    15   14   15 1  
    16   15   16 1  
    17   16   17 1  
    18   17   18 1  
    19   17   27 2  
    20   18   19 1  
    21   19   20 ar 
    22   19   26 ar 
    23   20   21 ar 
    24   21   22 ar 
    25   22   23 1  
    26   22   25 ar 
    27   23   24 1  
    28   25   26 ar 
    29   26   27 1  
    30    1   28 1  
    31    1   29 1  
    32    1   30 1  
    33    6   31 1  
    34    8   32 1  
    35    8   33 1  
    36    8   34 1  
    37   10   35 1  
    38   11   36 1  
    39   12   37 1  
    40   13   38 1  
    41   15   39 1  
    42   15   40 1  
    43   20   41 1  
    44   21   42 1  
    45   24   43 1  
    46   24   44 1  
    47   24   45 1  
    48   25   46 1  
@<TRIPOS>SUBSTRUCTURE
     1 Y52         1

