### 
### Created by X-TOOL on Mon Sep 10 21:13:18 2018
### 

@<TRIPOS>MOLECULE
4u43_ligand
   25    27     1     0     0
SMALL
GAST_HUCK


@<TRIPOS>ATOM
      1 C4         25.0710   22.6070   -9.1960 C.ar      1 3D8         0.0351
      2 C6         26.4660   21.4850  -11.0030 C.ar      1 3D8        -0.0006
      3 C11        25.8870   27.4620   -4.4660 C.2       1 3D8        -0.0759
      4 C8         26.9030   25.3840   -7.3590 C.2       1 3D8         0.1754
      5 C9         26.6490   26.2640   -6.2760 C.2       1 3D8         0.1490
      6 C10        25.6120   26.3830   -5.3580 C.2       1 3D8        -0.0603
      7 C12        27.1430   27.9560   -4.9220 C.2       1 3D8         0.0517
      8 C3         26.1910   23.4660   -8.8860 C.ar      1 3D8         0.0952
      9 C1         27.6050   22.2820  -10.7170 C.ar      1 3D8        -0.0433
     10 C2         27.4660   23.2800   -9.6810 C.ar      1 3D8        -0.0178
     11 N5         25.2560   21.6720  -10.2570 N.ar      1 3D8        -0.3077
     12 N7         25.9600   24.3930   -7.8030 N.pl3     1 3D8        -0.2385
     13 N13        27.5910   27.2880   -5.9520 N.pl3     1 3D8        -0.1650
     14 N14        28.7940   27.4700   -6.6940 N.2       1 3D8        -0.1640
     15 C15        29.0720   26.6790   -7.7510 C.2       1 3D8         0.0810
     16 N16        28.1590   25.6100   -8.0460 N.2       1 3D8        -0.2700
     17 H          24.1370   22.6701   -8.6495 H         1 3D8         0.0748
     18 H          26.5109   20.7355  -11.7848 H         1 3D8         0.0726
     19 H          25.2817   27.8219   -3.6353 H         1 3D8         0.0334
     20 H          24.7263   25.7502   -5.3248 H         1 3D8         0.0309
     21 H          27.6688   28.7932   -4.4652 H         1 3D8         0.0831
     22 H          28.5382   22.1481  -11.2521 H         1 3D8         0.0679
     23 H          28.3111   23.9232   -9.4638 H         1 3D8         0.0659
     24 H          25.0552   24.3407   -7.3136 H         1 3D8         0.2223
     25 H          29.9591   26.8454   -8.3603 H         1 3D8         0.1046
@<TRIPOS>BOND
     1    8    1 ar 
     2    1   11 ar 
     3    2    9 ar 
     4   11    2 ar 
     5    6    3 1  
     6    7    3 2  
     7    4    5 1  
     8   12    4 1  
     9    4   16 2  
    10    5    6 2  
    11    5   13 1  
    12   13    7 1  
    13    8   10 ar 
    14    8   12 1  
    15    9   10 ar 
    16   13   14 1  
    17   14   15 2  
    18   15   16 1  
    19    1   17 1  
    20    2   18 1  
    21    3   19 1  
    22    6   20 1  
    23    7   21 1  
    24    9   22 1  
    25   10   23 1  
    26   12   24 1  
    27   15   25 1  
@<TRIPOS>SUBSTRUCTURE
     1 3D8         1

