### 
### Created by X-TOOL on Mon Sep 10 21:13:19 2018
### 

@<TRIPOS>MOLECULE
4u44_ligand
   35    38     1     0     0
SMALL
GAST_HUCK


@<TRIPOS>ATOM
      1 C4        -13.5350   -1.0720   28.7190 C.ar      1 3D9        -0.0374
      2 C5        -14.0610   -0.6260   27.5070 C.ar      1 3D9        -0.0609
      3 C6        -13.5620    0.5380   26.9480 C.ar      1 3D9        -0.0656
      4 C7        -14.0210   -2.3250   29.3420 C.2       1 3D9        -0.0266
      5 C8        -15.0300   -3.1870   28.8800 C.2       1 3D9        -0.0489
      6 C9        -15.0940   -4.2250   29.7830 C.2       1 3D9         0.1527
      7 C10       -15.8840   -5.3960   29.8780 C.2       1 3D9         0.1778
      8 C12       -14.7530   -5.9840   31.8400 C.2       1 3D9         0.0817
      9 C3        -12.5010   -0.3570   29.3430 C.ar      1 3D9        -0.0609
     10 C1        -12.5460    1.2440   27.5730 C.ar      1 3D9        -0.0656
     11 C2        -12.0170    0.8040   28.7720 C.ar      1 3D9        -0.0656
     12 N11       -15.6670   -6.2130   30.9060 N.2       1 3D9        -0.2690
     13 N13       -14.0070   -4.9220   31.8120 N.2       1 3D9        -0.1624
     14 N14       -14.1420   -4.0020   30.7650 N.pl3     1 3D9        -0.1603
     15 C15       -13.5050   -2.8580   30.4960 C.2       1 3D9         0.0656
     16 N16       -16.8390   -5.6480   28.8940 N.pl3     1 3D9        -0.2366
     17 C17       -17.6730   -6.7780   28.7880 C.ar      1 3D9         0.0872
     18 C18       -17.9610   -7.6500   29.8460 C.ar      1 3D9        -0.0101
     19 C19       -18.7960   -8.7270   29.6480 C.ar      1 3D9        -0.0010
     20 N20       -19.3430   -8.9470   28.4670 N.ar      1 3D9        -0.3136
     21 C21       -19.1140   -8.1490   27.4320 C.ar      1 3D9        -0.0010
     22 C22       -18.2820   -7.0500   27.5550 C.ar      1 3D9        -0.0101
     23 H         -14.8481   -1.1819   27.0105 H         1 3D9         0.0586
     24 H         -13.9701    0.9011   26.0117 H         1 3D9         0.0607
     25 H         -15.6395   -3.0597   27.9866 H         1 3D9         0.0323
     26 H         -14.6258   -6.7029   32.6481 H         1 3D9         0.1049
     27 H         -12.0811   -0.7167   30.2754 H         1 3D9         0.0586
     28 H         -12.1626    2.1497   27.1173 H         1 3D9         0.0585
     29 H         -11.2287    1.3655   29.2602 H         1 3D9         0.0607
     30 H         -12.7073   -2.4208   31.0947 H         1 3D9         0.0880
     31 H         -16.9464   -4.9289   28.1645 H         1 3D9         0.2241
     32 H         -17.5253   -7.4764   30.8233 H         1 3D9         0.0633
     33 H         -19.0063   -9.4011   30.4705 H         1 3D9         0.0786
     34 H         -19.5843   -8.3605   26.4785 H         1 3D9         0.0786
     35 H         -18.1024   -6.4037   26.7035 H         1 3D9         0.0633
@<TRIPOS>BOND
     1    1    2 ar 
     2    1    4 1  
     3    1    9 ar 
     4    2    3 ar 
     5    3   10 ar 
     6    4    5 1  
     7    4   15 2  
     8    5    6 2  
     9    6    7 1  
    10    6   14 1  
    11    7   12 2  
    12    7   16 1  
    13   12    8 1  
    14    8   13 2  
    15    9   11 ar 
    16   10   11 ar 
    17   13   14 1  
    18   14   15 1  
    19   16   17 1  
    20   17   18 ar 
    21   17   22 ar 
    22   18   19 ar 
    23   19   20 ar 
    24   20   21 ar 
    25   21   22 ar 
    26    2   23 1  
    27    3   24 1  
    28    5   25 1  
    29    8   26 1  
    30    9   27 1  
    31   10   28 1  
    32   11   29 1  
    33   15   30 1  
    34   16   31 1  
    35   18   32 1  
    36   19   33 1  
    37   21   34 1  
    38   22   35 1  
@<TRIPOS>SUBSTRUCTURE
     1 3D9         1

