### 
### Created by X-TOOL on Mon Sep 10 21:13:18 2018
### 

@<TRIPOS>MOLECULE
4u45_ligand
   32    35     1     0     0
SMALL
GAST_HUCK


@<TRIPOS>ATOM
      1 C4        -21.3570    8.8040  -16.1800 C.ar      1 3DC        -0.0010
      2 C5        -22.2480    7.7620  -15.9890 C.ar      1 3DC        -0.0101
      3 C6        -22.5140    6.9180  -17.0620 C.ar      1 3DC         0.0870
      4 C11       -26.2420    2.3540  -16.6190 C.2       1 3DC        -0.0459
      5 C8        -24.3230    5.4610  -16.0290 C.2       1 3DC         0.1761
      6 C9        -25.0510    4.2440  -16.1960 C.2       1 3DC         0.1482
      7 C10       -25.1760    3.1890  -17.0880 C.2       1 3DC        -0.0566
      8 C12       -26.7480    2.8740  -15.4430 C.2       1 3DC         0.0549
      9 N3        -20.7300    9.0410  -17.3350 N.ar      1 3DC        -0.3136
     10 C1        -21.8810    7.1570  -18.2760 C.ar      1 3DC        -0.0101
     11 C2        -21.0000    8.2190  -18.3540 C.ar      1 3DC        -0.0010
     12 N7        -23.3740    5.7980  -16.9580 N.pl3     1 3DC        -0.2371
     13 N13       -26.0410    4.0280  -15.1730 N.pl3     1 3DC        -0.1662
     14 N14       -26.2800    4.8860  -14.1200 N.2       1 3DC        -0.1646
     15 C15       -25.5060    5.9740  -14.1390 C.2       1 3DC         0.0807
     16 N16       -24.5570    6.2960  -15.0200 N.2       1 3DC        -0.2701
     17 C17       -26.7640    1.1740  -17.2520 C.2       1 3DC        -0.0204
     18 C18       -27.8020    0.3710  -16.8070 C.2       1 3DC         0.0512
     19 N19       -27.9500   -0.6180  -17.6920 N.pl3     1 3DC        -0.2219
     20 N21       -27.0620   -0.5310  -18.7040 N.2       1 3DC        -0.2194
     21 C22       -26.3440    0.5550  -18.4440 C.2       1 3DC        -0.0002
     22 H         -21.1569    9.4651  -15.3446 H         1 3DC         0.0786
     23 H         -22.7259    7.6079  -15.0283 H         1 3DC         0.0632
     24 H         -24.5744    3.0254  -17.9809 H         1 3DC         0.0288
     25 H         -27.5529    2.4526  -14.8425 H         1 3DC         0.0806
     26 H         -22.0729    6.5280  -19.1377 H         1 3DC         0.0632
     27 H         -20.4978    8.3960  -19.2982 H         1 3DC         0.0786
     28 H         -23.2667    5.1121  -17.7189 H         1 3DC         0.2238
     29 H         -25.6700    6.6887  -13.3339 H         1 3DC         0.1042
     30 H         -28.3891    0.5192  -15.9019 H         1 3DC         0.0965
     31 H         -28.6593   -1.3605  -17.6114 H         1 3DC         0.2573
     32 H         -25.5334    0.9202  -19.0729 H         1 3DC         0.0654
@<TRIPOS>BOND
     1    2    1 ar 
     2    1    9 ar 
     3    3    2 ar 
     4    3   10 ar 
     5   12    3 1  
     6    7    4 1  
     7    4    8 2  
     8    4   17 1  
     9    6    5 1  
    10    5   12 1  
    11    5   16 2  
    12    6    7 2  
    13    6   13 1  
    14    8   13 1  
    15    9   11 ar 
    16   10   11 ar 
    17   13   14 1  
    18   14   15 2  
    19   15   16 1  
    20   17   18 2  
    21   17   21 1  
    22   18   19 1  
    23   19   20 1  
    24   20   21 2  
    25    1   22 1  
    26    2   23 1  
    27    7   24 1  
    28    8   25 1  
    29   10   26 1  
    30   11   27 1  
    31   12   28 1  
    32   15   29 1  
    33   18   30 1  
    34   19   31 1  
    35   21   32 1  
@<TRIPOS>SUBSTRUCTURE
     1 3DC         1

