### 
### Created by X-TOOL on Sat Nov 28 16:02:34 2015
### 

@<TRIPOS>MOLECULE
4u4s_ligand
   25    26     1     0     0
SMALL
GAST_HUCK


@<TRIPOS>ATOM
      1 C1        -16.5180   43.8380   -5.4890 C.ar      1 MOL         0.0231
      2 N1        -17.3180   43.4250   -4.4810 N.ar      1 MOL        -0.3143
      3 O1        -13.5080   44.9610   -6.5320 O.2       1 MOL        -0.1511
      4 C2        -17.4460   44.2350   -3.4190 C.ar      1 MOL        -0.0036
      5 N2        -14.7480   47.1390   -6.6080 N.am      1 MOL        -0.2266
      6 O2        -15.5400   45.2350   -8.0410 O.2       1 MOL        -0.1511
      7 C3        -16.7950   45.4540   -3.3290 C.ar      1 MOL        -0.0147
      8 N3        -15.3020   47.1170   -4.3020 N.pl3     1 MOL        -0.2823
      9 C4        -15.8450   45.0410   -5.4550 C.ar      1 MOL         0.1525
     10 C5        -14.3150   47.5110   -5.2840 C.3       1 MOL         0.1087
     11 C6        -15.9610   45.9010   -4.3680 C.ar      1 MOL         0.0893
     12 C7        -15.4170   47.9720   -3.1080 C.3       1 MOL         0.0282
     13 C8        -16.7050   48.7960   -3.1220 C.3       1 MOL        -0.0449
     14 S1        -14.8340   45.4840   -6.8020 S.o2      1 MOL         0.0723
     15 H         -16.4010   43.1993   -6.3570 H         1 MOL         0.0800
     16 H         -18.0837   43.9231   -2.5997 H         1 MOL         0.0780
     17 H         -14.9711   47.7971   -7.3272 H         1 MOL         0.1694
     18 H         -16.9302   46.0701   -2.4474 H         1 MOL         0.0610
     19 H         -14.1759   48.6013   -5.2410 H         1 MOL         0.0740
     20 H         -13.3613   47.0106   -5.0604 H         1 MOL         0.0740
     21 H         -14.5566   48.6566   -3.0760 H         1 MOL         0.0517
     22 H         -15.4119   47.3345   -2.2116 H         1 MOL         0.0517
     23 H         -16.7519   49.4185   -2.2163 H         1 MOL         0.0249
     24 H         -17.5725   48.1201   -3.1477 H         1 MOL         0.0249
     25 H         -16.7172   49.4423   -4.0120 H         1 MOL         0.0249
@<TRIPOS>BOND
     1    2    1 ar 
     2    1    9 ar 
     3    4    2 ar 
     4   14    3 2  
     5    7    4 ar 
     6   10    5 1  
     7    5   14 am 
     8   14    6 2  
     9   11    7 ar 
    10    8   10 1  
    11    8   11 1  
    12    8   12 1  
    13    9   11 ar 
    14    9   14 1  
    15   12   13 1  
    16    1   15 1  
    17    4   16 1  
    18    5   17 1  
    19    7   18 1  
    20   10   19 1  
    21   10   20 1  
    22   12   21 1  
    23   12   22 1  
    24   13   23 1  
    25   13   24 1  
    26   13   25 1  
@<TRIPOS>SUBSTRUCTURE
     1 MOL         1

