### 
### Created by X-TOOL on Sat Nov 28 16:02:34 2015
### 

@<TRIPOS>MOLECULE
4u4x_ligand
   25    26     1     0     0
SMALL
GAST_HUCK


@<TRIPOS>ATOM
      1 CAH       -24.3710  -18.9470   18.0010 C.3       1 MOL         0.1077
      2 NAJ       -23.7260  -18.4710   16.7710 N.am      1 MOL        -0.2261
      3 SAN       -23.4560  -16.8650   16.8340 S.o2      1 MOL         0.0817
      4 OAB       -24.7540  -16.1490   16.9290 O.2       1 MOL        -0.1503
      5 OAC       -22.5900  -16.5560   15.6660 O.2       1 MOL        -0.1503
      6 CAL       -22.5940  -16.6970   18.3290 C.ar      1 MOL         0.1993
      7 NAI       -21.8460  -15.5820   18.4630 N.ar      1 MOL        -0.2848
      8 CAE       -21.1330  -15.3860   19.6490 C.ar      1 MOL        -0.0006
      9 CAD       -21.1940  -16.3240   20.6560 C.ar      1 MOL        -0.0457
     10 CAF       -21.9670  -17.4660   20.5200 C.ar      1 MOL        -0.0224
     11 CAK       -22.7000  -17.6900   19.3410 C.ar      1 MOL         0.0976
     12 NAM       -23.4880  -18.7880   19.1750 N.pl3     1 MOL        -0.2842
     13 CAG       -23.6070  -19.8530   20.2050 C.3       1 MOL         0.0270
     14 CAA       -22.3180  -20.6860   20.2460 C.3       1 MOL        -0.0451
     15 H         -24.6209  -20.0118   17.8840 H         1 MOL         0.0737
     16 H         -25.2928  -18.3701   18.1670 H         1 MOL         0.0737
     17 H         -23.4841  -19.0554   15.9964 H         1 MOL         0.1694
     18 H         -20.5306  -14.4939   19.7767 H         1 MOL         0.0711
     19 H         -20.6293  -16.1665   21.5678 H         1 MOL         0.0674
     20 H         -22.0068  -18.1898   21.3259 H         1 MOL         0.0636
     21 H         -24.4561  -20.5069   19.9573 H         1 MOL         0.0514
     22 H         -23.7745  -19.3915   21.1893 H         1 MOL         0.0514
     23 H         -22.4133  -21.4716   21.0100 H         1 MOL         0.0249
     24 H         -21.4678  -20.0339   20.4948 H         1 MOL         0.0249
     25 H         -22.1494  -21.1493   19.2627 H         1 MOL         0.0249
@<TRIPOS>BOND
     1    1    2 1  
     2    1   12 1  
     3    2    3 am 
     4    3    4 2  
     5    3    5 2  
     6    3    6 1  
     7    6    7 ar 
     8    6   11 ar 
     9    7    8 ar 
    10    8    9 ar 
    11    9   10 ar 
    12   10   11 ar 
    13   11   12 1  
    14   12   13 1  
    15   13   14 1  
    16    1   15 1  
    17    1   16 1  
    18    2   17 1  
    19    8   18 1  
    20    9   19 1  
    21   10   20 1  
    22   13   21 1  
    23   13   22 1  
    24   14   23 1  
    25   14   24 1  
    26   14   25 1  
@<TRIPOS>SUBSTRUCTURE
     1 MOL         1

