### 
### Created by X-TOOL on Mon Sep 10 21:13:23 2018
### 

@<TRIPOS>MOLECULE
4u54_ligand
   30    31     1     0     0
SMALL
GAST_HUCK


@<TRIPOS>ATOM
      1 C10        -0.1950  124.2660  -12.0830 C.ar      1 3C5         0.0079
      2 C01        -4.3290  129.9320  -13.8540 C.3       1 3C5        -0.0435
      3 N02        -3.6530  129.2190  -12.7730 N.4       1 3C5         0.2369
      4 C03        -2.3880  128.6600  -13.2370 C.3       1 3C5         0.0000
      5 C04        -1.7210  127.7630  -12.1890 C.ar      1 3C5         0.0027
      6 C09        -1.2750  126.4970  -12.5660 C.ar      1 3C5        -0.0462
      7 C08        -0.6560  125.6610  -11.6460 C.ar      1 3C5        -0.0173
      8 C07        -0.4810  126.0960  -10.3340 C.ar      1 3C5        -0.0592
      9 C06        -0.9230  127.3610   -9.9510 C.ar      1 3C5        -0.0667
     10 C05        -1.5420  128.2010  -10.8750 C.ar      1 3C5        -0.0543
     11 C15         0.9890  123.7020  -11.6120 C.ar      1 3C5         0.0186
     12 N14         1.3690  122.4870  -11.9940 N.ar      1 3C5        -0.2963
     13 C13         0.6420  121.7680  -12.8320 C.ar      1 3C5         0.0108
     14 C12        -0.5530  122.2560  -13.3410 C.ar      1 3C5        -0.0338
     15 C11        -0.9860  123.5260  -12.9630 C.ar      1 3C5        -0.0351
     16 H1         -5.2788  130.3448  -13.4832 H         1 3C5         0.0777
     17 H2         -4.5299  129.2368  -14.6824 H         1 3C5         0.0777
     18 H3         -3.6874  130.7514  -14.2103 H         1 3C5         0.0777
     19 H4         -4.2459  128.4714  -12.4480 H         1 3C5         0.2025
     20 H5         -3.4738  129.8593  -12.0154 H         1 3C5         0.2025
     21 H6         -1.7047  129.4874  -13.4788 H         1 3C5         0.0979
     22 H7         -2.5769  128.0640  -14.1420 H         1 3C5         0.0979
     23 H8         -1.4128  126.1619  -13.5876 H         1 3C5         0.0570
     24 H9          0.0001  125.4490   -9.6094 H         1 3C5         0.0575
     25 H10        -0.7846  127.6935   -8.9286 H         1 3C5         0.0603
     26 H11        -1.8817  129.1861  -10.5762 H         1 3C5         0.0567
     27 H12         1.6100  124.2631  -10.9231 H         1 3C5         0.0831
     28 H13         0.9846  120.7824  -13.1259 H         1 3C5         0.0820
     29 H14        -1.1431  121.6566  -14.0247 H         1 3C5         0.0709
     30 H15        -1.9168  123.9300  -13.3443 H         1 3C5         0.0741
@<TRIPOS>BOND
     1    7    1 1  
     2    1   11 ar 
     3    1   15 ar 
     4    3    2 1  
     5    4    3 1  
     6    5    4 1  
     7    6    5 ar 
     8    5   10 ar 
     9    6    7 ar 
    10    7    8 ar 
    11    8    9 ar 
    12    9   10 ar 
    13   11   12 ar 
    14   12   13 ar 
    15   13   14 ar 
    16   14   15 ar 
    17    2   16 1  
    18    2   17 1  
    19    2   18 1  
    20    3   19 1  
    21    3   20 1  
    22    4   21 1  
    23    4   22 1  
    24    6   23 1  
    25    8   24 1  
    26    9   25 1  
    27   10   26 1  
    28   11   27 1  
    29   13   28 1  
    30   14   29 1  
    31   15   30 1  
@<TRIPOS>SUBSTRUCTURE
     1 3C5         1

