### 
### Created by X-TOOL on Mon Sep 10 21:13:25 2018
### 

@<TRIPOS>MOLECULE
4u58_ligand
   47    48     1     0     0
SMALL
GAST_HUCK


@<TRIPOS>ATOM
      1 CAA         0.6220   31.2290   13.2400 C.ar      1 3C6        -0.0340
      2 CAB         0.0690   29.9960   13.5680 C.ar      1 3C6        -0.0332
      3 CAC        -1.1920   29.7070   13.0620 C.ar      1 3C6         0.0114
      4 NAD        -1.8480   30.5630   12.2970 N.ar      1 3C6        -0.2956
      5 CAE        -1.3390   31.7330   11.9720 C.ar      1 3C6         0.0197
      6 CAF        -0.0930   32.1120   12.4410 C.ar      1 3C6         0.0121
      7 CAG         0.5060   33.4630   12.0730 C.ar      1 3C6        -0.0068
      8 CAH         0.1640   34.0870   10.8760 C.ar      1 3C6        -0.0472
      9 CAI         0.7270   35.3150   10.5510 C.ar      1 3C6        -0.0409
     10 CAL         1.4020   34.0650   12.9420 C.ar      1 3C6        -0.0472
     11 CAK         1.9600   35.2950   12.6150 C.ar      1 3C6        -0.0409
     12 CAJ         1.6190   35.9220   11.4310 C.ar      1 3C6         0.0502
     13 CAM         2.2680   37.2610   11.0900 C.2       1 3C6         0.2072
     14 OAX         2.2420   37.6740    9.9810 O.2       1 3C6        -0.3845
     15 N           2.9470   38.0080   12.1250 N.am      1 3C6        -0.2650
     16 CA          3.5780   39.2640   11.7970 C.3       1 3C6         0.1302
     17 C           5.0840   39.0350   11.6480 C.2       1 3C6         0.1991
     18 O           5.7320   39.7850   10.9950 O.2       1 3C6        -0.3947
     19 NAW         5.7260   37.8970   12.2850 N.am      1 3C6        -0.2990
     20 CB          3.3110   40.2580   12.9150 C.3       1 3C6        -0.0123
     21 CG          1.8180   40.5600   13.0470 C.3       1 3C6        -0.0440
     22 CD          1.2740   41.4360   11.9210 C.3       1 3C6        -0.0124
     23 CE          0.8290   42.8130   12.4190 C.3       1 3C6        -0.0354
     24 NZ          0.8820   43.7760   11.3270 N.4       1 3C6         0.2185
     25 H1          1.6058   31.4996   13.6059 H         1 3C6         0.0746
     26 H2          0.6008   29.2884   14.1937 H         1 3C6         0.0710
     27 H3         -1.6505   28.7542   13.3007 H         1 3C6         0.0824
     28 H4         -1.9000   32.4046   11.3322 H         1 3C6         0.0837
     29 H5         -0.5398   33.6158   10.1994 H         1 3C6         0.0641
     30 H6          0.4725   35.7990    9.6150 H         1 3C6         0.0670
     31 H7          1.6667   33.5781   13.8736 H         1 3C6         0.0641
     32 H8          2.6654   35.7647   13.2909 H         1 3C6         0.0670
     33 H9          2.9792   37.6572   13.0609 H         1 3C6         0.1876
     34 H10         3.1682   39.6522   10.8529 H         1 3C6         0.0799
     35 H11         6.7106   37.7560   12.1817 H         1 3C6         0.1815
     36 H12         5.1831   37.2551   12.8265 H         1 3C6         0.1815
     37 H13         3.8477   41.1934   12.6982 H         1 3C6         0.0312
     38 H14         3.6763   39.8370   13.8633 H         1 3C6         0.0312
     39 H15         1.6502   41.0774   14.0031 H         1 3C6         0.0269
     40 H16         1.2681   39.6073   13.0441 H         1 3C6         0.0269
     41 H17         0.4111   40.9294   11.4642 H         1 3C6         0.0317
     42 H18         2.0621   41.5709   11.1656 H         1 3C6         0.0317
     43 H19         1.4977   43.1419   13.2281 H         1 3C6         0.0813
     44 H20        -0.2014   42.7482   12.7984 H         1 3C6         0.0813
     45 H21         0.5878   44.6801   11.6618 H         1 3C6         0.1994
     46 H22         0.2689   43.4767   10.5850 H         1 3C6         0.1994
     47 H23         1.8259   43.8375   10.9787 H         1 3C6         0.1994
@<TRIPOS>BOND
     1    1    2 ar 
     2    1    6 ar 
     3    2    3 ar 
     4    3    4 ar 
     5    4    5 ar 
     6    5    6 ar 
     7    6    7 1  
     8    7    8 ar 
     9    7   10 ar 
    10    8    9 ar 
    11    9   12 ar 
    12   10   11 ar 
    13   11   12 ar 
    14   12   13 1  
    15   13   14 2  
    16   13   15 am 
    17   15   16 1  
    18   16   17 1  
    19   16   20 1  
    20   17   18 2  
    21   17   19 am 
    22   20   21 1  
    23   21   22 1  
    24   22   23 1  
    25   23   24 1  
    26    1   25 1  
    27    2   26 1  
    28    3   27 1  
    29    5   28 1  
    30    8   29 1  
    31    9   30 1  
    32   10   31 1  
    33   11   32 1  
    34   15   33 1  
    35   16   34 1  
    36   19   35 1  
    37   19   36 1  
    38   20   37 1  
    39   20   38 1  
    40   21   39 1  
    41   21   40 1  
    42   22   41 1  
    43   22   42 1  
    44   23   43 1  
    45   23   44 1  
    46   24   45 1  
    47   24   46 1  
    48   24   47 1  
@<TRIPOS>SUBSTRUCTURE
     1 3C6         1

