### 
### Created by X-TOOL on Mon Sep 10 21:13:18 2018
### 

@<TRIPOS>MOLECULE
4u5j_ligand
   44    47     1     0     0
SMALL
GAST_HUCK


@<TRIPOS>ATOM
      1 CAK        -9.9220   26.9370    7.9160 C.3       1 RXT        -0.0290
      2 CAH       -10.2330   28.5000    7.8030 C.2       1 RXT        -0.0981
      3 CAI       -11.2460   28.6150    6.9090 C.2       1 RXT        -0.0981
      4 CAL       -11.9880   27.1340    6.7970 C.3       1 RXT        -0.0290
      5 CAU       -11.0620   26.1780    7.1160 C.3       1 RXT         0.0054
      6 CAV       -10.4760   25.4700    5.8710 C.3       1 RXT         0.0955
      7 CAJ       -11.5650   24.6940    5.1580 C.3       1 RXT         0.0211
      8 CAB       -11.4280   23.2100    5.4960 C.3       1 RXT        -0.0323
      9 NAA       -12.5950   22.7910    6.1840 N.4       1 RXT         0.2186
     10 NAW        -9.8050   26.3380    4.9580 N.pl3     1 RXT        -0.1931
     11 CAG        -8.4850   26.5440    4.9920 C.2       1 RXT         0.0746
     12 NAO       -10.3460   27.0060    3.9620 N.2       1 RXT        -0.2088
     13 CAF        -9.4100   27.7040    3.3000 C.2       1 RXT         0.0124
     14 CAQ        -8.1570   27.4300    3.9270 C.2       1 RXT         0.0249
     15 CAR        -6.7910   27.9610    3.6250 C.ar      1 RXT         0.0372
     16 NAM        -6.6240   29.0140    2.8050 N.ar      1 RXT        -0.2928
     17 CAE        -5.4140   29.5000    2.5700 C.ar      1 RXT         0.0576
     18 NAP        -4.3250   28.9760    3.1280 N.ar      1 RXT        -0.2664
     19 CAT        -4.4000   27.8950    3.9890 C.ar      1 RXT         0.1417
     20 CAS        -5.6420   27.3540    4.2710 C.ar      1 RXT         0.0203
     21 CAD        -5.4050   26.2520    5.1970 C.2       1 RXT        -0.0530
     22 CAC        -4.0180   26.2290    5.3960 C.2       1 RXT         0.0285
     23 NAN        -3.4550   27.1960    4.6820 N.pl3     1 RXT        -0.2624
     24 H          -9.9296   26.6257    8.9710 H         1 RXT         0.0393
     25 H          -8.9391   26.7146    7.4751 H         1 RXT         0.0393
     26 H          -9.7334   29.3081    8.3353 H         1 RXT         0.0450
     27 H         -11.5228   29.5158    6.3632 H         1 RXT         0.0450
     28 H         -12.3526   26.9745    5.7715 H         1 RXT         0.0393
     29 H         -12.8337   27.0849    7.4987 H         1 RXT         0.0393
     30 H         -11.5283   25.4183    7.7605 H         1 RXT         0.0372
     31 H          -9.7297   24.7476    6.2331 H         1 RXT         0.0691
     32 H         -11.4658   24.8345    4.0715 H         1 RXT         0.0349
     33 H         -12.5503   25.0566    5.4862 H         1 RXT         0.0349
     34 H         -10.5461   23.0558    6.1351 H         1 RXT         0.0814
     35 H         -11.3156   22.6281    4.5693 H         1 RXT         0.0814
     36 H         -12.5169   21.8124    6.4129 H         1 RXT         0.1994
     37 H         -13.4014   22.9354    5.5967 H         1 RXT         0.1994
     38 H         -12.6962   23.3272    7.0315 H         1 RXT         0.1994
     39 H          -7.7857   26.1117    5.7062 H         1 RXT         0.1113
     40 H          -9.5754   28.3572    2.4445 H         1 RXT         0.0695
     41 H          -5.3078   30.3488    1.9041 H         1 RXT         0.0998
     42 H          -6.1472   25.5890    5.6391 H         1 RXT         0.0316
     43 H          -3.4854   25.5274    6.0363 H         1 RXT         0.0957
     44 H          -2.4441   27.3917    4.6548 H         1 RXT         0.2329
@<TRIPOS>BOND
     1    1    2 1  
     2    1    5 1  
     3    2    3 2  
     4    3    4 1  
     5    4    5 1  
     6    5    6 1  
     7    6    7 1  
     8    6   10 1  
     9    7    8 1  
    10    8    9 1  
    11   10   11 1  
    12   10   12 1  
    13   11   14 2  
    14   12   13 2  
    15   13   14 1  
    16   14   15 1  
    17   15   16 ar 
    18   15   20 ar 
    19   16   17 ar 
    20   17   18 ar 
    21   18   19 ar 
    22   19   20 ar 
    23   19   23 1  
    24   20   21 1  
    25   21   22 2  
    26   22   23 1  
    27    1   24 1  
    28    1   25 1  
    29    2   26 1  
    30    3   27 1  
    31    4   28 1  
    32    4   29 1  
    33    5   30 1  
    34    6   31 1  
    35    7   32 1  
    36    7   33 1  
    37    8   34 1  
    38    8   35 1  
    39    9   36 1  
    40    9   37 1  
    41    9   38 1  
    42   11   39 1  
    43   13   40 1  
    44   17   41 1  
    45   21   42 1  
    46   22   43 1  
    47   23   44 1  
@<TRIPOS>SUBSTRUCTURE
     1 RXT         1

