### 
### Created by X-TOOL on Mon Sep 10 21:13:23 2018
### 

@<TRIPOS>MOLECULE
4u5l_ligand
   49    50     1     0     0
SMALL
GAST_HUCK


@<TRIPOS>ATOM
      1 C10         2.2370   37.7880   11.4050 C.3       1 3D6         0.0031
      2 C13         1.3280   34.4980   13.1450 C.ar      1 3D6        -0.0582
      3 C15        -0.0130   32.4690   12.3490 C.ar      1 3D6         0.0053
      4 C17         0.1580   30.2220   13.1320 C.ar      1 3D6        -0.0349
      5 C20        -1.2770   32.1810   11.8380 C.ar      1 3D6         0.0170
      6 C21         0.3770   34.4880   10.9270 C.ar      1 3D6        -0.0582
      7 C22         0.9110   35.7430   10.7120 C.ar      1 3D6        -0.0530
      8 N01         3.2580   40.3310    7.9050 N.am      1 3D6        -0.2963
      9 C02         3.4260   39.7190    9.2210 C.2       1 3D6         0.2221
     10 C03         3.5650   38.1820    9.3440 C.3       1 3D6         0.0679
     11 C04         2.5030   37.4750    8.4770 C.3       1 3D6         0.0081
     12 C05         2.9900   36.8480    7.1600 C.3       1 3D6        -0.0410
     13 C06         1.9700   37.0190    6.0210 C.3       1 3D6        -0.0123
     14 C07         1.9430   38.4500    5.4430 C.3       1 3D6        -0.0354
     15 N08         0.9850   38.6300    4.3500 N.4       1 3D6         0.2185
     16 N09         3.5440   37.7100   10.7440 N.4       1 3D6         0.2583
     17 C11         1.6570   36.3910   11.6980 C.ar      1 3D6         0.0032
     18 C12         1.8630   35.7660   12.9270 C.ar      1 3D6        -0.0530
     19 C14         0.5810   33.8650   12.1520 C.ar      1 3D6        -0.0170
     20 C16         0.7360   31.4830   12.9960 C.ar      1 3D6        -0.0366
     21 C18        -1.1150   30.0000   12.6120 C.ar      1 3D6         0.0098
     22 N19        -1.7790   30.9690   11.9940 N.ar      1 3D6        -0.2976
     23 O23         3.4570   40.4270   10.1810 O.2       1 3D6        -0.3911
     24 H1          1.5398   38.3325   10.7513 H         1 3D6         0.0985
     25 H2          2.3504   38.3321   12.3542 H         1 3D6         0.0985
     26 H3          1.4937   33.9999   14.0934 H         1 3D6         0.0617
     27 H4          0.6921   29.4245   13.6358 H         1 3D6         0.0706
     28 H5         -1.8433   32.9446   11.3172 H         1 3D6         0.0822
     29 H6         -0.1946   33.9946   10.1493 H         1 3D6         0.0617
     30 H7          0.7479   36.2343    9.7596 H         1 3D6         0.0564
     31 H8          3.1680   41.3236    7.8230 H         1 3D6         0.1816
     32 H9          3.2330   39.7573    7.0863 H         1 3D6         0.1816
     33 H10         4.5503   37.9138    8.9349 H         1 3D6         0.1099
     34 H11         1.7299   38.2165    8.2269 H         1 3D6         0.0346
     35 H12         2.0586   36.6722    9.0836 H         1 3D6         0.0346
     36 H13         3.1628   35.7738    7.3220 H         1 3D6         0.0270
     37 H14         3.9335   37.3309    6.8656 H         1 3D6         0.0270
     38 H15         0.9689   36.7789    6.4084 H         1 3D6         0.0317
     39 H16         2.2277   36.3195    5.2122 H         1 3D6         0.0317
     40 H17         2.9480   38.6903    5.0659 H         1 3D6         0.0813
     41 H18         1.6792   39.1459    6.2530 H         1 3D6         0.0813
     42 H19         1.0223   39.5831    4.0241 H         1 3D6         0.1994
     43 H20         0.0553   38.4242    4.6807 H         1 3D6         0.1994
     44 H21         1.2180   38.0067    3.5929 H         1 3D6         0.1994
     45 H22         3.8424   36.7473   10.7538 H         1 3D6         0.2050
     46 H23         4.1954   38.2692   11.2722 H         1 3D6         0.2050
     47 H24         2.4332   36.2611   13.7047 H         1 3D6         0.0564
     48 H25         1.7290   31.6908   13.3778 H         1 3D6         0.0731
     49 H26        -1.5701   29.0214   12.7135 H         1 3D6         0.0812
@<TRIPOS>BOND
     1   16    1 1  
     2    1   17 1  
     3    2   18 ar 
     4   19    2 ar 
     5    3    5 ar 
     6   19    3 1  
     7    3   20 ar 
     8   20    4 ar 
     9    4   21 ar 
    10    5   22 ar 
    11    7    6 ar 
    12    6   19 ar 
    13   17    7 ar 
    14    9    8 am 
    15   10    9 1  
    16    9   23 2  
    17   10   11 1  
    18   10   16 1  
    19   11   12 1  
    20   12   13 1  
    21   13   14 1  
    22   14   15 1  
    23   17   18 ar 
    24   21   22 ar 
    25    1   24 1  
    26    1   25 1  
    27    2   26 1  
    28    4   27 1  
    29    5   28 1  
    30    6   29 1  
    31    7   30 1  
    32    8   31 1  
    33    8   32 1  
    34   10   33 1  
    35   11   34 1  
    36   11   35 1  
    37   12   36 1  
    38   12   37 1  
    39   13   38 1  
    40   13   39 1  
    41   14   40 1  
    42   14   41 1  
    43   15   42 1  
    44   15   43 1  
    45   15   44 1  
    46   16   45 1  
    47   16   46 1  
    48   18   47 1  
    49   20   48 1  
    50   21   49 1  
@<TRIPOS>SUBSTRUCTURE
     1 3D6         1

