### 
### Created by X-TOOL on Mon Sep 10 21:13:23 2018
### 

@<TRIPOS>MOLECULE
4u5n_ligand
   93    95     1     0     0
SMALL
GAST_HUCK


@<TRIPOS>ATOM
      1 N           2.7450   37.3560    9.1040 N.4       1 3D4         0.2583
      2 CA          2.4160   36.5020    7.9500 C.3       1 3D4         0.0682
      3 CAA         3.2500   28.7560   10.5440 C.3       1 3D4        -0.0365
      4 CAI        -4.3020   24.8580    7.5590 C.ar      1 3D4        -0.0687
      5 CAJ        -3.5610   25.2300    6.4490 C.ar      1 3D4        -0.0686
      6 CAK        -3.7180   24.8120    8.8130 C.ar      1 3D4        -0.0686
      7 CAL        -0.0890   30.2440   12.9030 C.ar      1 3D4        -0.0349
      8 CAM        -1.3170   29.8460   12.4050 C.ar      1 3D4         0.0098
      9 CAN        -2.2290   25.5580    6.6050 C.ar      1 3D4        -0.0600
     10 CAO        -2.3780   25.1400    8.9650 C.ar      1 3D4        -0.0600
     11 CAP         0.3940   31.4950   12.5460 C.ar      1 3D4        -0.0366
     12 CAQ         0.0410   35.5050    9.7990 C.ar      1 3D4        -0.0530
     13 CAR         1.6340   35.5170   11.6120 C.ar      1 3D4        -0.0530
     14 CAS        -0.4330   34.2610   10.1840 C.ar      1 3D4        -0.0582
     15 CAT         1.1580   34.2730   12.0110 C.ar      1 3D4        -0.0582
     16 CAU        -1.5970   31.8190   11.2560 C.ar      1 3D4         0.0170
     17 CAZ         2.4720   32.5810    7.6780 C.3       1 3D4         0.1201
     18 C           2.8920   35.0610    8.1830 C.2       1 3D4         0.2266
     19 O           3.8100   34.8230    8.8970 O.2       1 3D4        -0.3907
     20 NAC         2.1810   25.9120    5.0830 N.am      1 3D4        -0.2961
     21 OAD         0.3170   24.6800    5.5970 O.2       1 3D4        -0.3909
     22 OAE         0.1700   32.1170    7.5620 O.2       1 3D4        -0.3948
     23 OAG         0.6010   28.3520    9.2680 O.3       1 3D4        -0.3506
     24 OAH         4.5980   30.3870    9.5500 O.3       1 3D4        -0.3895
     25 CB          2.9080   37.0300    6.6050 C.3       1 3D4         0.0081
     26 CBA         1.6150   37.4980   10.0490 C.3       1 3D4         0.0031
     27 CBB        -0.1370   25.8630    8.0300 C.3       1 3D4         0.0417
     28 CBH         0.9390   25.6690    5.8090 C.2       1 3D4         0.2242
     29 CBI         1.2440   31.6620    7.7740 C.2       1 3D4         0.1991
     30 CBK         1.7610   28.0740    8.5300 C.3       1 3D4         0.1082
     31 CBL         1.0750   36.1330   10.5000 C.ar      1 3D4         0.0032
     32 CBM        -1.6240   25.5100    7.8600 C.ar      1 3D4        -0.0353
     33 CBN         0.1300   33.6620   11.3000 C.ar      1 3D4        -0.0170
     34 CBO        -0.3800   32.2940   11.7220 C.ar      1 3D4         0.0053
     35 CBP         3.1770   29.8530    9.7310 C.3       1 3D4         0.0831
     36 CBR         0.4260   26.6700    6.8500 C.3       1 3D4         0.0785
     37 CBS         2.4520   29.4320    8.4330 C.3       1 3D4         0.1360
     38 NBC        -2.0320   30.6280   11.6160 N.ar      1 3D4        -0.2976
     39 NBD         2.1460   33.9910    7.5280 N.am      1 3D4        -0.2637
     40 NBF         1.2920   30.2520    8.1330 N.am      1 3D4        -0.2719
     41 NBG         1.4910   27.6430    7.1520 N.4       1 3D4         0.2710
     42 CG          2.1380   38.2920    6.2260 C.3       1 3D4        -0.0410
     43 CD          1.2830   38.0950    4.9860 C.3       1 3D4        -0.0123
     44 CE          0.8350   39.4140    4.3540 C.3       1 3D4        -0.0354
     45 NZ         -0.3790   39.2030    3.5800 N.4       1 3D4         0.2185
     46 H1          2.9998   38.2708    8.7661 H         1 3D4         0.2050
     47 H2          3.5262   36.9492    9.5941 H         1 3D4         0.2050
     48 H3          1.3181   36.4739    7.8883 H         1 3D4         0.1099
     49 H4          2.2412   28.3446   10.6961 H         1 3D4         0.0255
     50 H5          3.6775   29.0469   11.5149 H         1 3D4         0.0255
     51 H6          3.8898   27.9940   10.0751 H         1 3D4         0.0255
     52 H7         -5.3487   24.6006    7.4443 H         1 3D4         0.0559
     53 H8         -4.0221   25.2632    5.4685 H         1 3D4         0.0599
     54 H9         -4.3065   24.5202    9.6753 H         1 3D4         0.0599
     55 H10         0.4820   29.5942   13.5563 H         1 3D4         0.0706
     56 H11        -1.7022   28.8677   12.6689 H         1 3D4         0.0812
     57 H12        -1.6464   25.8565    5.7410 H         1 3D4         0.0557
     58 H13        -1.9202   25.1072    9.9470 H         1 3D4         0.0557
     59 H14         1.3572   31.8394   12.9048 H         1 3D4         0.0731
     60 H15        -0.3973   35.9996    8.9398 H         1 3D4         0.0564
     61 H16         2.4326   36.0006   12.1628 H         1 3D4         0.0564
     62 H17        -1.2228   33.7696    9.6274 H         1 3D4         0.0617
     63 H18         1.5875   33.7796   12.8754 H         1 3D4         0.0617
     64 H19        -2.1947   32.4317   10.5909 H         1 3D4         0.0822
     65 H20         3.0697   32.2699    6.8086 H         1 3D4         0.0763
     66 H21         3.0675   32.4594    8.5948 H         1 3D4         0.0763
     67 H22         2.7081   26.7435    5.2583 H         1 3D4         0.1816
     68 H23         2.5051   25.2470    4.4101 H         1 3D4         0.1816
     69 H24         0.8429   28.6239   10.1455 H         1 3D4         0.2155
     70 H25         4.5783   31.1523    8.9874 H         1 3D4         0.2099
     71 H26         2.7514   36.2622    5.8330 H         1 3D4         0.0346
     72 H27         3.9802   37.2652    6.6762 H         1 3D4         0.0346
     73 H28         0.8056   38.0558    9.5553 H         1 3D4         0.0985
     74 H29         1.9579   38.0552   10.9333 H         1 3D4         0.0985
     75 H30         0.4369   24.9291    8.1218 H         1 3D4         0.0507
     76 H31        -0.0203   26.4569    8.9485 H         1 3D4         0.0507
     77 H32         2.3819   27.3268    9.0460 H         1 3D4         0.1209
     78 H33         2.5770   30.6358   10.2180 H         1 3D4         0.0616
     79 H34        -0.4104   27.2365    6.4147 H         1 3D4         0.1124
     80 H35         3.1786   29.4506    7.6074 H         1 3D4         0.0666
     81 H36         1.3714   34.2397    6.9465 H         1 3D4         0.1882
     82 H37         0.4083   29.7862    8.1791 H         1 3D4         0.1859
     83 H38         2.3490   27.2442    6.8043 H         1 3D4         0.2066
     84 H39         1.2722   28.4769    6.6297 H         1 3D4         0.2066
     85 H40         2.8578   39.1015    6.0344 H         1 3D4         0.0270
     86 H41         1.4847   38.5732    7.0651 H         1 3D4         0.0270
     87 H42         0.3888   37.5182    5.2646 H         1 3D4         0.0317
     88 H43         1.8666   37.5309    4.2436 H         1 3D4         0.0317
     89 H44         1.6291   39.7900    3.6922 H         1 3D4         0.0813
     90 H45         0.6389   40.1508    5.1469 H         1 3D4         0.0813
     91 H46        -0.6694   40.0750    3.1661 H         1 3D4         0.1994
     92 H47        -1.1080   38.8592    4.1854 H         1 3D4         0.1994
     93 H48        -0.2006   38.5287    2.8523 H         1 3D4         0.1994
@<TRIPOS>BOND
     1    2    1 1  
     2    1   26 1  
     3   18    2 1  
     4    2   25 1  
     5   35    3 1  
     6    5    4 ar 
     7    6    4 ar 
     8    9    5 ar 
     9   10    6 ar 
    10    7    8 ar 
    11   11    7 ar 
    12   38    8 ar 
    13   32    9 ar 
    14   32   10 ar 
    15   34   11 ar 
    16   12   14 ar 
    17   31   12 ar 
    18   13   15 ar 
    19   31   13 ar 
    20   14   33 ar 
    21   15   33 ar 
    22   34   16 ar 
    23   16   38 ar 
    24   29   17 1  
    25   17   39 1  
    26   18   19 2  
    27   39   18 am 
    28   28   20 am 
    29   28   21 2  
    30   29   22 2  
    31   30   23 1  
    32   35   24 1  
    33   25   42 1  
    34   26   31 1  
    35   27   32 1  
    36   36   27 1  
    37   36   28 1  
    38   40   29 am 
    39   37   30 1  
    40   30   41 1  
    41   33   34 1  
    42   37   35 1  
    43   41   36 1  
    44   37   40 1  
    45   42   43 1  
    46   43   44 1  
    47   44   45 1  
    48    1   46 1  
    49    1   47 1  
    50    2   48 1  
    51    3   49 1  
    52    3   50 1  
    53    3   51 1  
    54    4   52 1  
    55    5   53 1  
    56    6   54 1  
    57    7   55 1  
    58    8   56 1  
    59    9   57 1  
    60   10   58 1  
    61   11   59 1  
    62   12   60 1  
    63   13   61 1  
    64   14   62 1  
    65   15   63 1  
    66   16   64 1  
    67   17   65 1  
    68   17   66 1  
    69   20   67 1  
    70   20   68 1  
    71   23   69 1  
    72   24   70 1  
    73   25   71 1  
    74   25   72 1  
    75   26   73 1  
    76   26   74 1  
    77   27   75 1  
    78   27   76 1  
    79   30   77 1  
    80   35   78 1  
    81   36   79 1  
    82   37   80 1  
    83   39   81 1  
    84   40   82 1  
    85   41   83 1  
    86   41   84 1  
    87   42   85 1  
    88   42   86 1  
    89   43   87 1  
    90   43   88 1  
    91   44   89 1  
    92   44   90 1  
    93   45   91 1  
    94   45   92 1  
    95   45   93 1  
@<TRIPOS>SUBSTRUCTURE
     1 3D4         1

