### 
### Created by X-TOOL on Mon Sep 10 21:13:25 2018
### 

@<TRIPOS>MOLECULE
4u5o_ligand
   49    50     1     0     0
SMALL
GAST_HUCK


@<TRIPOS>ATOM
      1 C18         0.5230   31.4680   13.4240 C.ar      1 3D5        -0.0366
      2 C19         0.0980   30.2150   13.8410 C.ar      1 3D5        -0.0349
      3 C20        -1.0320   29.6530   13.2600 C.ar      1 3D5         0.0098
      4 N21        -1.7030   30.3510   12.2450 N.ar      1 3D5        -0.2976
      5 C22        -1.2630   31.6010   11.8100 C.ar      1 3D5         0.0170
      6 C17        -0.1180   32.1370   12.3870 C.ar      1 3D5         0.0053
      7 C16         0.3230   33.3960   12.0120 C.ar      1 3D5        -0.0170
      8 C15        -0.1330   33.9760   10.8320 C.ar      1 3D5        -0.0582
      9 C14         0.3530   35.2220   10.4410 C.ar      1 3D5        -0.0530
     10 C13         1.3110   34.0150   12.7620 C.ar      1 3D5        -0.0582
     11 C12         1.7770   35.2670   12.3950 C.ar      1 3D5        -0.0530
     12 C11         1.3060   35.8580   11.2300 C.ar      1 3D5         0.0032
     13 C10         1.7960   37.0970   10.8760 C.3       1 3D5         0.0031
     14 N09         2.7910   37.0150    9.7970 N.4       1 3D5         0.2583
     15 C03         3.2300   38.4030    9.5890 C.3       1 3D5         0.0679
     16 C02         3.7980   38.9510   10.9200 C.2       1 3D5         0.2221
     17 O23         3.2420   39.8800   11.5110 O.2       1 3D5        -0.3911
     18 N01         4.8850   38.3240   11.3820 N.am      1 3D5        -0.2963
     19 C04         4.2480   38.4890    8.4500 C.3       1 3D5         0.0081
     20 C05         3.5930   37.9700    7.1550 C.3       1 3D5        -0.0410
     21 C06         2.3560   38.7930    6.7410 C.3       1 3D5        -0.0123
     22 C07         1.8000   38.1920    5.4350 C.3       1 3D5        -0.0354
     23 N08         0.6150   38.9000    4.9030 N.4       1 3D5         0.2185
     24 H1          1.3697   31.9338   13.9152 H         1 3D5         0.0731
     25 H2          0.6415   29.6803   14.6116 H         1 3D5         0.0706
     26 H3         -1.3917   28.6844   13.5879 H         1 3D5         0.0812
     27 H4         -1.8014   32.1416   11.0400 H         1 3D5         0.0822
     28 H5         -0.8636   33.4603   10.2193 H         1 3D5         0.0617
     29 H6         -0.0074   35.6904    9.5323 H         1 3D5         0.0564
     30 H7          1.7189   33.5194   13.6356 H         1 3D5         0.0617
     31 H8          2.5040   35.7816   13.0128 H         1 3D5         0.0564
     32 H9          2.2670   37.5564   11.7575 H         1 3D5         0.0985
     33 H10         0.9588   37.7254   10.5383 H         1 3D5         0.0985
     34 H11         2.3751   36.6440    8.9571 H         1 3D5         0.2050
     35 H12         3.5673   36.4340   10.0725 H         1 3D5         0.2050
     36 H13         2.3560   39.0095    9.3092 H         1 3D5         0.1099
     37 H14         5.3086   38.6223   12.2373 H         1 3D5         0.1816
     38 H15         5.2743   37.5568   10.8722 H         1 3D5         0.1816
     39 H16         5.1262   37.8726    8.6923 H         1 3D5         0.0346
     40 H17         4.5606   39.5346    8.3123 H         1 3D5         0.0346
     41 H18         3.2845   36.9257    7.3110 H         1 3D5         0.0270
     42 H19         4.3338   38.0162    6.3432 H         1 3D5         0.0270
     43 H20         2.6433   39.8420    6.5766 H         1 3D5         0.0317
     44 H21         1.5919   38.7415    7.5306 H         1 3D5         0.0317
     45 H22         1.5202   37.1458    5.6274 H         1 3D5         0.0813
     46 H23         2.5933   38.2253    4.6737 H         1 3D5         0.0813
     47 H24         0.3098   38.4524    4.0529 H         1 3D5         0.1994
     48 H25         0.8556   39.8596    4.7098 H         1 3D5         0.1994
     49 H26        -0.1278   38.8703    5.5837 H         1 3D5         0.1994
@<TRIPOS>BOND
     1    1    2 ar 
     2    1    6 ar 
     3    2    3 ar 
     4    3    4 ar 
     5    4    5 ar 
     6    5    6 ar 
     7    6    7 1  
     8    7    8 ar 
     9    7   10 ar 
    10    8    9 ar 
    11    9   12 ar 
    12   10   11 ar 
    13   11   12 ar 
    14   12   13 1  
    15   13   14 1  
    16   14   15 1  
    17   15   16 1  
    18   15   19 1  
    19   16   17 2  
    20   16   18 am 
    21   19   20 1  
    22   20   21 1  
    23   21   22 1  
    24   22   23 1  
    25    1   24 1  
    26    2   25 1  
    27    3   26 1  
    28    5   27 1  
    29    8   28 1  
    30    9   29 1  
    31   10   30 1  
    32   11   31 1  
    33   13   32 1  
    34   13   33 1  
    35   14   34 1  
    36   14   35 1  
    37   15   36 1  
    38   18   37 1  
    39   18   38 1  
    40   19   39 1  
    41   19   40 1  
    42   20   41 1  
    43   20   42 1  
    44   21   43 1  
    45   21   44 1  
    46   22   45 1  
    47   22   46 1  
    48   23   47 1  
    49   23   48 1  
    50   23   49 1  
@<TRIPOS>SUBSTRUCTURE
     1 3D5         1

