### 
### Created by X-TOOL on Mon Sep 10 21:13:24 2018
### 

@<TRIPOS>MOLECULE
4u5s_ligand
   90    91     1     0     0
SMALL
GAST_HUCK


@<TRIPOS>ATOM
      1 CBM         2.7030   28.5600    3.0220 C.ar      1 3D0        -0.0601
      2 CBN         3.5320   29.5770    2.5350 C.ar      1 3D0        -0.0686
      3 CBO         4.9230   29.5200    2.7690 C.ar      1 3D0        -0.0687
      4 CBP         5.4670   28.4310    3.4820 C.ar      1 3D0        -0.0686
      5 CBQ         4.6160   27.4260    3.9520 C.ar      1 3D0        -0.0601
      6 CBL         3.2260   27.4730    3.7230 C.ar      1 3D0        -0.0386
      7 CBK         2.2430   26.3580    4.2390 C.3       1 3D0         0.0214
      8 CBG         2.3090   26.1810    5.7780 C.3       1 3D0         0.1402
      9 CBH         1.0100   25.6760    6.3840 C.2       1 3D0         0.2012
     10 OBJ         1.0100   25.2420    7.4870 O.2       1 3D0        -0.3946
     11 NBI        -0.2340   25.7220    5.6120 N.am      1 3D0        -0.2988
     12 NBE         2.7060   27.4950    6.2660 N.am      1 3D0        -0.2592
     13 CBD         2.4020   28.1990    7.5250 C.2       1 3D0         0.2295
     14 OBF         1.6980   27.7660    8.3910 O.2       1 3D0        -0.3906
     15 CAZ         3.0720   29.5800    7.6370 C.3       1 3D0         0.0929
     16 CBA         4.6010   29.4250    7.7000 C.3       1 3D0         0.1121
     17 CBB         5.0190   28.0700    8.3010 C.3       1 3D0        -0.0314
     18 OBC         5.1620   30.4550    8.4700 O.3       1 3D0        -0.3840
     19 NAY         2.5660   30.3140    8.7940 N.4       1 3D0         0.2497
     20 CAX         1.6340   31.3480    8.3050 C.3       1 3D0        -0.0058
     21 CAG         1.2090   32.2570    9.4710 C.3       1 3D0         0.1051
     22 NAF         1.5880   33.6520    9.2510 N.am      1 3D0        -0.2746
     23 C           2.9510   34.2330    9.1930 C.2       1 3D0         0.2021
     24 O           3.9530   33.6050    9.3310 O.2       1 3D0        -0.3945
     25 CA          2.9790   35.7440    8.9740 C.3       1 3D0         0.1308
     26 N           2.0320   36.1530    9.9970 N.am      1 3D0        -0.2659
     27 CAB         2.4130   37.0570   11.0820 C.2       1 3D0         0.1751
     28 OAQ         3.5070   37.5190   11.1050 O.2       1 3D0        -0.3972
     29 CAA         1.3910   37.4230   12.1740 C.3       1 3D0         0.0258
     30 CB          2.4910   36.0290    7.5480 C.3       1 3D0        -0.0122
     31 CG          2.0090   37.4900    7.3210 C.3       1 3D0        -0.0440
     32 CD          1.5800   37.7360    5.8460 C.3       1 3D0        -0.0124
     33 CE          0.7580   39.0430    5.6790 C.3       1 3D0        -0.0354
     34 NZ         -0.0100   39.0500    4.4250 N.4       1 3D0         0.2185
     35 CAH         1.7800   31.7710   10.8110 C.3       1 3D0         0.0783
     36 OAI         1.3430   32.6490   11.8480 O.3       1 3D0        -0.3635
     37 CAJ        -0.0570   32.6240   12.1240 C.3       1 3D0         0.0878
     38 CAK        -0.3990   31.2870   12.8360 C.ar      1 3D0         0.0106
     39 CAL         0.4700   30.7500   13.7980 C.ar      1 3D0        -0.0382
     40 CAM         0.1160   29.5440   14.4030 C.ar      1 3D0        -0.0404
     41 CAN        -1.0810   28.9250   14.0330 C.ar      1 3D0         0.0042
     42 NAO        -1.8860   29.4610   13.1150 N.ar      1 3D0        -0.3043
     43 CAP        -1.5800   30.6100   12.5200 C.ar      1 3D0         0.0147
     44 H1          1.6341   28.6180    2.8513 H         1 3D0         0.0557
     45 H2          3.1074   30.4057    1.9800 H         1 3D0         0.0599
     46 H3          5.5698   30.3090    2.4027 H         1 3D0         0.0559
     47 H4          6.5341   28.3739    3.6637 H         1 3D0         0.0599
     48 H5          5.0344   26.5925    4.5046 H         1 3D0         0.0557
     49 H6          2.5090   25.4034    3.7615 H         1 3D0         0.0474
     50 H7          1.2159   26.6346    3.9586 H         1 3D0         0.0474
     51 H8          3.0932   25.4505    6.0258 H         1 3D0         0.0823
     52 H9         -1.0858   25.3883    6.0159 H         1 3D0         0.1815
     53 H10        -0.2315   26.0871    4.6810 H         1 3D0         0.1815
     54 H11         3.2871   28.0101    5.6359 H         1 3D0         0.1886
     55 H12         2.8233   30.1566    6.7339 H         1 3D0         0.1125
     56 H13         4.9967   29.4902    6.6757 H         1 3D0         0.0674
     57 H14         6.1167   28.0032    8.3265 H         1 3D0         0.0258
     58 H15         4.6163   27.2545    7.6823 H         1 3D0         0.0258
     59 H16         4.6227   27.9845    9.3235 H         1 3D0         0.0258
     60 H17         4.9088   31.2951    8.1057 H         1 3D0         0.2102
     61 H18         3.3315   30.7482    9.2854 H         1 3D0         0.2037
     62 H19         2.0827   29.6836    9.4146 H         1 3D0         0.2037
     63 H20         0.7442   30.8645    7.8754 H         1 3D0         0.0838
     64 H21         2.1316   31.9528    7.5326 H         1 3D0         0.0838
     65 H22         0.1118   32.2140    9.5370 H         1 3D0         0.0632
     66 H23         0.8329   34.2952    9.1236 H         1 3D0         0.1858
     67 H24         3.9740   36.1852    9.1331 H         1 3D0         0.0800
     68 H25         1.0945   35.8072    9.9584 H         1 3D0         0.1882
     69 H26         1.8571   38.1079   12.8976 H         1 3D0         0.0467
     70 H27         1.0646   36.5091   12.6919 H         1 3D0         0.0467
     71 H28         0.5212   37.9135   11.7126 H         1 3D0         0.0467
     72 H29         1.6533   35.3510    7.3277 H         1 3D0         0.0312
     73 H30         3.3191   35.8267    6.8528 H         1 3D0         0.0312
     74 H31         2.8293   38.1784    7.5724 H         1 3D0         0.0269
     75 H32         1.1499   37.6875    7.9790 H         1 3D0         0.0269
     76 H33         0.9661   36.8872    5.5103 H         1 3D0         0.0317
     77 H34         2.4833   37.8046    5.2221 H         1 3D0         0.0317
     78 H35         1.4480   39.8997    5.6784 H         1 3D0         0.0813
     79 H36         0.0600   39.1349    6.5242 H         1 3D0         0.0813
     80 H37        -0.5284   39.9115    4.3533 H         1 3D0         0.1994
     81 H38        -0.6500   38.2713    4.4186 H         1 3D0         0.1994
     82 H39         0.6219   38.9721    3.6435 H         1 3D0         0.1994
     83 H40         2.8791   31.7720   10.7657 H         1 3D0         0.0587
     84 H41         1.4224   30.7512   11.0162 H         1 3D0         0.0587
     85 H42        -0.6215   32.6972   11.1827 H         1 3D0         0.0740
     86 H43        -0.3210   33.4692   12.7766 H         1 3D0         0.0740
     87 H44         1.3902   31.2579   14.0634 H         1 3D0         0.0679
     88 H45         0.7601   29.0934   15.1494 H         1 3D0         0.0693
     89 H46        -1.3611   27.9889   14.5024 H         1 3D0         0.0767
     90 H47        -2.2547   31.0266   11.7809 H         1 3D0         0.0766
@<TRIPOS>BOND
     1    1    2 ar 
     2    1    6 ar 
     3    2    3 ar 
     4    3    4 ar 
     5    4    5 ar 
     6    5    6 ar 
     7    6    7 1  
     8    7    8 1  
     9    8    9 1  
    10    8   12 1  
    11    9   10 2  
    12    9   11 am 
    13   12   13 am 
    14   13   14 2  
    15   13   15 1  
    16   15   16 1  
    17   15   19 1  
    18   16   17 1  
    19   16   18 1  
    20   19   20 1  
    21   20   21 1  
    22   21   22 1  
    23   21   35 1  
    24   22   23 am 
    25   23   24 2  
    26   23   25 1  
    27   25   26 1  
    28   25   30 1  
    29   26   27 am 
    30   27   28 2  
    31   27   29 1  
    32   30   31 1  
    33   31   32 1  
    34   32   33 1  
    35   33   34 1  
    36   35   36 1  
    37   36   37 1  
    38   37   38 1  
    39   38   39 ar 
    40   38   43 ar 
    41   39   40 ar 
    42   40   41 ar 
    43   41   42 ar 
    44   42   43 ar 
    45    1   44 1  
    46    2   45 1  
    47    3   46 1  
    48    4   47 1  
    49    5   48 1  
    50    7   49 1  
    51    7   50 1  
    52    8   51 1  
    53   11   52 1  
    54   11   53 1  
    55   12   54 1  
    56   15   55 1  
    57   16   56 1  
    58   17   57 1  
    59   17   58 1  
    60   17   59 1  
    61   18   60 1  
    62   19   61 1  
    63   19   62 1  
    64   20   63 1  
    65   20   64 1  
    66   21   65 1  
    67   22   66 1  
    68   25   67 1  
    69   26   68 1  
    70   29   69 1  
    71   29   70 1  
    72   29   71 1  
    73   30   72 1  
    74   30   73 1  
    75   31   74 1  
    76   31   75 1  
    77   32   76 1  
    78   32   77 1  
    79   33   78 1  
    80   33   79 1  
    81   34   80 1  
    82   34   81 1  
    83   34   82 1  
    84   35   83 1  
    85   35   84 1  
    86   37   85 1  
    87   37   86 1  
    88   39   87 1  
    89   40   88 1  
    90   41   89 1  
    91   43   90 1  
@<TRIPOS>SUBSTRUCTURE
     1 3D0         1

