### 
### Created by X-TOOL on Mon Sep 10 21:13:24 2018
### 

@<TRIPOS>MOLECULE
4u5u_ligand
   49    50     1     0     0
SMALL
GAST_HUCK


@<TRIPOS>ATOM
      1 C19        -0.9830   29.9830   13.0820 C.ar      1 3D2         0.0108
      2 C14        -0.0290   34.3250   10.6340 C.ar      1 3D2        -0.0592
      3 C15         0.4640   33.7400   11.7940 C.ar      1 3D2        -0.0173
      4 C16         0.0130   32.4740   12.1990 C.ar      1 3D2         0.0079
      5 C17         0.6040   31.8030   13.2640 C.ar      1 3D2        -0.0351
      6 C18         0.1410   30.5520   13.6730 C.ar      1 3D2        -0.0338
      7 C13         0.4100   35.5910   10.2500 C.ar      1 3D2        -0.0667
      8 C12         1.2730   36.3430   11.0480 C.ar      1 3D2        -0.0543
      9 C11         1.7290   35.7960   12.2380 C.ar      1 3D2         0.0027
     10 C22         1.2960   34.5120   12.6030 C.ar      1 3D2        -0.0462
     11 C10         2.6020   36.4320   13.1480 C.3       1 3D2         0.0024
     12 N20        -1.6250   30.6750   12.0520 N.ar      1 3D2        -0.2963
     13 C21        -1.1310   31.9230   11.6230 C.ar      1 3D2         0.0186
     14 N09         3.6420   37.4750   12.8700 N.4       1 3D2         0.2579
     15 C03         3.4100   38.8820   12.3960 C.3       1 3D2         0.0678
     16 C02         2.2540   39.5630   13.1660 C.2       1 3D2         0.2221
     17 O23         1.3830   40.2000   12.5670 O.2       1 3D2        -0.3911
     18 N01         2.3050   39.4490   14.4930 N.am      1 3D2        -0.2963
     19 C04         3.2310   39.2150   10.9010 C.3       1 3D2         0.0081
     20 C05         4.5280   38.8820   10.1600 C.3       1 3D2        -0.0410
     21 C06         4.4100   39.3270    8.7000 C.3       1 3D2        -0.0123
     22 C07         4.1750   40.8490    8.6740 C.3       1 3D2        -0.0354
     23 N08         5.2780   41.5900    9.3130 N.4       1 3D2         0.2185
     24 H1         -1.3538   29.0203   13.4148 H         1 3D2         0.0820
     25 H2         -0.7554   33.7965   10.0273 H         1 3D2         0.0575
     26 H3          1.4380   32.2593   13.7849 H         1 3D2         0.0741
     27 H4          0.6622   30.0178   14.4592 H         1 3D2         0.0709
     28 H5          0.0718   36.0025    9.3059 H         1 3D2         0.0603
     29 H6          1.5813   37.3366   10.7433 H         1 3D2         0.0567
     30 H7          1.6219   34.1039   13.5529 H         1 3D2         0.0570
     31 H8          3.1572   35.6078   13.6196 H         1 3D2         0.0980
     32 H9          1.9362   36.8973   13.8897 H         1 3D2         0.0980
     33 H10        -1.6465   32.4611   10.8358 H         1 3D2         0.0831
     34 H11         4.2432   37.0627   12.1739 H         1 3D2         0.2050
     35 H12         4.1486   37.5733   13.7359 H         1 3D2         0.2050
     36 H13         4.3309   39.4091   12.6861 H         1 3D2         0.1099
     37 H14         1.5918   39.8636   15.0582 H         1 3D2         0.1816
     38 H15         3.0565   38.9489   14.9234 H         1 3D2         0.1816
     39 H16         3.0043   40.2852   10.7857 H         1 3D2         0.0346
     40 H17         2.4052   38.6184   10.4861 H         1 3D2         0.0346
     41 H18         4.7047   37.7970   10.1995 H         1 3D2         0.0270
     42 H19         5.3682   39.4080   10.6369 H         1 3D2         0.0270
     43 H20         3.5637   38.8121    8.2218 H         1 3D2         0.0317
     44 H21         5.3382   39.0851    8.1615 H         1 3D2         0.0317
     45 H22         3.2402   41.0731    9.2087 H         1 3D2         0.0813
     46 H23         4.0865   41.1767    7.6277 H         1 3D2         0.0813
     47 H24         5.0852   42.5786    9.2746 H         1 3D2         0.1994
     48 H25         6.1392   41.3965    8.8262 H         1 3D2         0.1994
     49 H26         5.3637   41.3015   10.2750 H         1 3D2         0.1994
@<TRIPOS>BOND
     1    6    1 ar 
     2    1   12 ar 
     3    3    2 ar 
     4    2    7 ar 
     5    4    3 1  
     6    3   10 ar 
     7    5    4 ar 
     8    4   13 ar 
     9    5    6 ar 
    10    7    8 ar 
    11    8    9 ar 
    12    9   10 ar 
    13    9   11 1  
    14   11   14 1  
    15   12   13 ar 
    16   14   15 1  
    17   15   16 1  
    18   15   19 1  
    19   16   17 2  
    20   16   18 am 
    21   19   20 1  
    22   20   21 1  
    23   21   22 1  
    24   22   23 1  
    25    1   24 1  
    26    2   25 1  
    27    5   26 1  
    28    6   27 1  
    29    7   28 1  
    30    8   29 1  
    31   10   30 1  
    32   11   31 1  
    33   11   32 1  
    34   13   33 1  
    35   14   34 1  
    36   14   35 1  
    37   15   36 1  
    38   18   37 1  
    39   18   38 1  
    40   19   39 1  
    41   19   40 1  
    42   20   41 1  
    43   20   42 1  
    44   21   43 1  
    45   21   44 1  
    46   22   45 1  
    47   22   46 1  
    48   23   47 1  
    49   23   48 1  
    50   23   49 1  
@<TRIPOS>SUBSTRUCTURE
     1 3D2         1

