### 
### Created by X-TOOL on Mon Sep 10 21:13:25 2018
### 

@<TRIPOS>MOLECULE
4u5v_ligand
   46    47     1     0     0
SMALL
GAST_HUCK


@<TRIPOS>ATOM
      1 N01         4.3780   39.0960   11.3880 N.am      1 RH2        -0.2963
      2 C02         4.5850   38.3490   10.2960 C.2       1 RH2         0.2221
      3 C03         3.5180   37.2670    9.9080 C.3       1 RH2         0.0682
      4 C04         3.5490   36.8600    8.3610 C.3       1 RH2         0.0081
      5 C05         2.3540   37.5020    7.6290 C.3       1 RH2        -0.0410
      6 C06         2.3980   37.4620    6.0720 C.3       1 RH2        -0.0123
      7 C07         1.3740   38.5930    5.7250 C.3       1 RH2        -0.0354
      8 N08         0.8560   38.6320    4.3160 N.4       1 RH2         0.2185
      9 N09         2.1920   37.7220   10.4450 N.4       1 RH2         0.2613
     10 C10         1.8560   37.0710   11.7170 C.3       1 RH2         0.0180
     11 C11         1.2230   35.7480   11.3450 C.2       1 RH2         0.0650
     12 C12         0.5270   35.3980   10.0810 C.2       1 RH2        -0.0651
     13 C13        -0.3240   34.1850   10.3120 C.2       1 RH2        -0.0756
     14 C14         0.1760   33.4940   11.5360 C.2       1 RH2         0.0333
     15 C15        -0.3150   32.2950   12.0090 C.ar      1 RH2         0.0060
     16 C16         0.4420   31.6070   12.9570 C.ar      1 RH2        -0.0418
     17 C17        -0.0120   30.4050   13.4780 C.ar      1 RH2        -0.0399
     18 C18        -1.2470   29.9060   13.0600 C.ar      1 RH2         0.0052
     19 N19        -2.0300   30.6130   12.1090 N.ar      1 RH2        -0.3028
     20 C20        -1.5560   31.8250   11.5630 C.ar      1 RH2         0.0121
     21 S21         1.2970   34.4250   12.2890 S.3       1 RH2        -0.0255
     22 O22         5.6050   38.4730    9.6360 O.2       1 RH2        -0.3911
     23 H1          5.0464   39.7912   11.6523 H         1 RH2         0.1816
     24 H2          3.5550   38.9586   11.9392 H         1 RH2         0.1816
     25 H3          3.7779   36.3490   10.4555 H         1 RH2         0.1099
     26 H4          3.4880   35.7655    8.2699 H         1 RH2         0.0346
     27 H5          4.4872   37.2139    7.9088 H         1 RH2         0.0346
     28 H6          2.2999   38.5569    7.9360 H         1 RH2         0.0270
     29 H7          1.4421   36.9787    7.9523 H         1 RH2         0.0270
     30 H8          2.0722   36.4864    5.6820 H         1 RH2         0.0317
     31 H9          3.4028   37.6932    5.6886 H         1 RH2         0.0317
     32 H10         1.8634   39.5574    5.9258 H         1 RH2         0.0813
     33 H11         0.5088   38.4745    6.3939 H         1 RH2         0.0813
     34 H12         0.2090   39.3986    4.2170 H         1 RH2         0.1994
     35 H13         0.3850   37.7657    4.1071 H         1 RH2         0.1994
     36 H14         1.6263   38.7580    3.6782 H         1 RH2         0.1994
     37 H15         1.4761   37.5039    9.7697 H         1 RH2         0.2054
     38 H16         2.2251   38.7190   10.5895 H         1 RH2         0.2054
     39 H17         1.1470   37.6882   12.2882 H         1 RH2         0.1029
     40 H18         2.7642   36.9068   12.3155 H         1 RH2         0.1029
     41 H19         0.6196   35.9354    9.1384 H         1 RH2         0.0323
     42 H20        -1.1613   33.8644    9.6938 H         1 RH2         0.0449
     43 H21         1.3904   32.0142   13.2883 H         1 RH2         0.0694
     44 H22         0.5843   29.8597   14.2006 H         1 RH2         0.0691
     45 H23        -1.6121   28.9693   13.4654 H         1 RH2         0.0773
     46 H24        -2.1318   32.3720   10.8252 H         1 RH2         0.0787
@<TRIPOS>BOND
     1    1    2 am 
     2    2    3 1  
     3    2   22 2  
     4    3    4 1  
     5    3    9 1  
     6    4    5 1  
     7    5    6 1  
     8    6    7 1  
     9    7    8 1  
    10    9   10 1  
    11   10   11 1  
    12   11   12 2  
    13   11   21 1  
    14   12   13 1  
    15   13   14 2  
    16   14   15 1  
    17   14   21 1  
    18   15   16 ar 
    19   15   20 ar 
    20   16   17 ar 
    21   17   18 ar 
    22   18   19 ar 
    23   19   20 ar 
    24    1   23 1  
    25    1   24 1  
    26    3   25 1  
    27    4   26 1  
    28    4   27 1  
    29    5   28 1  
    30    5   29 1  
    31    6   30 1  
    32    6   31 1  
    33    7   32 1  
    34    7   33 1  
    35    8   34 1  
    36    8   35 1  
    37    8   36 1  
    38    9   37 1  
    39    9   38 1  
    40   10   39 1  
    41   10   40 1  
    42   12   41 1  
    43   13   42 1  
    44   16   43 1  
    45   17   44 1  
    46   18   45 1  
    47   20   46 1  
@<TRIPOS>SUBSTRUCTURE
     1 RH2         1

