### 
### Created by X-TOOL on Mon Sep 10 21:13:19 2018
### 

@<TRIPOS>MOLECULE
4u6r_ligand
   75    80     1     0     0
SMALL
GAST_HUCK


@<TRIPOS>ATOM
      1 C21        -5.8090  -25.0130   -1.3470 C.3       1 3E4        -0.0245
      2 C22        -6.0270  -26.3520   -1.9840 C.3       1 3E4        -0.0077
      3 C23        -5.8250  -26.2620   -3.4490 C.3       1 3E4        -0.0242
      4 N6         -5.8460  -27.5850   -3.9960 N.4       1 3E4         0.2207
      5 C24        -4.4990  -25.6340   -3.7900 C.3       1 3E4        -0.0077
      6 C25        -4.2310  -24.3560   -3.0500 C.3       1 3E4        -0.0245
      7 C20        -4.4170  -24.5260   -1.5680 C.3       1 3E4         0.0422
      8 N4         -4.2350  -23.2890   -0.8490 N.pl3     1 3E4        -0.2866
      9 C12        -3.0750  -22.7990   -0.5950 C.ar      1 3E4         0.1874
     10 N2         -2.0490  -23.5780   -0.5640 N.ar      1 3E4        -0.2534
     11 N3         -2.9510  -21.5190   -0.3670 N.ar      1 3E4        -0.2579
     12 C15        -1.8020  -20.9870   -0.1180 C.ar      1 3E4         0.0111
     13 C13        -0.7070  -21.7950   -0.0750 C.ar      1 3E4        -0.0193
     14 C11        -0.8610  -23.1290   -0.3210 C.ar      1 3E4         0.0568
     15 C14         0.1590  -24.0500   -0.2680 C.ar      1 3E4         0.0648
     16 C16        -0.2250  -25.3510   -0.1510 C.ar      1 3E4        -0.0369
     17 C17         0.7090  -26.3290   -0.0710 C.ar      1 3E4        -0.0416
     18 C18         2.0040  -25.9490   -0.0900 C.ar      1 3E4         0.0030
     19 N5          2.3530  -24.7040   -0.1800 N.ar      1 3E4        -0.2660
     20 C19         1.4900  -23.7330   -0.2620 C.ar      1 3E4         0.1993
     21 O1          1.8780  -22.4560   -0.3680 O.3       1 3E4        -0.2497
     22 C4          3.0820  -22.0140   -0.0530 C.ar      1 3E4         0.1121
     23 C5          4.0670  -21.8960   -0.9860 C.ar      1 3E4        -0.0321
     24 C26         3.8770  -22.3310   -2.4000 C.3       1 3E4        -0.0383
     25 C6          5.2910  -21.4320   -0.6350 C.ar      1 3E4        -0.0528
     26 C3          3.3200  -21.5910    1.2020 C.ar      1 3E4         0.0016
     27 C10         2.3310  -21.6780    2.1300 C.ar      1 3E4        -0.0629
     28 C9          2.5390  -21.2870    3.4220 C.ar      1 3E4        -0.0698
     29 C8          3.7520  -20.7830    3.7820 C.ar      1 3E4        -0.0693
     30 C7          4.7520  -20.6930    2.8490 C.ar      1 3E4        -0.0618
     31 C2          4.5380  -21.1020    1.5620 C.ar      1 3E4        -0.0009
     32 C1          5.5370  -21.0210    0.6330 C.ar      1 3E4         0.0635
     33 N1          6.7070  -20.5460    0.9210 N.am      1 3E4        -0.1884
     34 S1          7.1740  -19.1170    0.3540 S.o2      1 3E4         0.0903
     35 O2          6.3990  -18.6530   -0.7860 O.2       1 3E4        -0.1443
     36 O3          8.5580  -19.2170    0.0800 O.2       1 3E4        -0.1443
     37 C27         6.9240  -17.8440    1.3730 C.ar      1 3E4         0.1283
     38 C32         5.9650  -16.9700    0.9380 C.ar      1 3E4        -0.0340
     39 C31         5.6800  -15.8730    1.7120 C.ar      1 3E4        -0.0598
     40 C30         6.3310  -15.6600    2.9020 C.ar      1 3E4        -0.0612
     41 C29         7.2830  -16.5280    3.3320 C.ar      1 3E4        -0.0459
     42 C28         7.5720  -17.6060    2.5660 C.ar      1 3E4         0.0675
     43 CL1         8.7560  -18.6210    3.1830 Cl        1 3E4        -0.0686
     44 H          -5.9913  -25.0971   -0.2655 H         1 3E4         0.0290
     45 H          -6.5145  -24.2902   -1.7827 H         1 3E4         0.0290
     46 H          -7.0539  -26.6887   -1.7791 H         1 3E4         0.0320
     47 H          -5.3131  -27.0751   -1.5628 H         1 3E4         0.0320
     48 H          -6.6349  -25.6620   -3.8894 H         1 3E4         0.0850
     49 H          -5.7095  -27.5383   -4.9936 H         1 3E4         0.1997
     50 H          -6.7354  -28.0162   -3.7984 H         1 3E4         0.1997
     51 H          -5.1079  -28.1319   -3.5811 H         1 3E4         0.1997
     52 H          -4.4824  -25.4210   -4.8690 H         1 3E4         0.0320
     53 H          -3.7015  -26.3511   -3.5455 H         1 3E4         0.0320
     54 H          -4.9249  -23.5823   -3.4105 H         1 3E4         0.0290
     55 H          -3.1957  -24.0402   -3.2460 H         1 3E4         0.0290
     56 H          -3.6955  -25.2672   -1.1937 H         1 3E4         0.0560
     57 H          -5.0689  -22.7778   -0.5261 H         1 3E4         0.1864
     58 H          -1.7106  -19.9205    0.0531 H         1 3E4         0.0884
     59 H           0.2711  -21.3858    0.1509 H         1 3E4         0.0655
     60 H          -1.2786  -25.6044   -0.1218 H         1 3E4         0.0741
     61 H           0.4280  -27.3732    0.0051 H         1 3E4         0.0624
     62 H           2.7755  -26.7080   -0.0281 H         1 3E4         0.0814
     63 H           4.7992  -22.1417   -2.9689 H         1 3E4         0.0362
     64 H           3.0468  -21.7661   -2.8490 H         1 3E4         0.0362
     65 H           3.6449  -23.4059   -2.4249 H         1 3E4         0.0362
     66 H           6.0812  -21.3891   -1.3758 H         1 3E4         0.0353
     67 H           1.3606  -22.0643    1.8399 H         1 3E4         0.0574
     68 H           1.7453  -21.3771    4.1548 H         1 3E4         0.0583
     69 H           3.9255  -20.4550    4.8005 H         1 3E4         0.0554
     70 H           5.7193  -20.2948    3.1334 H         1 3E4         0.0608
     71 H           7.3261  -21.0741    1.5023 H         1 3E4         0.2179
     72 H           5.4425  -17.1402    0.0036 H         1 3E4         0.0637
     73 H           4.9302  -15.1645    1.3790 H         1 3E4         0.0620
     74 H           6.0832  -14.7925    3.5029 H         1 3E4         0.0618
     75 H           7.8009  -16.3609    4.2695 H         1 3E4         0.0624
@<TRIPOS>BOND
     1    1    2 1  
     2    1    7 1  
     3    2    3 1  
     4    3    4 1  
     5    3    5 1  
     6    5    6 1  
     7    6    7 1  
     8    7    8 1  
     9    8    9 1  
    10    9   10 ar 
    11    9   11 ar 
    12   10   14 ar 
    13   11   12 ar 
    14   12   13 ar 
    15   13   14 ar 
    16   14   15 1  
    17   15   16 ar 
    18   15   20 ar 
    19   16   17 ar 
    20   17   18 ar 
    21   18   19 ar 
    22   19   20 ar 
    23   20   21 1  
    24   21   22 1  
    25   22   23 ar 
    26   22   26 ar 
    27   23   24 1  
    28   23   25 ar 
    29   25   32 ar 
    30   26   27 ar 
    31   26   31 ar 
    32   27   28 ar 
    33   28   29 ar 
    34   29   30 ar 
    35   30   31 ar 
    36   31   32 ar 
    37   32   33 1  
    38   33   34 am 
    39   34   35 2  
    40   34   36 2  
    41   34   37 1  
    42   37   38 ar 
    43   37   42 ar 
    44   38   39 ar 
    45   39   40 ar 
    46   40   41 ar 
    47   41   42 ar 
    48   42   43 1  
    49    1   44 1  
    50    1   45 1  
    51    2   46 1  
    52    2   47 1  
    53    3   48 1  
    54    4   49 1  
    55    4   50 1  
    56    4   51 1  
    57    5   52 1  
    58    5   53 1  
    59    6   54 1  
    60    6   55 1  
    61    7   56 1  
    62    8   57 1  
    63   12   58 1  
    64   13   59 1  
    65   16   60 1  
    66   17   61 1  
    67   18   62 1  
    68   24   63 1  
    69   24   64 1  
    70   24   65 1  
    71   25   66 1  
    72   27   67 1  
    73   28   68 1  
    74   29   69 1  
    75   30   70 1  
    76   33   71 1  
    77   38   72 1  
    78   39   73 1  
    79   40   74 1  
    80   41   75 1  
@<TRIPOS>SUBSTRUCTURE
     1 3E4         1

