### 
### Created by X-TOOL on Mon Sep 10 21:13:19 2018
### 

@<TRIPOS>MOLECULE
4u79_ligand
   72    77     1     0     0
SMALL
GAST_HUCK


@<TRIPOS>ATOM
      1 C21        -2.8540   29.8120  -29.7880 C.3       1 3EL        -0.0245
      2 C22        -1.4930   29.7150  -29.1250 C.3       1 3EL        -0.0077
      3 C23        -0.6420   30.9310  -29.4560 C.3       1 3EL        -0.0242
      4 N6          0.6990   30.7270  -28.9160 N.4       1 3EL         0.2207
      5 C24        -0.5500   31.1220  -30.9690 C.3       1 3EL        -0.0077
      6 C25        -1.9250   31.1970  -31.6080 C.3       1 3EL        -0.0245
      7 C20        -2.7090   29.9420  -31.2980 C.3       1 3EL         0.0422
      8 N5         -4.0280   30.0270  -31.9140 N.pl3     1 3EL        -0.2866
      9 C15        -4.7360   28.9380  -32.1260 C.ar      1 3EL         0.1875
     10 N3         -4.1730   27.7390  -31.9650 N.ar      1 3EL        -0.2533
     11 N4         -6.0000   29.0520  -32.5000 N.ar      1 3EL        -0.2578
     12 C14        -6.7170   27.9830  -32.7120 C.ar      1 3EL         0.0112
     13 C13        -6.1580   26.7320  -32.5580 C.ar      1 3EL        -0.0192
     14 C12        -4.8420   26.6140  -32.1680 C.ar      1 3EL         0.0570
     15 C7         -4.1700   25.4020  -31.9920 C.ar      1 3EL         0.0655
     16 C8         -2.8890   25.4610  -31.4990 C.ar      1 3EL        -0.0367
     17 C9         -2.1810   24.2890  -31.3260 C.ar      1 3EL        -0.0413
     18 C10        -2.7560   23.0780  -31.6560 C.ar      1 3EL         0.0033
     19 N2         -3.9750   23.0400  -32.1320 N.ar      1 3EL        -0.2654
     20 C11        -4.6800   24.1480  -32.3130 C.ar      1 3EL         0.2020
     21 O1         -5.9060   24.0560  -32.8160 O.3       1 3EL        -0.2442
     22 C3         -6.6070   22.9270  -33.0220 C.ar      1 3EL         0.1125
     23 C4         -6.7260   21.9520  -32.0550 C.ar      1 3EL        -0.0493
     24 C5         -7.4990   20.8340  -32.2970 C.ar      1 3EL        -0.0571
     25 C1         -7.2840   22.7970  -34.2250 C.ar      1 3EL         0.0086
     26 C19        -7.1710   23.7890  -35.1880 C.ar      1 3EL        -0.0594
     27 C18        -7.8180   23.6810  -36.3960 C.ar      1 3EL        -0.0674
     28 C17        -8.5890   22.5670  -36.6370 C.ar      1 3EL        -0.0671
     29 C16        -8.7140   21.5690  -35.6770 C.ar      1 3EL        -0.0592
     30 C2         -8.0610   21.6770  -34.4620 C.ar      1 3EL         0.0032
     31 C6         -8.1650   20.6850  -33.4950 C.ar      1 3EL         0.0661
     32 N1         -8.9030   19.6010  -33.6830 N.am      1 3EL        -0.1880
     33 S1         -8.2830   18.2240  -34.2520 S.o2      1 3EL         0.0898
     34 O2         -9.3360   17.5230  -35.0120 O.2       1 3EL        -0.1444
     35 O3         -7.1390   18.5490  -35.1170 O.2       1 3EL        -0.1444
     36 C26        -7.6740   17.2040  -33.0520 C.ar      1 3EL         0.1143
     37 C27        -8.1550   17.2730  -31.7540 C.ar      1 3EL        -0.0345
     38 C28        -7.6330   16.4250  -30.7980 C.ar      1 3EL        -0.0599
     39 C29        -6.6390   15.5230  -31.1430 C.ar      1 3EL        -0.0616
     40 C30        -6.1660   15.4550  -32.4470 C.ar      1 3EL        -0.0599
     41 C31        -6.6860   16.3010  -33.4100 C.ar      1 3EL        -0.0345
     42 H          -3.3832   30.6943  -29.3988 H         1 3EL         0.0290
     43 H          -3.4333   28.9057  -29.5576 H         1 3EL         0.0290
     44 H          -0.9816   28.8091  -29.4825 H         1 3EL         0.0320
     45 H          -1.6266   29.6546  -28.0348 H         1 3EL         0.0320
     46 H          -1.0916   31.8266  -29.0025 H         1 3EL         0.0850
     47 H           1.2726   31.5278  -29.1297 H         1 3EL         0.1997
     48 H           1.1058   29.9025  -29.3292 H         1 3EL         0.1997
     49 H           0.6445   30.6099  -27.9163 H         1 3EL         0.1997
     50 H          -0.0006   30.2736  -31.4031 H         1 3EL         0.0320
     51 H          -0.0077   32.0558  -31.1785 H         1 3EL         0.0320
     52 H          -1.8151   31.2978  -32.6978 H         1 3EL         0.0290
     53 H          -2.4638   32.0702  -31.2114 H         1 3EL         0.0290
     54 H          -2.1753   29.0655  -31.6941 H         1 3EL         0.0560
     55 H          -4.4080   30.9452  -32.1849 H         1 3EL         0.1864
     56 H          -7.7549   28.0784  -33.0100 H         1 3EL         0.0884
     57 H          -6.7520   25.8444  -32.7432 H         1 3EL         0.0655
     58 H          -2.4402   26.4156  -31.2492 H         1 3EL         0.0741
     59 H          -1.1722   24.3194  -30.9305 H         1 3EL         0.0625
     60 H          -2.1981   22.1585  -31.5210 H         1 3EL         0.0815
     61 H          -6.2136   22.0628  -31.1062 H         1 3EL         0.0469
     62 H          -7.5832   20.0654  -31.5373 H         1 3EL         0.0390
     63 H          -6.5629   24.6631  -34.9847 H         1 3EL         0.0593
     64 H          -7.7226   24.4589  -37.1449 H         1 3EL         0.0589
     65 H          -9.1044   22.4664  -37.5853 H         1 3EL         0.0573
     66 H          -9.3279   20.6995  -35.8821 H         1 3EL         0.0612
     67 H          -9.8782   19.6373  -33.4647 H         1 3EL         0.2176
     68 H          -8.9309   17.9835  -31.4930 H         1 3EL         0.0637
     69 H          -8.0001   16.4646  -29.7788 H         1 3EL         0.0618
     70 H          -6.2266   14.8640  -30.3875 H         1 3EL         0.0618
     71 H          -5.3926   14.7420  -32.7090 H         1 3EL         0.0618
     72 H          -6.3253   16.2580  -34.4313 H         1 3EL         0.0637
@<TRIPOS>BOND
     1    1    2 1  
     2    1    7 1  
     3    2    3 1  
     4    3    4 1  
     5    3    5 1  
     6    5    6 1  
     7    6    7 1  
     8    7    8 1  
     9    8    9 1  
    10    9   10 ar 
    11    9   11 ar 
    12   10   14 ar 
    13   11   12 ar 
    14   12   13 ar 
    15   13   14 ar 
    16   14   15 1  
    17   15   16 ar 
    18   15   20 ar 
    19   16   17 ar 
    20   17   18 ar 
    21   18   19 ar 
    22   19   20 ar 
    23   20   21 1  
    24   21   22 1  
    25   22   23 ar 
    26   22   25 ar 
    27   23   24 ar 
    28   24   31 ar 
    29   25   26 ar 
    30   25   30 ar 
    31   26   27 ar 
    32   27   28 ar 
    33   28   29 ar 
    34   29   30 ar 
    35   30   31 ar 
    36   31   32 1  
    37   32   33 am 
    38   33   34 2  
    39   33   35 2  
    40   33   36 1  
    41   36   37 ar 
    42   36   41 ar 
    43   37   38 ar 
    44   38   39 ar 
    45   39   40 ar 
    46   40   41 ar 
    47    1   42 1  
    48    1   43 1  
    49    2   44 1  
    50    2   45 1  
    51    3   46 1  
    52    4   47 1  
    53    4   48 1  
    54    4   49 1  
    55    5   50 1  
    56    5   51 1  
    57    6   52 1  
    58    6   53 1  
    59    7   54 1  
    60    8   55 1  
    61   12   56 1  
    62   13   57 1  
    63   16   58 1  
    64   17   59 1  
    65   18   60 1  
    66   23   61 1  
    67   24   62 1  
    68   26   63 1  
    69   27   64 1  
    70   28   65 1  
    71   29   66 1  
    72   32   67 1  
    73   37   68 1  
    74   38   69 1  
    75   39   70 1  
    76   40   71 1  
    77   41   72 1  
@<TRIPOS>SUBSTRUCTURE
     1 3EL         1

