### 
### Created by X-TOOL on Mon Sep 10 21:13:25 2018
### 

@<TRIPOS>MOLECULE
4u7q_ligand
  108   112     1     0     0
SMALL
GAST_HUCK


@<TRIPOS>ATOM
      1 C4        -17.3330   -1.5070   -2.7790 C.2       1 3EM         0.0672
      2 C6        -16.8480   -0.1230   -6.4440 C.3       1 3EM         0.1243
      3 C15       -18.4700    2.1320  -11.9570 C.3       1 3EM         0.0540
      4 C21       -17.8570    3.2190  -16.9150 C.2       1 3EM         0.3244
      5 C1        -18.2340   -0.0640   -4.3000 C.2       1 3EM        -0.0174
      6 C2        -17.2150   -0.5340   -5.0150 C.2       1 3EM         0.0612
      7 N11       -18.6360   -0.8290   -9.3780 N.am      1 3EM        -0.2549
      8 C12       -18.5980   -0.6420  -10.8350 C.3       1 3EM         0.0793
      9 C14       -19.5740    1.6390  -11.0340 C.3       1 3EM         0.0004
     10 C18       -17.6850    1.1670  -14.1040 C.2       1 3EM         0.2022
     11 C19       -18.0170    1.0190  -15.6200 C.3       1 3EM         0.1350
     12 CF5       -15.6840   12.3560  -18.4320 C.3       1 3EM        -0.0451
     13 CF4       -16.2170   12.2030  -19.8450 C.3       1 3EM         0.0253
     14 NF1       -17.4550   11.3840  -19.8640 N.pl3     1 3EM        -0.3074
     15 CF2       -18.4630   11.8880  -18.9150 C.3       1 3EM         0.0253
     16 CF3       -19.6360   12.2820  -19.7860 C.3       1 3EM        -0.0451
     17 CE2       -17.2050   10.1020  -19.5430 C.ar      1 3EM         0.0401
     18 CE1       -15.9180    9.6300  -19.3170 C.ar      1 3EM        -0.0027
     19 CE3       -18.2540    9.2090  -19.4360 C.ar      1 3EM        -0.0455
     20 CE4       -18.0050    7.8860  -19.0490 C.ar      1 3EM        -0.0615
     21 CD7       -16.7150    7.4110  -18.8260 C.ar      1 3EM         0.0238
     22 CD6       -15.6720    8.3130  -18.9740 C.ar      1 3EM         0.1321
     23 OD5       -14.3930    7.9190  -18.8040 O.3       1 3EM        -0.2175
     24 CD4       -14.1170    6.6320  -18.4800 C.2       1 3EM         0.2438
     25 OD4       -12.9460    6.2900  -18.3010 O.2       1 3EM        -0.3885
     26 CD3       -15.1550    5.7040  -18.2950 C.2       1 3EM         0.0082
     27 CD2       -16.4830    6.0860  -18.4470 C.2       1 3EM         0.0002
     28 CD1       -17.5460    5.1900  -18.2720 C.3       1 3EM         0.1166
     29 OD1       -16.9960    4.1330  -17.4580 O.3       1 3EM        -0.2471
     30 O76       -19.0590    3.4520  -16.9010 O.2       1 3EM        -0.3773
     31 N20       -17.3160    2.1090  -16.3380 N.am      1 3EM        -0.2408
     32 C62       -17.4950   -0.3360  -16.1320 C.3       1 3EM        -0.0063
     33 C68       -17.9590   -0.5920  -17.5860 C.3       1 3EM        -0.0584
     34 C64       -17.9210   -1.4840  -15.2120 C.3       1 3EM        -0.0584
     35 O61       -16.6160    0.7300  -13.6190 O.2       1 3EM        -0.3945
     36 N58       -18.6240    1.8150  -13.3850 N.am      1 3EM        -0.2800
     37 C44       -18.5650    3.6410  -11.8770 C.3       1 3EM         0.0040
     38 C45       -17.3750    3.9300  -11.2860 C.ar      1 3EM        -0.0408
     39 C48       -16.4400    4.6820  -11.9790 C.ar      1 3EM        -0.0603
     40 C49       -15.2340    4.9770  -11.3920 C.ar      1 3EM        -0.0686
     41 C50       -14.9810    4.5460  -10.0960 C.ar      1 3EM        -0.0687
     42 C51       -15.9280    3.7980   -9.3990 C.ar      1 3EM        -0.0686
     43 C52       -17.1380    3.4860   -9.9900 C.ar      1 3EM        -0.0603
     44 C13       -19.8320    0.1650  -11.3020 C.3       1 3EM         0.0821
     45 O41       -21.0320   -0.1660  -10.5950 O.3       1 3EM        -0.3893
     46 C26       -18.6550   -2.0050  -11.4550 C.3       1 3EM         0.0064
     47 C28       -17.9040   -2.9200  -10.7000 C.ar      1 3EM        -0.0408
     48 C31       -18.4480   -3.4710   -9.5320 C.ar      1 3EM        -0.0603
     49 C32       -17.7470   -4.4080   -8.7680 C.ar      1 3EM        -0.0686
     50 C33       -16.4830   -4.8470   -9.1630 C.ar      1 3EM        -0.0687
     51 C34       -15.9330   -4.3150  -10.3290 C.ar      1 3EM        -0.0686
     52 C35       -16.6420   -3.3630  -11.1040 C.ar      1 3EM        -0.0603
     53 C10       -17.6000   -0.5720   -8.5640 C.2       1 3EM         0.3223
     54 O24       -16.5260   -0.1420   -9.0040 O.2       1 3EM        -0.3774
     55 O7        -17.7890   -0.8030   -7.2500 O.3       1 3EM        -0.2484
     56 S3        -16.3740   -1.6010   -4.1370 S.3       1 3EM        -0.0006
     57 N5        -18.3000   -0.6110   -3.0540 N.2       1 3EM        -0.3288
     58 H1        -17.2036   -2.0613   -1.8506 H         1 3EM         0.1080
     59 H2        -15.8232   -0.4379   -6.6900 H         1 3EM         0.0803
     60 H3        -16.9380    0.9657   -6.5726 H         1 3EM         0.0803
     61 H4        -17.4974    1.7610  -11.6015 H         1 3EM         0.0579
     62 H5        -18.9394    0.6781   -4.6709 H         1 3EM         0.0425
     63 H6        -19.4833   -1.1676   -8.9689 H         1 3EM         0.1873
     64 H7        -17.6748   -0.1211  -11.1289 H         1 3EM         0.0604
     65 H8        -20.4934    2.2130  -11.2216 H         1 3EM         0.0315
     66 H9        -19.2649    1.7735   -9.9869 H         1 3EM         0.0315
     67 H10       -19.1028    1.0893  -15.7817 H         1 3EM         0.0802
     68 H11       -14.7688   12.9659  -18.4494 H         1 3EM         0.0249
     69 H12       -15.4552   11.3634  -18.0169 H         1 3EM         0.0249
     70 H13       -16.4417   12.8496  -17.8057 H         1 3EM         0.0249
     71 H14       -15.4527   11.7130  -20.4661 H         1 3EM         0.0515
     72 H15       -16.4392   13.1993  -20.2549 H         1 3EM         0.0515
     73 H16       -18.0778   12.7585  -18.3638 H         1 3EM         0.0515
     74 H17       -18.7540   11.1022  -18.2024 H         1 3EM         0.0515
     75 H18       -20.4464   12.6744  -19.1541 H         1 3EM         0.0249
     76 H19       -19.9953   11.4009  -20.3378 H         1 3EM         0.0249
     77 H20       -19.3191   13.0572  -20.4992 H         1 3EM         0.0249
     78 H21       -15.0824   10.3139  -19.4123 H         1 3EM         0.0460
     79 H22       -19.2664    9.5313  -19.6509 H         1 3EM         0.0471
     80 H23       -18.8428    7.2106  -18.9190 H         1 3EM         0.0613
     81 H24       -14.9171    4.6749  -18.0298 H         1 3EM         0.0400
     82 H25       -17.8872    4.7971  -19.2411 H         1 3EM         0.0818
     83 H26       -18.3866    5.6793  -17.7582 H         1 3EM         0.0818
     84 H27       -16.3225    2.0192  -16.4080 H         1 3EM         0.1899
     85 H28       -16.3958   -0.2948  -16.1305 H         1 3EM         0.0342
     86 H29       -17.5740   -1.5640  -17.9279 H         1 3EM         0.0234
     87 H30       -17.5744    0.2050  -18.2393 H         1 3EM         0.0234
     88 H31       -19.0583   -0.5990  -17.6242 H         1 3EM         0.0234
     89 H32       -17.5799   -1.2781  -14.1867 H         1 3EM         0.0234
     90 H33       -17.4719   -2.4236  -15.5661 H         1 3EM         0.0234
     91 H34       -19.0172   -1.5748  -15.2224 H         1 3EM         0.0234
     92 H35       -19.4667    2.0938  -13.8455 H         1 3EM         0.1856
     93 H36       -19.4153    3.9627  -11.2578 H         1 3EM         0.0448
     94 H37       -18.6448    4.0970  -12.8749 H         1 3EM         0.0448
     95 H38       -16.6594    5.0358  -12.9799 H         1 3EM         0.0557
     96 H39       -14.4854    5.5418  -11.9358 H         1 3EM         0.0599
     97 H40       -14.0380    4.7938   -9.6223 H         1 3EM         0.0559
     98 H41       -15.7153    3.4601   -8.3912 H         1 3EM         0.0599
     99 H42       -17.8842    2.9090   -9.4558 H         1 3EM         0.0557
    100 H43       -19.9840   -0.0074  -12.3777 H         1 3EM         0.0619
    101 H44       -21.2363   -1.0835  -10.7324 H         1 3EM         0.2099
    102 H45       -18.2466   -1.9561  -12.4752 H         1 3EM         0.0449
    103 H46       -19.7016   -2.3413  -11.4947 H         1 3EM         0.0449
    104 H47       -19.4371   -3.1628   -9.2132 H         1 3EM         0.0557
    105 H48       -18.1901   -4.7979   -7.8588 H         1 3EM         0.0599
    106 H49       -15.9423   -5.5827   -8.5787 H         1 3EM         0.0559
    107 H50       -14.9475   -4.6346  -10.6478 H         1 3EM         0.0599
    108 H51       -16.2021   -2.9762  -12.0161 H         1 3EM         0.0557
@<TRIPOS>BOND
     1   56    1 1  
     2    1   57 2  
     3    2    6 1  
     4   55    2 1  
     5    9    3 1  
     6    3   36 1  
     7    3   37 1  
     8    4   29 1  
     9    4   30 2  
    10   31    4 am 
    11    6    5 2  
    12    5   57 1  
    13    6   56 1  
    14    7    8 1  
    15   53    7 am 
    16    8   44 1  
    17    8   46 1  
    18   44    9 1  
    19   10   11 1  
    20   10   35 2  
    21   36   10 am 
    22   11   31 1  
    23   11   32 1  
    24   13   12 1  
    25   14   13 1  
    26   14   15 1  
    27   17   14 1  
    28   15   16 1  
    29   18   17 ar 
    30   19   17 ar 
    31   22   18 ar 
    32   20   19 ar 
    33   21   20 ar 
    34   21   22 ar 
    35   27   21 1  
    36   22   23 1  
    37   24   23 1  
    38   24   25 2  
    39   26   24 1  
    40   27   26 2  
    41   28   27 1  
    42   29   28 1  
    43   32   33 1  
    44   32   34 1  
    45   37   38 1  
    46   38   39 ar 
    47   38   43 ar 
    48   39   40 ar 
    49   40   41 ar 
    50   42   41 ar 
    51   43   42 ar 
    52   44   45 1  
    53   46   47 1  
    54   47   48 ar 
    55   47   52 ar 
    56   48   49 ar 
    57   49   50 ar 
    58   51   50 ar 
    59   52   51 ar 
    60   53   54 2  
    61   53   55 1  
    62    1   58 1  
    63    2   59 1  
    64    2   60 1  
    65    3   61 1  
    66    5   62 1  
    67    7   63 1  
    68    8   64 1  
    69    9   65 1  
    70    9   66 1  
    71   11   67 1  
    72   12   68 1  
    73   12   69 1  
    74   12   70 1  
    75   13   71 1  
    76   13   72 1  
    77   15   73 1  
    78   15   74 1  
    79   16   75 1  
    80   16   76 1  
    81   16   77 1  
    82   18   78 1  
    83   19   79 1  
    84   20   80 1  
    85   26   81 1  
    86   28   82 1  
    87   28   83 1  
    88   31   84 1  
    89   32   85 1  
    90   33   86 1  
    91   33   87 1  
    92   33   88 1  
    93   34   89 1  
    94   34   90 1  
    95   34   91 1  
    96   36   92 1  
    97   37   93 1  
    98   37   94 1  
    99   39   95 1  
   100   40   96 1  
   101   41   97 1  
   102   42   98 1  
   103   43   99 1  
   104   44  100 1  
   105   45  101 1  
   106   46  102 1  
   107   46  103 1  
   108   48  104 1  
   109   49  105 1  
   110   50  106 1  
   111   51  107 1  
   112   52  108 1  
@<TRIPOS>SUBSTRUCTURE
     1 3EM         1

