### 
### Created by X-TOOL on Mon Sep 10 21:13:24 2018
### 

@<TRIPOS>MOLECULE
4u7v_ligand
   74    76     1     0     0
SMALL
GAST_HUCK


@<TRIPOS>ATOM
      1 C1          9.4130   15.9410    4.3890 C.2       1 3EN        -0.0174
      2 C2          8.8940   15.6080    5.5640 C.2       1 3EN         0.0612
      3 C4         10.1710   13.8340    4.5600 C.2       1 3EN         0.0672
      4 C6          8.0100   16.5270    6.4510 C.3       1 3EN         0.1243
      5 C10         8.8220   16.6610    8.5070 C.2       1 3EN         0.3223
      6 C12         9.7330   16.7940   10.8790 C.3       1 3EN         0.0793
      7 C13         9.3430   17.9940   11.7980 C.3       1 3EN         0.0821
      8 C14         7.9640   18.5020   11.4980 C.3       1 3EN         0.0004
      9 C15         6.8790   17.5940   11.9990 C.3       1 3EN         0.0541
     10 N5         10.1090   14.9420    3.8330 N.2       1 3EN        -0.3288
     11 C18         7.3320   16.0990   13.8890 C.2       1 3EN         0.2251
     12 C19         7.4770   16.0240   15.4520 C.3       1 3EN         0.0672
     13 C52         4.1610   16.5720   11.1820 C.ar      1 3EN        -0.0603
     14 C51         3.1330   15.7170   11.5240 C.ar      1 3EN        -0.0686
     15 C50         2.4890   15.8370   12.7780 C.ar      1 3EN        -0.0687
     16 C49         2.8660   16.8200   13.6660 C.ar      1 3EN        -0.0686
     17 C48         3.8930   17.6380   13.3180 C.ar      1 3EN        -0.0603
     18 C45         4.5240   17.5120   12.1010 C.ar      1 3EN        -0.0408
     19 C44         5.5620   18.3580   11.8290 C.3       1 3EN         0.0040
     20 N58         7.0690   17.3420   13.4120 N.am      1 3EN        -0.2772
     21 O61         7.5380   15.1090   13.1480 O.2       1 3EN        -0.3909
     22 N20         7.0610   14.6760   15.9470 N.4       1 3EN         0.2381
     23 C62         8.9380   16.3920   15.8780 C.3       1 3EN         0.0139
     24 C68         9.9580   15.3710   15.3210 C.3       1 3EN        -0.0553
     25 C64         9.0500   16.5310   17.3990 C.3       1 3EN        -0.0553
     26 O41        10.2460   19.1150   11.5400 O.3       1 3EN        -0.3893
     27 C26        11.2170   16.3990   11.1950 C.3       1 3EN         0.0064
     28 C28        11.5170   15.2210   10.4780 C.ar      1 3EN        -0.0408
     29 C31        12.0090   15.2530    9.1760 C.ar      1 3EN        -0.0603
     30 C32        12.2870   14.0430    8.5230 C.ar      1 3EN        -0.0686
     31 C33        12.0840   12.8080    9.1610 C.ar      1 3EN        -0.0687
     32 C34        11.5780   12.8090   10.4510 C.ar      1 3EN        -0.0686
     33 C35        11.3200   13.9910   11.1030 C.ar      1 3EN        -0.0603
     34 N11         9.5480   17.2590    9.4790 N.am      1 3EN        -0.2549
     35 O24         8.1490   15.6400    8.6850 O.2       1 3EN        -0.3774
     36 O7          8.8270   17.2800    7.2860 O.3       1 3EN        -0.2484
     37 S3          9.2740   14.1170    5.9360 S.3       1 3EN        -0.0006
     38 H1          9.2866   16.9194    3.9278 H         1 3EN         0.0425
     39 H2         10.7038   12.9185    4.3072 H         1 3EN         0.1080
     40 H3          7.3319   15.9099    7.0588 H         1 3EN         0.0803
     41 H4          7.4196   17.1988    5.8107 H         1 3EN         0.0803
     42 H5          9.0784   15.9312   11.0713 H         1 3EN         0.0604
     43 H6          9.4078   17.6816   12.8507 H         1 3EN         0.0619
     44 H7          7.8585   18.6049   10.4079 H         1 3EN         0.0315
     45 H8          7.8429   19.4869   11.9727 H         1 3EN         0.0315
     46 H9          6.8671   16.6492   11.4359 H         1 3EN         0.0579
     47 H10         6.7999   16.7685   15.8962 H         1 3EN         0.1101
     48 H11         4.6595   16.4994   10.2222 H         1 3EN         0.0557
     49 H12         2.8171   14.9488   10.8275 H         1 3EN         0.0599
     50 H13         1.6929   15.1502   13.0419 H         1 3EN         0.0559
     51 H14         2.3574   16.9376   14.6160 H         1 3EN         0.0599
     52 H15         4.2217   18.4039   14.0111 H         1 3EN         0.0557
     53 H16         5.4784   18.7254   10.7955 H         1 3EN         0.0448
     54 H17         5.5364   19.2100   12.5243 H         1 3EN         0.0448
     55 H18         7.0046   18.1055   14.0546 H         1 3EN         0.1858
     56 H19         6.1173   14.4851   15.6487 H         1 3EN         0.2015
     57 H20         7.1049   14.6595   16.9539 H         1 3EN         0.2015
     58 H21         7.6803   13.9746   15.5722 H         1 3EN         0.2015
     59 H22         9.1764   17.3714   15.4376 H         1 3EN         0.0376
     60 H23        10.9723   15.6565   15.6368 H         1 3EN         0.0236
     61 H24         9.9050   15.3619   14.2223 H         1 3EN         0.0236
     62 H25         9.7221   14.3687   15.7078 H         1 3EN         0.0236
     63 H26         8.3108   17.2634   17.7556 H         1 3EN         0.0236
     64 H27        10.0617   16.8731   17.6625 H         1 3EN         0.0236
     65 H28         8.8578   15.5564   17.8714 H         1 3EN         0.0236
     66 H29        11.1402   18.8467   11.7154 H         1 3EN         0.2099
     67 H30        11.3338   16.2192   12.2739 H         1 3EN         0.0449
     68 H31        11.8933   17.2084   10.8828 H         1 3EN         0.0449
     69 H32        12.1749   16.1994    8.6741 H         1 3EN         0.0557
     70 H33        12.6654   14.0613    7.5074 H         1 3EN         0.0599
     71 H34        12.3174   11.8773    8.6567 H         1 3EN         0.0559
     72 H35        11.3835   11.8672   10.9513 H         1 3EN         0.0599
     73 H36        10.9560   13.9661   12.1238 H         1 3EN         0.0557
     74 H37        10.0120   18.1085    9.2280 H         1 3EN         0.1873
@<TRIPOS>BOND
     1    2    1 2  
     2    1   10 1  
     3    4    2 1  
     4    2   37 1  
     5    3   10 2  
     6   37    3 1  
     7   36    4 1  
     8   34    5 am 
     9    5   35 2  
    10    5   36 1  
    11    7    6 1  
    12    6   27 1  
    13    6   34 1  
    14    8    7 1  
    15    7   26 1  
    16    9    8 1  
    17   19    9 1  
    18    9   20 1  
    19   11   12 1  
    20   20   11 am 
    21   11   21 2  
    22   12   22 1  
    23   12   23 1  
    24   13   14 ar 
    25   18   13 ar 
    26   14   15 ar 
    27   16   15 ar 
    28   17   16 ar 
    29   18   17 ar 
    30   18   19 1  
    31   23   24 1  
    32   23   25 1  
    33   27   28 1  
    34   28   29 ar 
    35   28   33 ar 
    36   29   30 ar 
    37   30   31 ar 
    38   31   32 ar 
    39   32   33 ar 
    40    1   38 1  
    41    3   39 1  
    42    4   40 1  
    43    4   41 1  
    44    6   42 1  
    45    7   43 1  
    46    8   44 1  
    47    8   45 1  
    48    9   46 1  
    49   12   47 1  
    50   13   48 1  
    51   14   49 1  
    52   15   50 1  
    53   16   51 1  
    54   17   52 1  
    55   19   53 1  
    56   19   54 1  
    57   20   55 1  
    58   22   56 1  
    59   22   57 1  
    60   22   58 1  
    61   23   59 1  
    62   24   60 1  
    63   24   61 1  
    64   24   62 1  
    65   25   63 1  
    66   25   64 1  
    67   25   65 1  
    68   26   66 1  
    69   27   67 1  
    70   27   68 1  
    71   29   69 1  
    72   30   70 1  
    73   31   71 1  
    74   32   72 1  
    75   33   73 1  
    76   34   74 1  
@<TRIPOS>SUBSTRUCTURE
     1 3EN         1

