### 
### Created by X-TOOL on Mon Sep 10 21:13:18 2018
### 

@<TRIPOS>MOLECULE
4u93_ligand
   46    49     1     0     0
SMALL
GAST_HUCK


@<TRIPOS>ATOM
      1 F17        24.8490   22.3840   10.0560 F         1 990        -0.1887
      2 C16        26.0370   22.9900   10.2460 C.ar      1 990         0.1275
      3 C18        26.3390   23.5050   11.5060 C.ar      1 990        -0.0236
      4 C8         27.5600   24.1350   11.7130 C.ar      1 990        -0.0007
      5 C21        27.8350   24.6740   13.0750 C.ar      1 990         0.0358
      6 N26        29.0770   24.5500   13.5970 N.ar      1 990        -0.2724
      7 C25        29.3740   25.0230   14.8370 C.ar      1 990         0.1610
      8 O27        30.6430   24.8830   15.3270 O.3       1 990        -0.3026
      9 C28        31.6530   24.3150   14.4800 C.3       1 990         0.0631
     10 C24        28.3940   25.6480   15.6190 C.ar      1 990        -0.0065
     11 C23        27.1190   25.7830   15.0930 C.ar      1 990        -0.0523
     12 C22        26.8320   25.2830   13.8190 C.ar      1 990        -0.0409
     13 C19        26.9290   23.0990    9.1890 C.ar      1 990        -0.0327
     14 C20        28.1490   23.7390    9.3930 C.ar      1 990        -0.0562
     15 C7         28.4750   24.2530   10.6570 C.ar      1 990        -0.0068
     16 C6         29.8070   24.9180   10.7920 C.3       1 990         0.0891
     17 N9         30.0420   25.8170    9.6630 N.am      1 990        -0.2719
     18 C1         31.2250   26.3580    9.4130 C.2       1 990         0.2011
     19 O2         31.3550   27.2070    8.5270 O.2       1 990        -0.3935
     20 C5         30.9440   23.8830   10.7570 C.3       1 990         0.0339
     21 C4         32.3000   24.5780   10.7280 C.ar      1 990         0.0475
     22 N15        33.3650   23.9990   11.3360 N.ar      1 990        -0.2583
     23 C13        34.5800   24.6060   11.2940 C.ar      1 990         0.1746
     24 N14        35.6340   23.9910   11.8840 N.pl3     1 990        -0.3038
     25 N12        34.7380   25.8190   10.7020 N.ar      1 990        -0.2588
     26 C10        33.7070   26.4230   10.0850 C.ar      1 990         0.0402
     27 C3         32.4460   25.8070   10.1030 C.ar      1 990         0.0885
     28 C11        33.9880   27.7630    9.4500 C.3       1 990        -0.0109
     29 H          25.6266   23.4146   12.3180 H         1 990         0.0607
     30 H          32.6079   24.2745   15.0245 H         1 990         0.0583
     31 H          31.7699   24.9374   13.5806 H         1 990         0.0583
     32 H          31.3553   23.2977   14.1858 H         1 990         0.0583
     33 H          28.6273   26.0170   16.6112 H         1 990         0.0624
     34 H          26.3443   26.2761   15.6690 H         1 990         0.0700
     35 H          25.8306   25.3702   13.4133 H         1 990         0.0610
     36 H          26.6794   22.6910    8.2162 H         1 990         0.0604
     37 H          28.8494   23.8404    8.5719 H         1 990         0.0554
     38 H          29.8373   25.4798   11.7372 H         1 990         0.0752
     39 H          29.2782   26.0323    9.0545 H         1 990         0.1871
     40 H          30.8379   23.2594    9.8571 H         1 990         0.0535
     41 H          30.8824   23.2476   11.6528 H         1 990         0.0535
     42 H          35.5094   23.0717   12.3314 H         1 990         0.1841
     43 H          36.5595   24.4430   11.8849 H         1 990         0.1841
     44 H          33.0693   28.1470    8.9825 H         1 990         0.0454
     45 H          34.7692   27.6492    8.6840 H         1 990         0.0454
     46 H          34.3302   28.4694   10.2206 H         1 990         0.0454
@<TRIPOS>BOND
     1    1    2 1  
     2    2    3 ar 
     3    2   13 ar 
     4    3    4 ar 
     5    4    5 1  
     6    4   15 ar 
     7    5    6 ar 
     8    5   12 ar 
     9    6    7 ar 
    10    7    8 1  
    11    7   10 ar 
    12    8    9 1  
    13   10   11 ar 
    14   11   12 ar 
    15   13   14 ar 
    16   14   15 ar 
    17   15   16 1  
    18   16   17 1  
    19   16   20 1  
    20   17   18 am 
    21   18   19 2  
    22   18   27 1  
    23   20   21 1  
    24   21   22 ar 
    25   21   27 ar 
    26   22   23 ar 
    27   23   24 1  
    28   23   25 ar 
    29   25   26 ar 
    30   26   27 ar 
    31   26   28 1  
    32    3   29 1  
    33    9   30 1  
    34    9   31 1  
    35    9   32 1  
    36   10   33 1  
    37   11   34 1  
    38   12   35 1  
    39   13   36 1  
    40   14   37 1  
    41   16   38 1  
    42   17   39 1  
    43   20   40 1  
    44   20   41 1  
    45   24   42 1  
    46   24   43 1  
    47   28   44 1  
    48   28   45 1  
    49   28   46 1  
@<TRIPOS>SUBSTRUCTURE
     1 990         1

