### 
### Created by X-TOOL on Mon Sep 10 21:13:16 2018
### 

@<TRIPOS>MOLECULE
4ua8_ligand
   66    68     1     0     0
SMALL
GAST_HUCK


@<TRIPOS>ATOM
      1 C1A       -34.7210    8.5310   -5.8200 C.3       1 MLR         0.1854
      2 C2A       -34.4890    9.3370   -4.5690 C.3       1 MLR         0.1339
      3 C3A       -33.0780    9.7720   -4.4540 C.3       1 MLR         0.1144
      4 C4A       -32.1720    8.5750   -4.4660 C.3       1 MLR         0.1184
      5 C5A       -32.3690    7.7790   -5.7310 C.3       1 MLR         0.1134
      6 C6A       -31.6290    6.4680   -5.6710 C.3       1 MLR         0.0730
      7 O1X       -34.5810    9.2900   -6.9580 O.3       1 MLR        -0.3649
      8 O2A       -35.4300   10.4570   -4.5310 O.3       1 MLR        -0.3841
      9 O3A       -32.9520   10.4560   -3.1740 O.3       1 MLR        -0.3864
     10 O4A       -30.7930    9.0200   -4.3700 O.3       1 MLR        -0.3401
     11 O5A       -33.7690    7.4130   -5.8610 O.3       1 MLR        -0.3407
     12 O6A       -31.8080    5.7680   -6.9090 O.3       1 MLR        -0.3924
     13 C1B       -30.1300    8.6210   -3.1800 C.3       1 MLR         0.1884
     14 C2B       -29.4940    9.7970   -2.5450 C.3       1 MLR         0.1341
     15 C3B       -28.4400   10.3630   -3.4310 C.3       1 MLR         0.1144
     16 C4B       -27.4200    9.3390   -3.8310 C.3       1 MLR         0.1184
     17 C5B       -28.0920    8.1170   -4.3990 C.3       1 MLR         0.1134
     18 C6B       -27.0860    6.9830   -4.5320 C.3       1 MLR         0.0730
     19 O2B       -30.5160   10.7820   -2.2300 O.3       1 MLR        -0.3841
     20 O3B       -27.7700   11.4810   -2.7850 O.3       1 MLR        -0.3864
     21 O4B       -26.4880    9.8860   -4.8180 O.3       1 MLR        -0.3401
     22 O5B       -29.1230    7.6240   -3.5180 O.3       1 MLR        -0.3405
     23 O6B       -27.6810    5.8390   -5.1350 O.3       1 MLR        -0.3924
     24 C1C       -25.3240   10.2820   -4.2930 C.3       1 MLR         0.1884
     25 C2C       -24.8270   11.5950   -4.7810 C.3       1 MLR         0.1341
     26 C3C       -24.6030   11.5670   -6.2080 C.3       1 MLR         0.1141
     27 C4C       -23.5920   10.6680   -6.6820 C.3       1 MLR         0.1119
     28 C5C       -24.0420    9.2820   -6.2610 C.3       1 MLR         0.1130
     29 C6C       -23.0800    8.2180   -6.5370 C.3       1 MLR         0.0730
     30 O2C       -25.8720   12.5140   -4.3310 O.3       1 MLR        -0.3841
     31 O3C       -24.2450   13.0270   -6.6230 O.3       1 MLR        -0.3864
     32 O4C       -23.4420   10.6390   -8.1360 O.3       1 MLR        -0.3865
     33 O5C       -24.2050    9.2210   -4.7140 O.3       1 MLR        -0.3405
     34 O6C       -23.6490    6.8880   -6.3680 O.3       1 MLR        -0.3924
     35 H         -35.7449    8.1299   -5.7919 H         1 MLR         0.0935
     36 H         -34.7031    8.6906   -3.7051 H         1 MLR         0.0671
     37 H         -32.8164   10.4486   -5.2808 H         1 MLR         0.0648
     38 H         -32.4072    7.9365   -3.6017 H         1 MLR         0.0651
     39 H         -32.0362    8.3711   -6.5962 H         1 MLR         0.0647
     40 H         -32.0246    5.8599   -4.8442 H         1 MLR         0.0584
     41 H         -30.5579    6.6574   -5.5072 H         1 MLR         0.0584
     42 H         -33.6945    9.6283   -7.0046 H         1 MLR         0.2126
     43 H         -35.2472   11.0474   -5.2525 H         1 MLR         0.2101
     44 H         -32.0521   10.7356   -3.0528 H         1 MLR         0.2100
     45 H         -32.7335    5.6060   -7.0489 H         1 MLR         0.2095
     46 H         -30.8587    8.1826   -2.4823 H         1 MLR         0.0938
     47 H         -29.0182    9.4764   -1.6065 H         1 MLR         0.0671
     48 H         -28.9302   10.7319   -4.3440 H         1 MLR         0.0648
     49 H         -26.8520    9.0458   -2.9358 H         1 MLR         0.0651
     50 H         -28.5217    8.3640   -5.3810 H         1 MLR         0.0647
     51 H         -26.7167    6.7110   -3.5322 H         1 MLR         0.0584
     52 H         -26.2443    7.3205   -5.1545 H         1 MLR         0.0584
     53 H         -30.1161   11.5208   -1.7864 H         1 MLR         0.2101
     54 H         -27.1490   11.8691   -3.3902 H         1 MLR         0.2100
     55 H         -27.9984    6.0677   -6.0007 H         1 MLR         0.2095
     56 H         -25.4276   10.3204   -3.1986 H         1 MLR         0.0938
     57 H         -23.8750   11.8517   -4.2934 H         1 MLR         0.0671
     58 H         -25.5476   11.2755   -6.6905 H         1 MLR         0.0648
     59 H         -22.6267   10.9266   -6.2224 H         1 MLR         0.0647
     60 H         -24.9958    9.0593   -6.7616 H         1 MLR         0.0647
     61 H         -22.2284    8.3264   -5.8492 H         1 MLR         0.0584
     62 H         -22.7290    8.3213   -7.5743 H         1 MLR         0.0584
     63 H         -25.6443   13.4002   -4.5865 H         1 MLR         0.2101
     64 H         -24.1928   13.0821   -7.5699 H         1 MLR         0.2100
     65 H         -24.2755   10.4186   -8.5349 H         1 MLR         0.2100
     66 H         -24.3816    6.7802   -6.9631 H         1 MLR         0.2095
@<TRIPOS>BOND
     1    1    2 1  
     2    1    7 1  
     3    1   11 1  
     4    2    3 1  
     5    2    8 1  
     6    3    4 1  
     7    3    9 1  
     8    4    5 1  
     9    4   10 1  
    10    5    6 1  
    11    5   11 1  
    12    6   12 1  
    13   10   13 1  
    14   13   14 1  
    15   13   22 1  
    16   14   15 1  
    17   14   19 1  
    18   15   16 1  
    19   15   20 1  
    20   16   17 1  
    21   16   21 1  
    22   17   18 1  
    23   17   22 1  
    24   18   23 1  
    25   21   24 1  
    26   24   25 1  
    27   24   33 1  
    28   25   26 1  
    29   25   30 1  
    30   26   27 1  
    31   26   31 1  
    32   27   28 1  
    33   27   32 1  
    34   28   29 1  
    35   28   33 1  
    36   29   34 1  
    37    1   35 1  
    38    2   36 1  
    39    3   37 1  
    40    4   38 1  
    41    5   39 1  
    42    6   40 1  
    43    6   41 1  
    44    7   42 1  
    45    8   43 1  
    46    9   44 1  
    47   12   45 1  
    48   13   46 1  
    49   14   47 1  
    50   15   48 1  
    51   16   49 1  
    52   17   50 1  
    53   18   51 1  
    54   18   52 1  
    55   19   53 1  
    56   20   54 1  
    57   23   55 1  
    58   24   56 1  
    59   25   57 1  
    60   26   58 1  
    61   27   59 1  
    62   28   60 1  
    63   29   61 1  
    64   29   62 1  
    65   30   63 1  
    66   31   64 1  
    67   32   65 1  
    68   34   66 1  
@<TRIPOS>SUBSTRUCTURE
     1 MLR         1

