### 
### Created by X-TOOL on Mon Sep 10 21:13:16 2018
### 

@<TRIPOS>MOLECULE
4uac_ligand
   90    93     1     0     0
SMALL
GAST_HUCK


@<TRIPOS>ATOM
      1 C1A        22.3150   66.1510   27.7300 C.3       1 ACR         0.0073
      2 C2A        22.2570   67.3520   28.8500 C.3       1 ACR         0.1257
      3 C3A        22.7560   66.9640   29.9860 C.3       1 ACR         0.1124
      4 C4A        21.9070   65.7970   30.7410 C.3       1 ACR         0.0888
      5 C5A        21.6340   64.6790   29.8660 C.3       1 ACR         0.0159
      6 C6A        21.1630   63.3510   30.3740 C.3       1 ACR         0.0496
      7 C7A        21.8450   64.9070   28.2090 C.3       1 ACR         0.0001
      8 O2A        23.0600   68.4710   28.2800 O.3       1 ACR        -0.3835
      9 O3A        22.7920   68.1140   30.9660 O.3       1 ACR        -0.3864
     10 O4A        22.5610   65.3430   31.9340 O.3       1 ACR        -0.3888
     11 O6A        20.2300   62.8880   29.4380 O.3       1 ACR        -0.3946
     12 C1B        25.4350   65.4630   23.4290 C.3       1 ACR         0.1886
     13 C2B        25.0790   66.8420   23.9060 C.3       1 ACR         0.1370
     14 C3B        24.9660   66.8860   25.3900 C.3       1 ACR         0.1304
     15 C4B        23.9070   65.9220   25.8340 C.3       1 ACR         0.0334
     16 C5B        24.3220   64.5370   25.3890 C.3       1 ACR         0.1038
     17 C6B        23.3120   63.4630   25.6850 C.3       1 ACR        -0.0332
     18 N4B        23.7260   66.0160   27.2860 N.4       1 ACR         0.2370
     19 O2B        26.1060   67.7530   23.4510 O.3       1 ACR        -0.3840
     20 O3B        24.6320   68.2140   25.8460 O.3       1 ACR        -0.3834
     21 O5B        24.4330   64.4950   23.9330 O.3       1 ACR        -0.3401
     22 C1C        30.3360   63.7300   22.3330 C.3       1 ACR         0.1884
     23 C2C        29.6980   64.9220   21.6880 C.3       1 ACR         0.1341
     24 C3C        28.6630   65.5260   22.5760 C.3       1 ACR         0.1144
     25 C4C        27.6150   64.5260   22.9630 C.3       1 ACR         0.1184
     26 C5C        28.2580   63.2810   23.5450 C.3       1 ACR         0.1134
     27 C6C        27.2160   62.1990   23.7290 C.3       1 ACR         0.0730
     28 O2C        30.7290   65.8820   21.3750 O.3       1 ACR        -0.3841
     29 O3C        28.0520   66.6630   21.9100 O.3       1 ACR        -0.3864
     30 O4C        26.6920   65.0870   23.9400 O.3       1 ACR        -0.3401
     31 O5C        29.2920   62.7500   22.6570 O.3       1 ACR        -0.3405
     32 O6C        27.8000   61.0390   24.3570 O.3       1 ACR        -0.3924
     33 C1D        34.8890   63.6670   25.0410 C.3       1 ACR         0.1854
     34 C2D        34.6750   64.4640   23.7700 C.3       1 ACR         0.1339
     35 C3D        33.2590   64.8930   23.6070 C.3       1 ACR         0.1144
     36 C4D        32.3330   63.7220   23.6200 C.3       1 ACR         0.1184
     37 C5D        32.5130   62.9450   24.9110 C.3       1 ACR         0.1134
     38 C6D        31.7760   61.6450   24.8910 C.3       1 ACR         0.0730
     39 O1D        34.7400   64.4820   26.1520 O.3       1 ACR        -0.3649
     40 O2D        35.6100   65.5690   23.6860 O.3       1 ACR        -0.3841
     41 O3D        33.1410   65.5560   22.3180 O.3       1 ACR        -0.3864
     42 O4D        30.9780   64.1610   23.4910 O.3       1 ACR        -0.3401
     43 O5D        33.9140   62.5640   25.0880 O.3       1 ACR        -0.3407
     44 O6D        31.9410   60.9960   26.1610 O.3       1 ACR        -0.3924
     45 H          21.6915   66.4440   26.8725 H         1 ACR         0.0877
     46 H          21.2163   67.6724   29.0056 H         1 ACR         0.0677
     47 H          23.7771   66.5996   29.7999 H         1 ACR         0.0647
     48 H          20.9414   66.2336   31.0360 H         1 ACR         0.0623
     49 H          22.6765   64.3428   29.9671 H         1 ACR         0.0351
     50 H          20.6901   63.4651   31.3606 H         1 ACR         0.0561
     51 H          22.0072   62.6500   30.4509 H         1 ACR         0.0561
     52 H          22.5602   64.1431   27.8699 H         1 ACR         0.0325
     53 H          20.8680   64.7306   27.7353 H         1 ACR         0.0325
     54 H          22.6814   68.7410   27.4516 H         1 ACR         0.2102
     55 H          23.2170   67.8323   31.7676 H         1 ACR         0.2100
     56 H          22.7351   66.0855   32.5005 H         1 ACR         0.2099
     57 H          19.8980   62.0421   29.7152 H         1 ACR         0.2094
     58 H          25.4566   65.4461   22.3294 H         1 ACR         0.0938
     59 H          24.1129   67.1363   23.4702 H         1 ACR         0.0672
     60 H          25.9304   66.5917   25.8296 H         1 ACR         0.0679
     61 H          22.9542   66.1790   25.3482 H         1 ACR         0.0903
     62 H          25.2833   64.2889   25.8626 H         1 ACR         0.0652
     63 H          23.6927   62.4939   25.3302 H         1 ACR         0.0257
     64 H          22.3676   63.6962   25.1715 H         1 ACR         0.0257
     65 H          23.1370   63.4132   26.7698 H         1 ACR         0.0257
     66 H          24.1080   65.1823   27.7043 H         1 ACR         0.2022
     67 H          24.2365   66.8208   27.6142 H         1 ACR         0.2022
     68 H          25.8847   68.6372   23.7188 H         1 ACR         0.2101
     69 H          23.7947   68.4724   25.4790 H         1 ACR         0.2102
     70 H          31.0681   63.2763   21.6487 H         1 ACR         0.0938
     71 H          29.2117   64.6034   20.7542 H         1 ACR         0.0671
     72 H          29.1568   65.8796   23.4931 H         1 ACR         0.0648
     73 H          27.0496   64.2465   22.0618 H         1 ACR         0.0651
     74 H          28.7061   63.5328   24.5175 H         1 ACR         0.0647
     75 H          26.8120   61.9141   22.7463 H         1 ACR         0.0584
     76 H          26.4028   62.5830   24.3624 H         1 ACR         0.0584
     77 H          31.1453   66.1712   22.1785 H         1 ACR         0.2101
     78 H          27.4299   67.0760   22.4975 H         1 ACR         0.2100
     79 H          28.5013   60.7039   23.8107 H         1 ACR         0.2095
     80 H          35.9068   63.2499   25.0381 H         1 ACR         0.0935
     81 H          34.8990   63.7922   22.9283 H         1 ACR         0.0671
     82 H          32.9871   65.5856   24.4171 H         1 ACR         0.0648
     83 H          32.5755   63.0655   22.7713 H         1 ACR         0.0651
     84 H          32.1710   63.5640   25.7535 H         1 ACR         0.0647
     85 H          32.1801   61.0039   24.0937 H         1 ACR         0.0584
     86 H          30.7073   61.8294   24.7070 H         1 ACR         0.0584
     87 H          33.8611   64.8424   26.1634 H         1 ACR         0.2126
     88 H          35.4164   66.1989   24.3703 H         1 ACR         0.2101
     89 H          32.2454   65.8474   22.1939 H         1 ACR         0.2100
     90 H          32.8648   60.8392   26.3176 H         1 ACR         0.2095
@<TRIPOS>BOND
     1    1    2 1  
     2    1    7 1  
     3   18    1 1  
     4    2    3 1  
     5    2    8 1  
     6    3    4 1  
     7    3    9 1  
     8    5    4 1  
     9    4   10 1  
    10    5    6 1  
    11    7    5 1  
    12    6   11 1  
    13   12   13 1  
    14   12   21 1  
    15   30   12 1  
    16   13   14 1  
    17   13   19 1  
    18   14   15 1  
    19   14   20 1  
    20   16   15 1  
    21   15   18 1  
    22   16   17 1  
    23   21   16 1  
    24   22   23 1  
    25   22   31 1  
    26   42   22 1  
    27   23   24 1  
    28   23   28 1  
    29   24   25 1  
    30   24   29 1  
    31   26   25 1  
    32   25   30 1  
    33   26   27 1  
    34   31   26 1  
    35   27   32 1  
    36   34   33 1  
    37   33   39 1  
    38   33   43 1  
    39   35   34 1  
    40   34   40 1  
    41   36   35 1  
    42   35   41 1  
    43   36   37 1  
    44   36   42 1  
    45   37   38 1  
    46   37   43 1  
    47   38   44 1  
    48    1   45 1  
    49    2   46 1  
    50    3   47 1  
    51    4   48 1  
    52    5   49 1  
    53    6   50 1  
    54    6   51 1  
    55    7   52 1  
    56    7   53 1  
    57    8   54 1  
    58    9   55 1  
    59   10   56 1  
    60   11   57 1  
    61   12   58 1  
    62   13   59 1  
    63   14   60 1  
    64   15   61 1  
    65   16   62 1  
    66   17   63 1  
    67   17   64 1  
    68   17   65 1  
    69   18   66 1  
    70   18   67 1  
    71   19   68 1  
    72   20   69 1  
    73   22   70 1  
    74   23   71 1  
    75   24   72 1  
    76   25   73 1  
    77   26   74 1  
    78   27   75 1  
    79   27   76 1  
    80   28   77 1  
    81   29   78 1  
    82   32   79 1  
    83   33   80 1  
    84   34   81 1  
    85   35   82 1  
    86   36   83 1  
    87   37   84 1  
    88   38   85 1  
    89   38   86 1  
    90   39   87 1  
    91   40   88 1  
    92   41   89 1  
    93   44   90 1  
@<TRIPOS>SUBSTRUCTURE
     1 ACR         1

