### 
### Created by X-TOOL on Mon Sep 10 21:13:24 2018
### 

@<TRIPOS>MOLECULE
4uc5_ligand
   23    23     1     0     0
SMALL
GAST_HUCK


@<TRIPOS>ATOM
      1 N         -22.7000   -3.4280  -17.1520 N.4       1 PHE         0.2341
      2 CA        -22.4450   -4.7310  -17.8120 C.3       1 PHE         0.0378
      3 C         -23.2620   -5.8420  -17.1810 C.2       1 PHE         0.0866
      4 O         -23.3280   -6.9450  -17.7230 O.co2     1 PHE        -0.5641
      5 CB        -20.9670   -5.0810  -17.7440 C.3       1 PHE         0.0361
      6 CG        -20.0890   -4.0160  -18.3120 C.ar      1 PHE        -0.0360
      7 CD1       -19.8620   -3.9490  -19.6690 C.ar      1 PHE        -0.0600
      8 CD2       -19.5230   -3.0580  -17.4880 C.ar      1 PHE        -0.0600
      9 CE1       -19.0580   -2.9570  -20.2020 C.ar      1 PHE        -0.0686
     10 CE2       -18.7320   -2.0610  -18.0200 C.ar      1 PHE        -0.0686
     11 CZ        -18.5080   -2.0070  -19.3860 C.ar      1 PHE        -0.0687
     12 OXT       -23.8580   -5.6510  -16.1320 O.co2     1 PHE        -0.5641
     13 H1        -22.1434   -2.7130  -17.5937 H         1 PHE         0.2012
     14 H2        -22.4532   -3.4913  -16.1767 H         1 PHE         0.2012
     15 H3        -23.6767   -3.1937  -17.2369 H         1 PHE         0.2012
     16 H4        -22.7362   -4.6439  -18.8692 H         1 PHE         0.1048
     17 H5        -20.8005   -6.0105  -18.3082 H         1 PHE         0.0500
     18 H6        -20.6918   -5.2373  -16.6905 H         1 PHE         0.0500
     19 H7        -20.3179   -4.6809  -20.3260 H         1 PHE         0.0557
     20 H8        -19.7024   -3.0916  -16.4195 H         1 PHE         0.0557
     21 H9        -18.8637   -2.9327  -21.2682 H         1 PHE         0.0599
     22 H10       -18.2851   -1.3189  -17.3684 H         1 PHE         0.0599
     23 H11       -17.8992   -1.2149  -19.8066 H         1 PHE         0.0559
@<TRIPOS>BOND
     1    1    2 1  
     2    2    3 1  
     3    2    5 1  
     4    3    4 ar 
     5    3   12 ar 
     6    5    6 1  
     7    6    7 ar 
     8    6    8 ar 
     9    7    9 ar 
    10    8   10 ar 
    11    9   11 ar 
    12   10   11 ar 
    13    1   13 1  
    14    1   14 1  
    15    1   15 1  
    16    2   16 1  
    17    5   17 1  
    18    5   18 1  
    19    7   19 1  
    20    8   20 1  
    21    9   21 1  
    22   10   22 1  
    23   11   23 1  
@<TRIPOS>SUBSTRUCTURE
     1 PHE         1

