### 
### Created by X-TOOL on Mon Sep 10 21:13:24 2018
### 

@<TRIPOS>MOLECULE
4ucc_ligand
   26    27     1     0     0
SMALL
GAST_HUCK


@<TRIPOS>ATOM
      1 O3        -21.8460   17.8660  -15.8120 O.co2     1 ZKW        -0.5581
      2 C11       -21.1860   17.6730  -16.8650 C.2       1 ZKW         0.0929
      3 O2        -20.0030   17.2470  -16.9130 O.co2     1 ZKW        -0.5581
      4 C7        -21.9210   17.9610  -18.1760 C.2       1 ZKW         0.1249
      5 C8        -23.2270   18.3740  -18.3010 C.2       1 ZKW        -0.0189
      6 C9        -23.4450   18.5340  -19.6660 C.2       1 ZKW         0.0734
      7 C10       -24.7460   19.0260  -20.3230 C.2       1 ZKW         0.0688
      8 O1        -24.9320   18.7240  -21.5260 O.co2     1 ZKW        -0.5610
      9 O         -25.5260   19.6990  -19.6070 O.co2     1 ZKW        -0.5610
     10 N1        -22.3440   18.2310  -20.3790 N.2       1 ZKW        -0.1909
     11 N         -21.4150   17.8810  -19.4400 N.pl3     1 ZKW        -0.1788
     12 C6        -20.0950   17.4430  -19.9030 C.3       1 ZKW         0.1075
     13 C2        -20.0090   15.9660  -20.2150 C.ar      1 ZKW         0.0040
     14 C1        -21.1430   15.1500  -20.1880 C.ar      1 ZKW        -0.0563
     15 C3        -18.8020   15.3570  -20.5390 C.ar      1 ZKW         0.0447
     16 CL1       -17.3630   16.3140  -20.6650 Cl        1 ZKW        -0.0770
     17 C4        -18.6990   14.0080  -20.7990 C.ar      1 ZKW        -0.0405
     18 C5        -19.8500   13.2450  -20.7780 C.ar      1 ZKW         0.0335
     19 CL        -19.7540   11.5520  -21.1820 Cl        1 ZKW        -0.0770
     20 C         -21.0730   13.8000  -20.4800 C.ar      1 ZKW        -0.0543
     21 H1        -23.9428   18.5413  -17.4975 H         1 ZKW         0.0422
     22 H2        -19.3596   17.6736  -19.1182 H         1 ZKW         0.0812
     23 H3        -19.8454   18.0039  -20.8157 H         1 ZKW         0.0812
     24 H4        -22.1017   15.5861  -19.9317 H         1 ZKW         0.0558
     25 H5        -17.7376   13.5562  -21.0149 H         1 ZKW         0.0612
     26 H6        -21.9681   13.1886  -20.4741 H         1 ZKW         0.0607
@<TRIPOS>BOND
     1    1    2 ar 
     2    2    3 ar 
     3    2    4 1  
     4    4    5 2  
     5    4   11 1  
     6    5    6 1  
     7    6    7 1  
     8    6   10 2  
     9    7    8 ar 
    10    7    9 ar 
    11   10   11 1  
    12   11   12 1  
    13   12   13 1  
    14   13   14 ar 
    15   13   15 ar 
    16   14   20 ar 
    17   15   16 1  
    18   15   17 ar 
    19   17   18 ar 
    20   18   19 1  
    21   18   20 ar 
    22    5   21 1  
    23   12   22 1  
    24   12   23 1  
    25   14   24 1  
    26   17   25 1  
    27   20   26 1  
@<TRIPOS>SUBSTRUCTURE
     1 ZKW         1

