### 
### Created by X-TOOL on Mon Sep 10 21:13:23 2018
### 

@<TRIPOS>MOLECULE
4ucd_ligand
   26    27     1     0     0
SMALL
GAST_HUCK


@<TRIPOS>ATOM
      1 CL        -17.1650   16.2970  -20.3950 Cl        1 M81        -0.0771
      2 C3        -18.6240   15.3580  -20.3740 C.ar      1 M81         0.0440
      3 C2        -18.5330   13.9870  -20.5670 C.ar      1 M81        -0.0545
      4 C1        -19.6820   13.2170  -20.5040 C.ar      1 M81        -0.0682
      5 C4        -19.8390   15.9900  -20.1430 C.ar      1 M81         0.0037
      6 C5        -20.9840   15.1920  -20.1520 C.ar      1 M81        -0.0569
      7 C         -20.9030   13.8190  -20.3090 C.ar      1 M81        -0.0683
      8 C6        -19.9110   17.4770  -19.8860 C.3       1 M81         0.1073
      9 N         -21.2320   17.9180  -19.4330 N.pl3     1 M81        -0.1789
     10 N1        -22.1530   18.2640  -20.3800 N.2       1 M81        -0.1909
     11 C9        -23.2510   18.5830  -19.6770 C.2       1 M81         0.0734
     12 C10       -24.5190   19.0800  -20.3430 C.2       1 M81         0.0688
     13 O1        -24.7390   18.6520  -21.4990 O.co2     1 M81        -0.5610
     14 O         -25.2450   19.8820  -19.7000 O.co2     1 M81        -0.5610
     15 C8        -23.0430   18.4370  -18.3100 C.2       1 M81        -0.0189
     16 C7        -21.7430   18.0170  -18.1730 C.2       1 M81         0.1249
     17 C11       -21.0380   17.7310  -16.8520 C.2       1 M81         0.0929
     18 O2        -19.8460   17.3340  -16.8820 O.co2     1 M81        -0.5581
     19 O3        -21.7240   17.9200  -15.8130 O.co2     1 M81        -0.5581
     20 H1        -17.5731   13.5239  -20.7649 H         1 M81         0.0605
     21 H2        -19.6191   12.1399  -20.6084 H         1 M81         0.0559
     22 H3        -21.9562   15.6566  -20.0337 H         1 M81         0.0558
     23 H4        -21.8040   13.2171  -20.2782 H         1 M81         0.0601
     24 H5        -19.6662   18.0059  -20.8189 H         1 M81         0.0811
     25 H6        -19.1718   17.7350  -19.1134 H         1 M81         0.0811
     26 H7        -23.7624   18.6183  -17.5128 H         1 M81         0.0422
@<TRIPOS>BOND
     1    1    2 1  
     2    2    3 ar 
     3    2    5 ar 
     4    3    4 ar 
     5    4    7 ar 
     6    5    6 ar 
     7    5    8 1  
     8    6    7 ar 
     9    8    9 1  
    10    9   10 1  
    11    9   16 1  
    12   10   11 2  
    13   11   12 1  
    14   11   15 1  
    15   12   13 ar 
    16   12   14 ar 
    17   15   16 2  
    18   16   17 1  
    19   17   18 ar 
    20   17   19 ar 
    21    3   20 1  
    22    4   21 1  
    23    6   22 1  
    24    7   23 1  
    25    8   24 1  
    26    8   25 1  
    27   15   26 1  
@<TRIPOS>SUBSTRUCTURE
     1 M81         1

