### 
### Created by X-TOOL on Mon Sep 10 21:13:24 2018
### 

@<TRIPOS>MOLECULE
4uce_ligand
   26    27     1     0     0
SMALL
GAST_HUCK


@<TRIPOS>ATOM
      1 F         -15.8530   14.6120  -20.6030 F         1 MZS        -0.1893
      2 C2        -17.1440   14.5540  -20.2010 C.ar      1 MZS         0.1248
      3 C1        -17.7380   15.7040  -19.7650 C.ar      1 MZS        -0.0348
      4 C3        -17.8080   13.3630  -20.2920 C.ar      1 MZS        -0.0348
      5 C4        -19.1520   13.3390  -19.9640 C.ar      1 MZS        -0.0592
      6 C5        -19.8010   14.4840  -19.5120 C.ar      1 MZS        -0.0142
      7 C         -19.0660   15.6550  -19.3930 C.ar      1 MZS        -0.0592
      8 C6        -21.2680   14.4550  -19.1500 C.3       1 MZS         0.1050
      9 N         -22.0130   15.6100  -19.6650 N.pl3     1 MZS        -0.1796
     10 N1        -21.9350   16.7940  -18.9740 N.2       1 MZS        -0.1910
     11 C9        -22.7780   17.6150  -19.6250 C.2       1 MZS         0.0734
     12 C10       -23.1790   19.0040  -19.1220 C.2       1 MZS         0.0688
     13 O1        -23.4050   19.8580  -20.0100 O.co2     1 MZS        -0.5610
     14 O         -23.2960   19.1840  -17.8830 O.co2     1 MZS        -0.5610
     15 C8        -23.3490   16.9880  -20.7280 C.2       1 MZS        -0.0189
     16 C7        -22.8700   15.7000  -20.7220 C.2       1 MZS         0.1248
     17 C11       -23.3280   14.5690  -21.6650 C.2       1 MZS         0.0929
     18 O2        -23.3730   13.3900  -21.2340 O.co2     1 MZS        -0.5581
     19 O3        -23.6770   14.9250  -22.8120 O.co2     1 MZS        -0.5581
     20 H1        -17.1802   16.6320  -19.7125 H         1 MZS         0.0587
     21 H2        -17.2962   12.4626  -20.6121 H         1 MZS         0.0587
     22 H3        -19.7082   12.4136  -20.0607 H         1 MZS         0.0548
     23 H4        -19.5430   16.5461  -19.0013 H         1 MZS         0.0548
     24 H5        -21.3575   14.4417  -18.0537 H         1 MZS         0.0802
     25 H6        -21.7127   13.5386  -19.5654 H         1 MZS         0.0802
     26 H7        -24.0358   17.4284  -21.4493 H         1 MZS         0.0422
@<TRIPOS>BOND
     1    1    2 1  
     2    2    3 ar 
     3    2    4 ar 
     4    3    7 ar 
     5    4    5 ar 
     6    5    6 ar 
     7    6    7 ar 
     8    6    8 1  
     9    8    9 1  
    10    9   10 1  
    11    9   16 1  
    12   10   11 2  
    13   11   12 1  
    14   11   15 1  
    15   12   13 ar 
    16   12   14 ar 
    17   15   16 2  
    18   16   17 1  
    19   17   18 ar 
    20   17   19 ar 
    21    3   20 1  
    22    4   21 1  
    23    5   22 1  
    24    7   23 1  
    25    8   24 1  
    26    8   25 1  
    27   15   26 1  
@<TRIPOS>SUBSTRUCTURE
     1 MZS         1

