### 
### Created by X-TOOL on Mon Sep 10 21:13:25 2018
### 

@<TRIPOS>MOLECULE
4uco_ligand
   41    43     1     0     0
SMALL
GAST_HUCK


@<TRIPOS>ATOM
      1 O         112.1760   85.9380   28.5990 O.2       1 D41        -0.3833
      2 C13       111.6810   87.0460   28.8500 C.2       1 D41         0.2135
      3 N2        111.7880   87.6090   30.0520 N.am      1 D41        -0.2995
      4 C12       110.9240   87.7780   27.7810 C.ar      1 D41         0.1164
      5 C11       110.8070   89.1440   27.8220 C.ar      1 D41         0.0029
      6 C14       110.3120   87.0760   26.6010 C.ar      1 D41         0.1440
      7 N3        110.4050   85.7440   26.5170 N.pl3     1 D41        -0.3107
      8 N4        109.6350   87.7190   25.6560 N.ar      1 D41        -0.2503
      9 C15       109.5220   89.0770   25.7500 C.ar      1 D41         0.1351
     10 N5        108.8280   89.6620   24.7300 N.ar      1 D41        -0.2386
     11 C4        108.6930   90.9840   24.8160 C.ar      1 D41         0.0844
     12 C1        107.8840   91.6220   23.6530 C.3       1 D41        -0.0094
     13 C3        107.8080   93.1510   23.7510 C.3       1 D41        -0.0744
     14 C2        106.4490   91.0710   23.6180 C.3       1 D41        -0.0744
     15 C         108.5400   91.2760   22.3110 C.3       1 D41        -0.0744
     16 C10       110.0750   89.8250   26.8210 C.ar      1 D41         0.0708
     17 C5        109.8500   91.2430   26.7680 C.ar      1 D41         0.1024
     18 N         109.1660   91.8080   25.7550 N.ar      1 D41        -0.2618
     19 C6        110.3360   92.2470   27.7240 C.2       1 D41         0.0947
     20 N1        110.0330   93.5580   27.4480 N.pl3     1 D41        -0.2749
     21 C9        110.5670   94.3630   28.4000 C.2       1 D41         0.0311
     22 C8        111.2080   93.5840   29.3150 C.2       1 D41        -0.0629
     23 C7        111.1030   92.2520   28.8780 C.2       1 D41        -0.0556
     24 H1        111.3773   88.5046   30.2230 H         1 D41         0.1807
     25 H2        112.2791   87.1362   30.7837 H         1 D41         0.1807
     26 H3        111.2765   89.7031   28.6233 H         1 D41         0.0876
     27 H4        109.9908   85.2484   25.7147 H         1 D41         0.1839
     28 H5        110.8908   85.2141   27.2547 H         1 D41         0.1839
     29 H6        107.2257   93.5441   22.9046 H         1 D41         0.0160
     30 H7        108.8242   93.5712   23.7235 H         1 D41         0.0160
     31 H8        107.3195   93.4341   24.6950 H         1 D41         0.0160
     32 H9        106.4792   89.9737   23.5477 H         1 D41         0.0160
     33 H10       105.9204   91.4799   22.7443 H         1 D41         0.0160
     34 H11       105.9208   91.3651   24.5370 H         1 D41         0.0160
     35 H12       109.5723   91.6559   22.2987 H         1 D41         0.0160
     36 H13       107.9689   91.7398   21.4933 H         1 D41         0.0160
     37 H14       108.5496   90.1841   22.1782 H         1 D41         0.0160
     38 H15       109.4828   93.8812   26.6394 H         1 D41         0.2364
     39 H16       110.4953   95.4493   28.4281 H         1 D41         0.0968
     40 H17       111.7092   93.9291   30.2181 H         1 D41         0.0357
     41 H18       111.5449   91.3810   29.3597 H         1 D41         0.0450
@<TRIPOS>BOND
     1    1    2 2  
     2    2    3 am 
     3    2    4 1  
     4    4    5 ar 
     5    4    6 ar 
     6    5   16 ar 
     7    6    7 1  
     8    6    8 ar 
     9    8    9 ar 
    10    9   10 ar 
    11    9   16 ar 
    12   10   11 ar 
    13   11   12 1  
    14   11   18 ar 
    15   12   13 1  
    16   12   14 1  
    17   12   15 1  
    18   16   17 ar 
    19   17   18 ar 
    20   17   19 1  
    21   19   20 1  
    22   19   23 2  
    23   20   21 1  
    24   21   22 2  
    25   22   23 1  
    26    3   24 1  
    27    3   25 1  
    28    5   26 1  
    29    7   27 1  
    30    7   28 1  
    31   13   29 1  
    32   13   30 1  
    33   13   31 1  
    34   14   32 1  
    35   14   33 1  
    36   14   34 1  
    37   15   35 1  
    38   15   36 1  
    39   15   37 1  
    40   20   38 1  
    41   21   39 1  
    42   22   40 1  
    43   23   41 1  
@<TRIPOS>SUBSTRUCTURE
     1 D41         1

