### 
### Created by X-TOOL on Mon Sep 10 21:13:25 2018
### 

@<TRIPOS>MOLECULE
4ucr_ligand
   25    26     1     0     0
SMALL
GAST_HUCK


@<TRIPOS>ATOM
      1 O1         17.3440   94.6070   14.9730 O.2       1 JCF        -0.3851
      2 C10        18.5110   94.9750   15.1550 C.2       1 JCF         0.1994
      3 N1         19.1110   94.8600   16.3280 N.am      1 JCF        -0.3003
      4 C6         19.2780   95.6120   14.0190 C.ar      1 JCF         0.0401
      5 C5         20.6460   95.7470   14.0570 C.ar      1 JCF        -0.0420
      6 C7         18.5520   96.1030   12.9310 C.ar      1 JCF        -0.0137
      7 C8         19.1930   96.7450   11.8980 C.ar      1 JCF         0.1140
      8 O          18.4840   97.1600   10.8220 O.3       1 JCF        -0.3278
      9 C9         20.6060   96.9100   11.9220 C.ar      1 JCF         0.0747
     10 C4         21.3360   96.4130   13.0260 C.ar      1 JCF         0.0005
     11 C3         22.7390   96.5610   12.9880 C.ar      1 JCF        -0.0399
     12 C2         23.3320   97.1720   11.9240 C.ar      1 JCF        -0.0293
     13 N          21.2200   97.5130   10.8440 N.ar      1 JCF        -0.2974
     14 C1         22.5440   97.6350   10.8540 C.ar      1 JCF         0.0235
     15 C          23.1700   98.3610    9.7000 C.3       1 JCF        -0.0143
     16 H1         20.0558   95.1683   16.4387 H         1 JCF         0.1808
     17 H2         18.6198   94.4648   17.1042 H         1 JCF         0.1808
     18 H3         21.2008   95.3350   14.8922 H         1 JCF         0.0590
     19 H4         17.4758   95.9769   12.9011 H         1 JCF         0.0559
     20 H5         18.0699   96.4113   10.4091 H         1 JCF         0.2507
     21 H6         23.3453   96.1884   13.8057 H         1 JCF         0.0752
     22 H7         24.4081   97.3010   11.9019 H         1 JCF         0.0661
     23 H8         22.3907   98.6373    8.9745 H         1 JCF         0.0430
     24 H9         23.9091   97.7077    9.2132 H         1 JCF         0.0430
     25 H10        23.6691   99.2703   10.0661 H         1 JCF         0.0430
@<TRIPOS>BOND
     1    1    2 2  
     2    2    3 am 
     3    2    4 1  
     4    4    5 ar 
     5    4    6 ar 
     6    5   10 ar 
     7    6    7 ar 
     8    7    8 1  
     9    7    9 ar 
    10    9   10 ar 
    11    9   13 ar 
    12   10   11 ar 
    13   11   12 ar 
    14   12   14 ar 
    15   13   14 ar 
    16   14   15 1  
    17    3   16 1  
    18    3   17 1  
    19    5   18 1  
    20    6   19 1  
    21    8   20 1  
    22   11   21 1  
    23   12   22 1  
    24   15   23 1  
    25   15   24 1  
    26   15   25 1  
@<TRIPOS>SUBSTRUCTURE
     1 JCF         1

