### 
### Created by X-TOOL on Mon Sep 10 21:13:23 2018
### 

@<TRIPOS>MOLECULE
4ucs_ligand
   21    22     1     0     0
SMALL
GAST_HUCK


@<TRIPOS>ATOM
      1 C          18.1970   94.0110   14.4650 C.2       1 9MJ         0.3543
      2 N          19.0990   93.8310   15.4280 N.am      1 9MJ        -0.2698
      3 O          17.0210   93.5820   14.4980 O.2       1 9MJ        -0.3661
      4 C1         19.9300   95.7290   12.0180 C.2       1 9MJ         0.1023
      5 N1         18.6590   94.6840   13.3370 N.am      1 9MJ        -0.0517
      6 O1         21.0120   96.9220   10.2270 O.3       1 9MJ        -0.2629
      7 C2         17.9360   95.0350   12.2100 C.2       1 9MJ         0.2616
      8 N2         19.9510   95.1450   13.2090 N.2       1 9MJ        -0.1782
      9 C3         21.1170   96.3460   11.4610 C.2       1 9MJ         0.1293
     10 N3         18.7270   95.6750   11.3380 N.2       1 9MJ        -0.2897
     11 C4         22.2620   97.4130    9.9230 C.2       1 9MJ         0.0793
     12 N4         16.6480   94.7550   12.0350 N.pl3     1 9MJ        -0.2877
     13 C5         23.1070   97.1820   10.9160 C.2       1 9MJ        -0.0636
     14 C6         22.3830   96.4580   11.9160 C.2       1 9MJ        -0.0573
     15 H1         20.0204   94.2061   15.3265 H         1 9MJ         0.1835
     16 H2         18.8549   93.3207   16.2527 H         1 9MJ         0.1835
     17 H3         22.5199   97.9208    8.9948 H         1 9MJ         0.0983
     18 H4         16.1705   95.0464   11.1701 H         1 9MJ         0.1820
     19 H5         16.1277   94.2467   12.7643 H         1 9MJ         0.1820
     20 H6         24.1520   97.4847   10.9628 H         1 9MJ         0.0349
     21 H7         22.7752   96.0740   12.8565 H         1 9MJ         0.0360
@<TRIPOS>BOND
     1    1    2 am 
     2    1    3 2  
     3    5    1 am 
     4    8    4 2  
     5    4    9 1  
     6    4   10 1  
     7    5    7 1  
     8    5    8 1  
     9    9    6 1  
    10    6   11 1  
    11    7   10 2  
    12    7   12 1  
    13    9   14 2  
    14   11   13 2  
    15   13   14 1  
    16    2   15 1  
    17    2   16 1  
    18   11   17 1  
    19   12   18 1  
    20   12   19 1  
    21   13   20 1  
    22   14   21 1  
@<TRIPOS>SUBSTRUCTURE
     1 9MJ         1

