### 
### Created by X-TOOL on Mon Sep 10 21:13:23 2018
### 

@<TRIPOS>MOLECULE
4uct_ligand
   28    29     1     0     0
SMALL
GAST_HUCK


@<TRIPOS>ATOM
      1 N3        112.2840   87.3200   26.4630 N.pl3     1 5U1        -0.3232
      2 C4        112.0320   88.6310   26.4420 C.2       1 5U1         0.1340
      3 N2        112.2620   89.4730   27.4130 N.2       1 5U1        -0.1897
      4 N         111.8400   90.7110   26.9450 N.pl3     1 5U1        -0.1393
      5 C2        111.8510   91.9210   27.5480 C.2       1 5U1         0.1081
      6 N1        111.5040   89.2540   25.3540 N.2       1 5U1        -0.2898
      7 C3        111.3440   90.5820   25.6320 C.2       1 5U1         0.2055
      8 N4        110.8620   91.5890   24.9130 N.2       1 5U1        -0.2392
      9 C5        110.8840   92.7730   25.5130 C.2       1 5U1         0.1755
     10 C1        111.3810   93.0000   26.8170 C.2       1 5U1         0.0560
     11 C         111.3600   94.3550   27.4760 C.3       1 5U1        -0.0267
     12 O         110.4070   93.8600   24.8690 O.3       1 5U1        -0.2855
     13 C6        109.8250   93.8770   23.5220 C.3       1 5U1         0.0836
     14 C8        109.5490   95.3210   23.2450 C.3       1 5U1        -0.0334
     15 C7        108.5460   93.0490   23.4480 C.3       1 5U1        -0.0334
     16 H1        112.6844   86.8860   27.3069 H         1 5U1         0.1739
     17 H2        112.0780   86.7427   25.6353 H         1 5U1         0.1739
     18 H3        112.2147   92.0426   28.5673 H         1 5U1         0.1230
     19 H4        111.7983   94.2802   28.4821 H         1 5U1         0.0352
     20 H5        110.3214   94.7088   27.5539 H         1 5U1         0.0352
     21 H6        111.9450   95.0651   26.8731 H         1 5U1         0.0352
     22 H7        110.5473   93.4810   22.7930 H         1 5U1         0.0657
     23 H8        109.1064   95.4241   22.2433 H         1 5U1         0.0259
     24 H9        110.4896   95.8894   23.2904 H         1 5U1         0.0259
     25 H10       108.8480   95.7113   23.9975 H         1 5U1         0.0259
     26 H11       108.1429   93.0877   22.4253 H         1 5U1         0.0259
     27 H12       107.8040   93.4568   24.1502 H         1 5U1         0.0259
     28 H13       108.7688   92.0054   23.7150 H         1 5U1         0.0259
@<TRIPOS>BOND
     1    1    2 1  
     2    2    3 2  
     3    2    6 1  
     4    3    4 1  
     5    4    5 1  
     6    4    7 1  
     7    5   10 2  
     8    6    7 2  
     9    7    8 1  
    10    8    9 2  
    11    9   10 1  
    12    9   12 1  
    13   10   11 1  
    14   12   13 1  
    15   13   14 1  
    16   13   15 1  
    17    1   16 1  
    18    1   17 1  
    19    5   18 1  
    20   11   19 1  
    21   11   20 1  
    22   11   21 1  
    23   13   22 1  
    24   14   23 1  
    25   14   24 1  
    26   14   25 1  
    27   15   26 1  
    28   15   27 1  
    29   15   28 1  
@<TRIPOS>SUBSTRUCTURE
     1 5U1         1

