### 
### Created by X-TOOL on Mon Sep 10 21:13:25 2018
### 

@<TRIPOS>MOLECULE
4ucu_ligand
   20    21     1     0     0
SMALL
GAST_HUCK


@<TRIPOS>ATOM
      1 O01       110.7380   96.0760   22.8540 O.co2     1 8HC        -0.5566
      2 C02       111.0010   94.8990   23.1150 C.2       1 8HC         0.0817
      3 O03       110.8690   93.9270   22.2560 O.co2     1 8HC        -0.5566
      4 C04       111.5030   94.4670   24.4680 C.ar      1 8HC         0.0802
      5 N05       111.7460   93.1740   24.6170 N.ar      1 8HC        -0.2783
      6 C06       112.2060   92.7420   25.8320 C.ar      1 8HC         0.0864
      7 C07       112.4020   93.6190   26.9270 C.ar      1 8HC         0.0008
      8 C08       112.8500   93.0730   28.1570 C.ar      1 8HC        -0.0596
      9 C09       113.0910   91.7320   28.2800 C.ar      1 8HC        -0.0685
     10 C10       112.9080   90.8720   27.2070 C.ar      1 8HC        -0.0280
     11 C11       112.4600   91.3530   25.9960 C.ar      1 8HC         0.1172
     12 O12       112.2330   90.5160   24.9510 O.3       1 8HC        -0.3256
     13 C13       112.1220   94.9860   26.7000 C.ar      1 8HC        -0.0370
     14 C14       111.6830   95.4100   25.4810 C.ar      1 8HC        -0.0213
     15 H1        113.0031   93.7255   29.0090 H         1 8HC         0.0524
     16 H2        113.4301   91.3355   29.2302 H         1 8HC         0.0611
     17 H3        113.1188   89.8149   27.3220 H         1 8HC         0.0535
     18 H4        111.9304   91.0188   24.2039 H         1 8HC         0.2521
     19 H5        112.2575   95.7029   27.5018 H         1 8HC         0.0748
     20 H6        111.4777   96.4592   25.3020 H         1 8HC         0.0713
@<TRIPOS>BOND
     1    1    2 ar 
     2    2    3 ar 
     3    2    4 1  
     4    4    5 ar 
     5    4   14 ar 
     6    5    6 ar 
     7    6    7 ar 
     8    6   11 ar 
     9    7    8 ar 
    10    7   13 ar 
    11    8    9 ar 
    12    9   10 ar 
    13   10   11 ar 
    14   11   12 1  
    15   13   14 ar 
    16    8   15 1  
    17    9   16 1  
    18   10   17 1  
    19   12   18 1  
    20   13   19 1  
    21   14   20 1  
@<TRIPOS>SUBSTRUCTURE
     1 8HC         1

