### 
### Created by X-TOOL on Mon Sep 10 21:13:25 2018
### 

@<TRIPOS>MOLECULE
4ucv_ligand
   27    28     1     0     0
SMALL
GAST_HUCK


@<TRIPOS>ATOM
      1 O1        112.0490   89.7050   25.0020 O.3       1 I6G        -0.3361
      2 C4        112.3290   90.6750   25.9090 C.ar      1 I6G         0.1018
      3 C3        113.0280   90.3760   27.0610 C.ar      1 I6G        -0.0408
      4 C2        113.3390   91.3650   27.9840 C.ar      1 I6G        -0.0406
      5 C5        111.9720   92.0220   25.6270 C.ar      1 I6G         0.0860
      6 C10       112.2510   93.0120   26.5700 C.ar      1 I6G         0.0862
      7 C1        112.9240   92.6650   27.7800 C.ar      1 I6G         0.1050
      8 O         113.2400   93.7200   28.5880 O.3       1 I6G        -0.3241
      9 C         114.4100   93.6200   29.4030 C.3       1 I6G         0.0582
     10 N1        111.8550   94.3040   26.3590 N.ar      1 I6G        -0.2826
     11 C8        111.1840   94.5780   25.2570 C.ar      1 I6G         0.0558
     12 C9        110.7640   96.0010   25.0460 C.3       1 I6G        -0.0098
     13 C6        110.8650   93.5390   24.3040 C.ar      1 I6G         0.0558
     14 N         111.2390   92.2910   24.5130 N.ar      1 I6G        -0.2826
     15 C7        110.0860   93.8190   23.0550 C.3       1 I6G        -0.0098
     16 H1        111.5661   90.0819   24.2758 H         1 I6G         0.2467
     17 H2        113.3385   89.3543   27.2476 H         1 I6G         0.0498
     18 H3        113.9111   91.1146   28.8700 H         1 I6G         0.0499
     19 H4        114.5271   94.5422   29.9911 H         1 I6G         0.0576
     20 H5        115.2926   93.4795   28.7618 H         1 I6G         0.0576
     21 H6        114.3106   92.7614   30.0834 H         1 I6G         0.0576
     22 H7        110.2175   96.0848   24.0951 H         1 I6G         0.0431
     23 H8        111.6549   96.6455   25.0149 H         1 I6G         0.0431
     24 H9        110.1114   96.3172   25.8731 H         1 I6G         0.0431
     25 H10       109.9625   92.8874   22.4834 H         1 I6G         0.0431
     26 H11       110.6269   94.5557   22.4429 H         1 I6G         0.0431
     27 H12       109.0968   94.2194   23.3218 H         1 I6G         0.0431
@<TRIPOS>BOND
     1    1    2 1  
     2    2    3 ar 
     3    2    5 ar 
     4    3    4 ar 
     5    4    7 ar 
     6    5    6 ar 
     7    5   14 ar 
     8    6    7 ar 
     9    6   10 ar 
    10    7    8 1  
    11    8    9 1  
    12   10   11 ar 
    13   11   12 1  
    14   11   13 ar 
    15   13   14 ar 
    16   13   15 1  
    17    1   16 1  
    18    3   17 1  
    19    4   18 1  
    20    9   19 1  
    21    9   20 1  
    22    9   21 1  
    23   12   22 1  
    24   12   23 1  
    25   12   24 1  
    26   15   25 1  
    27   15   26 1  
    28   15   27 1  
@<TRIPOS>SUBSTRUCTURE
     1 I6G         1

