### 
### Created by X-TOOL on Mon Sep 10 21:13:23 2018
### 

@<TRIPOS>MOLECULE
4uda_ligand
   57    60     1     0     0
SMALL
GAST_HUCK


@<TRIPOS>ATOM
      1 C1          0.0550  -15.1190    1.3980 C.2       1 DEX        -0.0937
      2 C2          1.3910  -15.0480    1.4260 C.2       1 DEX         0.0360
      3 C3          2.0620  -14.2380    0.3930 C.2       1 DEX         0.2468
      4 C4          1.2600  -13.6140   -0.6960 C.2       1 DEX         0.0346
      5 C5         -0.0810  -13.7380   -0.6850 C.2       1 DEX        -0.0755
      6 C6         -0.8820  -13.1230   -1.8080 C.3       1 DEX        -0.0268
      7 C7         -1.9490  -14.0680   -2.3530 C.3       1 DEX        -0.0384
      8 C8         -2.7230  -14.7540   -1.2310 C.3       1 DEX        -0.0131
      9 C9         -1.7740  -15.4790   -0.2500 C.3       1 DEX         0.1042
     10 C10        -0.8450  -14.4320    0.4170 C.3       1 DEX        -0.0156
     11 C11        -2.4870  -16.4490    0.7260 C.3       1 DEX         0.0761
     12 C12        -3.5790  -17.2960    0.0870 C.3       1 DEX        -0.0180
     13 C13        -4.5930  -16.4490   -0.6860 C.3       1 DEX         0.0079
     14 C14        -3.8270  -15.6750   -1.7510 C.3       1 DEX        -0.0292
     15 C15        -4.8850  -15.1310   -2.6830 C.3       1 DEX        -0.0453
     16 C16        -5.9860  -16.1730   -2.6330 C.3       1 DEX        -0.0088
     17 C17        -5.5800  -17.2240   -1.5750 C.3       1 DEX         0.1387
     18 C18        -5.3700  -15.5430    0.2890 C.3       1 DEX        -0.0576
     19 C19        -1.5430  -13.3330    1.2290 C.3       1 DEX        -0.1015
     20 C20        -6.7370  -17.8250   -0.7750 C.2       1 DEX         0.1842
     21 C21        -6.5220  -19.1180   -0.0200 C.3       1 DEX         0.1213
     22 C22        -6.2540  -16.6660   -4.0430 C.3       1 DEX        -0.0608
     23 F1         -1.0010  -16.3300   -1.0110 F         1 DEX        -0.2564
     24 O1          3.2810  -14.1310    0.4280 O.2       1 DEX        -0.2667
     25 O2         -3.0270  -15.8010    1.8720 O.3       1 DEX        -0.3901
     26 O3         -4.9430  -18.3420   -2.2100 O.3       1 DEX        -0.3849
     27 O4         -7.8390  -17.3050   -0.7130 O.2       1 DEX        -0.3272
     28 O5         -7.6110  -19.2500    0.8890 O.3       1 DEX        -0.3762
     29 H1         -0.4227  -15.7337    2.1595 H         1 DEX         0.0522
     30 H2          1.9650  -15.5725    2.1885 H         1 DEX         0.1206
     31 H3          1.7538  -13.0621   -1.4944 H         1 DEX         0.1051
     32 H4         -0.1959  -12.8571   -2.6257 H         1 DEX         0.0436
     33 H5         -1.3748  -12.2141   -1.4326 H         1 DEX         0.0436
     34 H6         -1.4622  -14.8364   -2.9715 H         1 DEX         0.0293
     35 H7         -2.6533  -13.4918   -2.9710 H         1 DEX         0.0293
     36 H8         -3.2227  -13.9578   -0.6598 H         1 DEX         0.0322
     37 H9         -1.7118  -17.1433    1.0825 H         1 DEX         0.0610
     38 H10        -4.1084  -17.8467    0.8785 H         1 DEX         0.0295
     39 H11        -3.1122  -18.0101   -0.6073 H         1 DEX         0.0295
     40 H12        -3.2777  -16.4242   -2.3401 H         1 DEX         0.0308
     41 H13        -4.4907  -15.0271   -3.7046 H         1 DEX         0.0270
     42 H14        -5.2528  -14.1559   -2.3310 H         1 DEX         0.0270
     43 H15        -6.9123  -15.6970   -2.2789 H         1 DEX         0.0311
     44 H16        -4.6595  -14.9913    0.9221 H         1 DEX         0.0234
     45 H17        -6.0226  -16.1612    0.9230 H         1 DEX         0.0234
     46 H18        -5.9824  -14.8298   -0.2822 H         1 DEX         0.0234
     47 H19        -0.7880  -12.6538    1.6515 H         1 DEX         0.0057
     48 H20        -2.1215  -13.7911    2.0448 H         1 DEX         0.0057
     49 H21        -2.2199  -12.7662    0.5729 H         1 DEX         0.0057
     50 H22        -5.5709  -19.0809    0.5314 H         1 DEX         0.0785
     51 H23        -6.5075  -19.9669   -0.7193 H         1 DEX         0.0785
     52 H24        -6.5306  -15.8149   -4.6826 H         1 DEX         0.0232
     53 H25        -7.0777  -17.3949   -4.0263 H         1 DEX         0.0232
     54 H26        -5.3481  -17.1455   -4.4422 H         1 DEX         0.0232
     55 H27        -3.3327  -16.4549    2.4895 H         1 DEX         0.2098
     56 H28        -4.6978  -18.9813   -1.5515 H         1 DEX         0.2077
     57 H29        -8.4267  -19.2745    0.4027 H         1 DEX         0.2129
@<TRIPOS>BOND
     1    1    2 2  
     2    1   10 1  
     3    2    3 1  
     4    3    4 1  
     5    3   24 2  
     6    4    5 2  
     7    5    6 1  
     8    5   10 1  
     9    6    7 1  
    10    7    8 1  
    11    8    9 1  
    12    8   14 1  
    13    9   10 1  
    14    9   11 1  
    15    9   23 1  
    16   10   19 1  
    17   11   12 1  
    18   11   25 1  
    19   12   13 1  
    20   13   14 1  
    21   13   17 1  
    22   13   18 1  
    23   14   15 1  
    24   15   16 1  
    25   16   17 1  
    26   16   22 1  
    27   17   20 1  
    28   17   26 1  
    29   20   21 1  
    30   20   27 2  
    31   21   28 1  
    32    1   29 1  
    33    2   30 1  
    34    4   31 1  
    35    6   32 1  
    36    6   33 1  
    37    7   34 1  
    38    7   35 1  
    39    8   36 1  
    40   11   37 1  
    41   12   38 1  
    42   12   39 1  
    43   14   40 1  
    44   15   41 1  
    45   15   42 1  
    46   16   43 1  
    47   18   44 1  
    48   18   45 1  
    49   18   46 1  
    50   19   47 1  
    51   19   48 1  
    52   19   49 1  
    53   21   50 1  
    54   21   51 1  
    55   22   52 1  
    56   22   53 1  
    57   22   54 1  
    58   25   55 1  
    59   26   56 1  
    60   28   57 1  
@<TRIPOS>SUBSTRUCTURE
     1 DEX         1

