### 
### Created by X-TOOL on Mon Sep 10 21:13:23 2018
### 

@<TRIPOS>MOLECULE
4udb_ligand
   72    77     1     0     0
SMALL
GAST_HUCK


@<TRIPOS>ATOM
      1 C1        -25.7680    1.4550    1.4950 C.3       1 CV7        -0.0576
      2 C2        -27.1310    1.5260    2.2100 C.3       1 CV7         0.0103
      3 C3        -28.2830    1.7540    1.2250 C.3       1 CV7        -0.0206
      4 C4        -28.2380    3.1190    0.5490 C.3       1 CV7         0.0458
      5 C6        -28.1190    4.3110    1.5230 C.3       1 CV7        -0.0508
      6 C8        -27.1220    4.0770    2.6920 C.3       1 CV7        -0.0438
      7 C10       -27.2150    2.6480    3.2410 C.3       1 CV7        -0.0296
      8 C12       -26.3440    2.1580    4.3820 C.3       1 CV7        -0.0213
      9 C13       -26.5520    0.6450    4.3840 C.3       1 CV7         0.0969
     10 C15       -27.3040    0.2860    3.1070 C.3       1 CV7         0.1680
     11 O16       -28.6720    0.0860    3.5160 O.3       1 CV7        -0.3387
     12 C17       -28.6310   -0.2130    4.9070 C.3       1 CV7         0.1617
     13 O19       -27.4210    0.2950    5.4560 O.3       1 CV7        -0.3464
     14 C20       -29.7380    0.4350    5.6980 C.3       1 CV7         0.0100
     15 C21       -30.7070    1.2700    4.8990 C.3       1 CV7        -0.0456
     16 C22       -31.6900    1.9710    5.8180 C.3       1 CV7        -0.0526
     17 C23       -32.3910    1.0030    6.7450 C.3       1 CV7        -0.0530
     18 C24       -31.4090    0.1060    7.4750 C.3       1 CV7        -0.0526
     19 C25       -30.4870   -0.6020    6.5010 C.3       1 CV7        -0.0456
     20 C26       -26.8080   -1.0270    2.5000 C.2       1 CV7         0.1868
     21 O27       -25.7210   -1.4950    2.8020 O.2       1 CV7        -0.3271
     22 C28       -27.6940   -1.7740    1.5230 C.3       1 CV7         0.1214
     23 O29       -26.8740   -2.6100    0.7060 O.3       1 CV7        -0.3762
     24 C30       -27.3850    5.1320    3.7740 C.3       1 CV7        -0.0409
     25 C31       -27.2790    6.5600    3.2370 C.3       1 CV7        -0.0270
     26 C32       -28.0800    6.7080    1.9790 C.2       1 CV7        -0.0781
     27 C33       -28.9730    7.7010    1.8980 C.2       1 CV7         0.0345
     28 C34       -29.8050    7.8390    0.6680 C.2       1 CV7         0.2468
     29 O35       -30.5930    8.7610    0.5510 O.2       1 CV7        -0.2667
     30 C36       -29.7120    6.8360   -0.4170 C.2       1 CV7         0.0360
     31 C37       -28.8050    5.8650   -0.2690 C.2       1 CV7        -0.0963
     32 C38       -27.8590    5.6950    0.8830 C.3       1 CV7        -0.0463
     33 C39       -26.4550    5.9080    0.2970 C.3       1 CV7        -0.1040
     34 O40       -27.2200    3.0930   -0.4550 O.3       1 CV7        -0.3929
     35 H1        -25.6436    2.3403    0.8541 H         1 CV7         0.0234
     36 H2        -25.7250    0.5460    0.8770 H         1 CV7         0.0234
     37 H3        -24.9623    1.4281    2.2434 H         1 CV7         0.0234
     38 H4        -29.2329    1.6671    1.7728 H         1 CV7         0.0294
     39 H5        -28.2359    0.9777    0.4471 H         1 CV7         0.0294
     40 H6        -29.1989    3.2500    0.0299 H         1 CV7         0.0582
     41 H7        -29.1129    4.3875    1.9881 H         1 CV7         0.0155
     42 H8        -26.1005    4.2215    2.3105 H         1 CV7         0.0295
     43 H9        -28.2396    2.6151    3.6399 H         1 CV7         0.0308
     44 H10       -26.6670    2.5981    5.3370 H         1 CV7         0.0292
     45 H11       -25.2878    2.4069    4.2021 H         1 CV7         0.0292
     46 H12       -25.5917    0.1134    4.4553 H         1 CV7         0.0610
     47 H13       -28.6808   -1.3043    5.0353 H         1 CV7         0.0911
     48 H14       -29.2521    1.1177    6.4107 H         1 CV7         0.0350
     49 H15       -31.2605    0.6186    4.2067 H         1 CV7         0.0270
     50 H16       -30.1476    2.0236    4.3253 H         1 CV7         0.0270
     51 H17       -32.4449    2.4846    5.2046 H         1 CV7         0.0265
     52 H18       -31.1447    2.7101    6.4233 H         1 CV7         0.0265
     53 H19       -33.0737    0.3754    6.1534 H         1 CV7         0.0265
     54 H20       -32.9684    1.5752    7.4861 H         1 CV7         0.0265
     55 H21       -31.9688   -0.6458    8.0507 H         1 CV7         0.0265
     56 H22       -30.8050    0.7180    8.1610 H         1 CV7         0.0265
     57 H23       -29.7720   -1.2267    7.0564 H         1 CV7         0.0270
     58 H24       -31.0798   -1.2357    5.8250 H         1 CV7         0.0270
     59 H25       -28.2353   -1.0551    0.8904 H         1 CV7         0.0785
     60 H26       -28.4163   -2.3919    2.0766 H         1 CV7         0.0785
     61 H27       -26.4070   -3.2281    1.2558 H         1 CV7         0.2129
     62 H28       -26.6475    5.0025    4.5798 H         1 CV7         0.0292
     63 H29       -28.3977    4.9805    4.1759 H         1 CV7         0.0292
     64 H30       -26.2245    6.7894    3.0239 H         1 CV7         0.0435
     65 H31       -27.6610    7.2608    3.9939 H         1 CV7         0.0435
     66 H32       -29.0913    8.4022    2.7228 H         1 CV7         0.1051
     67 H33       -30.3533    6.8868   -1.2957 H         1 CV7         0.1206
     68 H34       -28.7471    5.1232   -1.0642 H         1 CV7         0.0521
     69 H35       -26.3848    6.9201   -0.1281 H         1 CV7         0.0056
     70 H36       -26.2707    5.1650   -0.4929 H         1 CV7         0.0056
     71 H37       -25.7041    5.7916    1.0924 H         1 CV7         0.0056
     72 H38       -27.3509    2.3388   -1.0177 H         1 CV7         0.2097
@<TRIPOS>BOND
     1    1    2 1  
     2    2    3 1  
     3    2    7 1  
     4    2   10 1  
     5    3    4 1  
     6    4    5 1  
     7    4   34 1  
     8    5    6 1  
     9    5   32 1  
    10    6    7 1  
    11    6   24 1  
    12    7    8 1  
    13    8    9 1  
    14    9   10 1  
    15    9   13 1  
    16   10   11 1  
    17   10   20 1  
    18   11   12 1  
    19   12   13 1  
    20   12   14 1  
    21   14   15 1  
    22   14   19 1  
    23   15   16 1  
    24   16   17 1  
    25   17   18 1  
    26   18   19 1  
    27   20   21 2  
    28   20   22 1  
    29   22   23 1  
    30   24   25 1  
    31   25   26 1  
    32   26   27 2  
    33   26   32 1  
    34   27   28 1  
    35   28   29 2  
    36   28   30 1  
    37   30   31 2  
    38   31   32 1  
    39   32   33 1  
    40    1   35 1  
    41    1   36 1  
    42    1   37 1  
    43    3   38 1  
    44    3   39 1  
    45    4   40 1  
    46    5   41 1  
    47    6   42 1  
    48    7   43 1  
    49    8   44 1  
    50    8   45 1  
    51    9   46 1  
    52   12   47 1  
    53   14   48 1  
    54   15   49 1  
    55   15   50 1  
    56   16   51 1  
    57   16   52 1  
    58   17   53 1  
    59   17   54 1  
    60   18   55 1  
    61   18   56 1  
    62   19   57 1  
    63   19   58 1  
    64   22   59 1  
    65   22   60 1  
    66   23   61 1  
    67   24   62 1  
    68   24   63 1  
    69   25   64 1  
    70   25   65 1  
    71   27   66 1  
    72   30   67 1  
    73   31   68 1  
    74   33   69 1  
    75   33   70 1  
    76   33   71 1  
    77   34   72 1  
@<TRIPOS>SUBSTRUCTURE
     1 CV7         1

