### 
### Created by X-TOOL on Mon Sep 10 21:13:25 2018
### 

@<TRIPOS>MOLECULE
4ufd_ligand
   73    76     1     0     0
SMALL
GAST_HUCK


@<TRIPOS>ATOM
      1 C7         14.9350  -15.2980   21.3710 C.3       1 S49         0.1181
      2 S8         15.6010  -16.6010   22.1940 S.o2      1 S49         0.0512
      3 C4         13.9310  -15.7110   20.3170 C.ar      1 S49        -0.0204
      4 C5         14.3520  -16.1100   19.0500 C.ar      1 S49        -0.0587
      5 C6         13.4130  -16.4900   18.0910 C.ar      1 S49        -0.0685
      6 C1         12.0560  -16.4650   18.3960 C.ar      1 S49        -0.0687
      7 C2         11.6380  -16.0590   19.6600 C.ar      1 S49        -0.0685
      8 C3         12.5720  -15.6780   20.6190 C.ar      1 S49        -0.0587
      9 O12        16.4820  -17.3380   21.3400 O.2       1 S49        -0.1532
     10 O13        14.5240  -17.3680   22.7490 O.2       1 S49        -0.1532
     11 N21        18.5840  -13.7780   21.7470 N.am      1 S49        -0.2500
     12 C22        18.5100  -12.4580   21.1150 C.3       1 S49         0.1338
     13 C26        17.2190  -12.2760   20.3710 C.2       1 S49         0.2037
     14 O30        16.7460  -13.1930   19.7120 O.2       1 S49        -0.3944
     15 C23        19.6630  -12.4160   20.1220 C.3       1 S49        -0.0104
     16 C24        20.5040  -13.6510   20.3680 C.3       1 S49        -0.0281
     17 C25        19.6600  -14.6080   21.1940 C.3       1 S49         0.0369
     18 N9         16.4370  -16.0370   23.4480 N.am      1 S49        -0.2261
     19 C10        17.7640  -15.4560   23.3260 C.3       1 S49         0.1357
     20 C11        17.6920  -14.0980   22.6830 C.2       1 S49         0.2045
     21 O31        16.8280  -13.3070   23.0510 O.2       1 S49        -0.3945
     22 C14        18.3530  -15.3500   24.7380 C.3       1 S49         0.0179
     23 C15        19.7600  -14.7830   24.7630 C.ar      1 S49        -0.0390
     24 C16        19.9740  -13.5190   25.3010 C.ar      1 S49        -0.0601
     25 C20        20.8420  -15.5100   24.2660 C.ar      1 S49        -0.0601
     26 C17        21.2540  -12.9800   25.3350 C.ar      1 S49        -0.0686
     27 C19        22.1250  -14.9660   24.3080 C.ar      1 S49        -0.0686
     28 C18        22.3380  -13.7000   24.8400 C.ar      1 S49        -0.0687
     29 N27        16.6100  -11.0980   20.4800 N.am      1 S49        -0.2737
     30 C28        15.3510  -10.7700   19.8290 C.3       1 S49         0.0645
     31 C29        14.2450  -10.7760   20.8570 C.ar      1 S49        -0.0210
     32 C33        13.9140   -9.6190   21.5460 C.ar      1 S49        -0.0584
     33 C34        12.9020   -9.6430   22.4940 C.ar      1 S49        -0.0633
     34 C35        12.2200  -10.8150   22.7650 C.ar      1 S49         0.0188
     35 C37        11.1280  -10.8130   23.7910 C.cat     1 S49         0.2318
     36 N39        10.5020  -11.8840   24.0710 N.pl3     1 S49        -0.2729
     37 N38        10.8290   -9.7310   24.3740 N.pl3     1 S49        -0.2729
     38 C36        12.5510  -11.9750   22.0750 C.ar      1 S49        -0.0633
     39 C32        13.5610  -11.9500   21.1270 C.ar      1 S49        -0.0584
     40 H1         15.7474  -14.7412   20.8812 H         1 S49         0.0682
     41 H2         14.4301  -14.6456   22.0986 H         1 S49         0.0682
     42 H3         15.4089  -16.1251   18.8097 H         1 S49         0.0557
     43 H4         13.7411  -16.8051   17.1071 H         1 S49         0.0599
     44 H5         11.3261  -16.7609   17.6512 H         1 S49         0.0559
     45 H6         10.5807  -16.0395   19.8985 H         1 S49         0.0599
     46 H7         12.2419  -15.3559   21.6000 H         1 S49         0.0557
     47 H8         18.6158  -11.6661   21.8711 H         1 S49         0.0802
     48 H9         20.2663  -11.5102   20.2816 H         1 S49         0.0313
     49 H10        19.2755  -12.4218   19.0926 H         1 S49         0.0313
     50 H11        21.4176  -13.3821   20.9185 H         1 S49         0.0287
     51 H12        20.7770  -14.1187   19.4105 H         1 S49         0.0287
     52 H13        19.2467  -15.4061   20.5598 H         1 S49         0.0524
     53 H14        20.2589  -15.0544   22.0015 H         1 S49         0.0524
     54 H15        16.0229  -16.0888   24.3568 H         1 S49         0.1705
     55 H16        18.3977  -16.1107   22.7097 H         1 S49         0.0777
     56 H17        18.3744  -16.3556   25.1833 H         1 S49         0.0469
     57 H18        17.7032  -14.6967   25.3387 H         1 S49         0.0469
     58 H19        19.1388  -12.9518   25.6955 H         1 S49         0.0557
     59 H20        20.6852  -16.4975   23.8473 H         1 S49         0.0557
     60 H21        21.4100  -11.9909   25.7503 H         1 S49         0.0599
     61 H22        22.9632  -15.5352   23.9226 H         1 S49         0.0599
     62 H23        23.3361  -13.2781   24.8692 H         1 S49         0.0559
     63 H24        17.0442  -10.3953   21.0437 H         1 S49         0.1878
     64 H25        15.1338  -11.5162   19.0505 H         1 S49         0.0683
     65 H26        15.4224   -9.7724   19.3711 H         1 S49         0.0683
     66 H27        14.4459   -8.6964   21.3438 H         1 S49         0.0557
     67 H28        12.6434   -8.7352   23.0271 H         1 S49         0.0599
     68 H29         9.7528  -11.8728   24.7777 H         1 S49         0.3180
     69 H30        10.7442  -12.7626   23.5910 H         1 S49         0.3180
     70 H31        11.3377   -8.8651   24.1452 H         1 S49         0.3180
     71 H32        10.0768   -9.7158   25.0775 H         1 S49         0.3180
     72 H33        12.0198  -12.8978   22.2782 H         1 S49         0.0599
     73 H34        13.8182  -12.8570   20.5919 H         1 S49         0.0557
@<TRIPOS>BOND
     1    2    1 1  
     2    1    3 1  
     3    2    9 2  
     4    2   10 2  
     5   18    2 am 
     6    3    4 ar 
     7    3    8 ar 
     8    4    5 ar 
     9    5    6 ar 
    10    7    6 ar 
    11    8    7 ar 
    12   11   12 1  
    13   11   17 1  
    14   20   11 am 
    15   12   13 1  
    16   12   15 1  
    17   13   14 2  
    18   13   29 am 
    19   16   15 1  
    20   17   16 1  
    21   19   18 1  
    22   19   20 1  
    23   19   22 1  
    24   20   21 2  
    25   22   23 1  
    26   23   24 ar 
    27   23   25 ar 
    28   24   26 ar 
    29   25   27 ar 
    30   26   28 ar 
    31   27   28 ar 
    32   29   30 1  
    33   30   31 1  
    34   31   32 ar 
    35   31   39 ar 
    36   32   33 ar 
    37   33   34 ar 
    38   34   35 1  
    39   34   38 ar 
    40   35   36 ar 
    41   35   37 ar 
    42   38   39 ar 
    43    1   40 1  
    44    1   41 1  
    45    4   42 1  
    46    5   43 1  
    47    6   44 1  
    48    7   45 1  
    49    8   46 1  
    50   12   47 1  
    51   15   48 1  
    52   15   49 1  
    53   16   50 1  
    54   16   51 1  
    55   17   52 1  
    56   17   53 1  
    57   18   54 1  
    58   19   55 1  
    59   22   56 1  
    60   22   57 1  
    61   24   58 1  
    62   25   59 1  
    63   26   60 1  
    64   27   61 1  
    65   28   62 1  
    66   29   63 1  
    67   30   64 1  
    68   30   65 1  
    69   32   66 1  
    70   33   67 1  
    71   36   68 1  
    72   36   69 1  
    73   37   70 1  
    74   37   71 1  
    75   38   72 1  
    76   39   73 1  
@<TRIPOS>SUBSTRUCTURE
     1 S49         1

