### 
### Created by X-TOOL on Mon Sep 10 21:13:26 2018
### 

@<TRIPOS>MOLECULE
4ufe_ligand
   69    71     1     0     0
SMALL
GAST_HUCK


@<TRIPOS>ATOM
      1 C1         13.7450  -13.4260   21.4760 C.ar      1 3ZD        -0.0584
      2 C2         14.3120  -12.2600   20.9660 C.ar      1 3ZD        -0.0210
      3 C3         15.4280  -12.2810   20.0030 C.3       1 3ZD         0.0645
      4 N1         16.7530  -12.5660   20.7180 N.am      1 3ZD        -0.2737
      5 C4         13.7670  -11.0410   21.4460 C.ar      1 3ZD        -0.0584
      6 C5         12.7450  -11.0950   22.3400 C.ar      1 3ZD        -0.0633
      7 C6         12.1580  -12.2360   22.8550 C.ar      1 3ZD         0.0188
      8 C7         11.0690  -12.1910   23.8120 C.cat     1 3ZD         0.2318
      9 N2         10.7230  -11.0780   24.4150 N.pl3     1 3ZD        -0.2729
     10 C8         12.7080  -13.4480   22.3810 C.ar      1 3ZD        -0.0633
     11 N3         10.3880  -13.3220   24.1160 N.pl3     1 3ZD        -0.2729
     12 C9         17.2960  -13.8400   20.5850 C.2       1 3ZD         0.2032
     13 C10        18.6230  -14.0330   21.3640 C.3       1 3ZD         0.1282
     14 C11        19.9090  -14.1580   20.4710 C.3       1 3ZD        -0.0244
     15 N4         18.6130  -15.3090   22.0610 N.am      1 3ZD        -0.2642
     16 O1         16.7890  -14.7690   19.9240 O.2       1 3ZD        -0.3944
     17 C14        17.6790  -15.5810   22.9730 C.2       1 3ZD         0.2020
     18 C15        17.6730  -16.8990   23.6460 C.3       1 3ZD         0.1355
     19 C16        18.3350  -16.7110   25.0710 C.3       1 3ZD         0.0179
     20 N5         16.3860  -17.4210   23.9560 N.am      1 3ZD        -0.2261
     21 O2         16.7960  -14.7580   23.2610 O.2       1 3ZD        -0.3947
     22 S1         15.6400  -18.2730   22.7650 S.o2      1 3ZD         0.0512
     23 C17        15.1540  -17.0700   21.4380 C.3       1 3ZD         0.1181
     24 O4         16.6850  -19.2470   22.3180 O.2       1 3ZD        -0.1532
     25 O5         14.4090  -18.8470   23.3770 O.2       1 3ZD        -0.1532
     26 C18        11.9070  -18.5630   19.1210 C.ar      1 3ZD        -0.0687
     27 C19        13.2380  -18.8640   18.7930 C.ar      1 3ZD        -0.0685
     28 C20        14.3300  -18.3850   19.5410 C.ar      1 3ZD        -0.0587
     29 C21        14.0690  -17.5790   20.6540 C.ar      1 3ZD        -0.0204
     30 C22        12.7260  -17.2720   20.9850 C.ar      1 3ZD        -0.0587
     31 C23        11.6520  -17.7640   20.2180 C.ar      1 3ZD        -0.0685
     32 C24        22.2360  -14.8690   24.9430 C.ar      1 3ZD        -0.0687
     33 C25        21.1470  -14.2110   25.5580 C.ar      1 3ZD        -0.0686
     34 C26        19.8920  -14.7980   25.6100 C.ar      1 3ZD        -0.0601
     35 C27        19.6740  -16.0700   25.0390 C.ar      1 3ZD        -0.0390
     36 C28        20.7640  -16.7370   24.4190 C.ar      1 3ZD        -0.0601
     37 C29        22.0350  -16.1140   24.3950 C.ar      1 3ZD        -0.0686
     38 H1         14.1455  -14.3753   21.1390 H         1 3ZD         0.0557
     39 H2         15.4909  -11.3041   19.5014 H         1 3ZD         0.0683
     40 H3         15.2450  -13.0663   19.2548 H         1 3ZD         0.0683
     41 H4         17.2108  -11.8617   21.2606 H         1 3ZD         0.1878
     42 H5         14.1571  -10.0881   21.1072 H         1 3ZD         0.0557
     43 H6         12.3495  -10.1464   22.6847 H         1 3ZD         0.0599
     44 H7          9.9449  -11.0783   25.0899 H         1 3ZD         0.3180
     45 H8         11.2295  -10.2041   24.2134 H         1 3ZD         0.3180
     46 H9         12.3133  -14.3953   22.7300 H         1 3ZD         0.0599
     47 H10        10.6363  -14.2112   23.6592 H         1 3ZD         0.3180
     48 H11         9.6219  -13.2927   24.8039 H         1 3ZD         0.3180
     49 H12        18.7359  -13.1978   22.0709 H         1 3ZD         0.0797
     50 H13        20.7909  -14.2910   21.1148 H         1 3ZD         0.0277
     51 H14        20.0283  -13.2445   19.8700 H         1 3ZD         0.0277
     52 H15        19.8085  -15.0260   19.8029 H         1 3ZD         0.0277
     53 H16        19.3148  -15.9906   21.8540 H         1 3ZD         0.1883
     54 H17        18.2324  -17.6196   23.0313 H         1 3ZD         0.0776
     55 H18        18.4378  -17.7019   25.5374 H         1 3ZD         0.0469
     56 H19        17.6675  -16.0856   25.6820 H         1 3ZD         0.0469
     57 H20        15.9592  -17.2774   24.8489 H         1 3ZD         0.1705
     58 H21        16.0183  -16.8903   20.7817 H         1 3ZD         0.0682
     59 H22        14.8460  -16.1235   21.9062 H         1 3ZD         0.0682
     60 H23        11.0914  -18.9519   18.5222 H         1 3ZD         0.0559
     61 H24        13.4327  -19.4900   17.9297 H         1 3ZD         0.0599
     62 H25        15.3473  -18.6344   19.2616 H         1 3ZD         0.0557
     63 H26        12.5210  -16.6459   21.8458 H         1 3ZD         0.0557
     64 H27        10.6314  -17.5169   20.4872 H         1 3ZD         0.0599
     65 H28        23.2127  -14.4004   24.9040 H         1 3ZD         0.0559
     66 H29        21.2954  -13.2308   25.9965 H         1 3ZD         0.0599
     67 H30        19.0731  -14.2766   26.0923 H         1 3ZD         0.0557
     68 H31        20.6241  -17.7131   23.9688 H         1 3ZD         0.0557
     69 H32        22.8691  -16.6304   23.9339 H         1 3ZD         0.0599
@<TRIPOS>BOND
     1    2    1 ar 
     2    1   10 ar 
     3    3    2 1  
     4    2    5 ar 
     5    4    3 1  
     6   12    4 am 
     7    5    6 ar 
     8    6    7 ar 
     9    7    8 1  
    10   10    7 ar 
    11    8    9 ar 
    12    8   11 ar 
    13   13   12 1  
    14   12   16 2  
    15   13   14 1  
    16   15   13 1  
    17   17   15 am 
    18   18   17 1  
    19   17   21 2  
    20   19   18 1  
    21   18   20 1  
    22   35   19 1  
    23   20   22 am 
    24   22   23 1  
    25   22   24 2  
    26   22   25 2  
    27   23   29 1  
    28   27   26 ar 
    29   31   26 ar 
    30   28   27 ar 
    31   29   28 ar 
    32   29   30 ar 
    33   30   31 ar 
    34   33   32 ar 
    35   32   37 ar 
    36   34   33 ar 
    37   34   35 ar 
    38   35   36 ar 
    39   36   37 ar 
    40    1   38 1  
    41    3   39 1  
    42    3   40 1  
    43    4   41 1  
    44    5   42 1  
    45    6   43 1  
    46    9   44 1  
    47    9   45 1  
    48   10   46 1  
    49   11   47 1  
    50   11   48 1  
    51   13   49 1  
    52   14   50 1  
    53   14   51 1  
    54   14   52 1  
    55   15   53 1  
    56   18   54 1  
    57   19   55 1  
    58   19   56 1  
    59   20   57 1  
    60   23   58 1  
    61   23   59 1  
    62   26   60 1  
    63   27   61 1  
    64   28   62 1  
    65   30   63 1  
    66   31   64 1  
    67   32   65 1  
    68   33   66 1  
    69   34   67 1  
    70   36   68 1  
    71   37   69 1  
@<TRIPOS>SUBSTRUCTURE
     1 3ZD         1

