### 
### Created by X-TOOL on Mon Sep 10 21:13:26 2018
### 

@<TRIPOS>MOLECULE
4uff_ligand
   69    71     1     0     0
SMALL
GAST_HUCK


@<TRIPOS>ATOM
      1 O3         60.7020  -10.8340  164.3840 O.2       1 6V2        -0.1532
      2 S          59.7630  -10.0050  165.0800 S.o2      1 6V2         0.0512
      3 O2         58.6490  -10.6100  165.7420 O.2       1 6V2        -0.1532
      4 C20        59.1070   -8.7900  163.9520 C.3       1 6V2         0.1181
      5 C21        58.0140   -9.3510  163.0820 C.ar      1 6V2        -0.0204
      6 C26        58.3140  -10.2000  162.0310 C.ar      1 6V2        -0.0587
      7 C25        57.3070  -10.7210  161.2360 C.ar      1 6V2        -0.0685
      8 C24        55.9910  -10.3990  161.4850 C.ar      1 6V2        -0.0687
      9 C23        55.6820   -9.5540  162.5290 C.ar      1 6V2        -0.0685
     10 C22        56.6880   -9.0320  163.3230 C.ar      1 6V2        -0.0587
     11 N4         60.5930   -9.2020  166.2150 N.am      1 6V2        -0.2261
     12 C12        61.9660   -8.7180  166.1090 C.3       1 6V2         0.1357
     13 C13        62.5450   -8.5320  167.5200 C.3       1 6V2         0.0179
     14 C14        63.9180   -7.9080  167.5240 C.ar      1 6V2        -0.0390
     15 C19        64.1090   -6.6210  167.9980 C.ar      1 6V2        -0.0601
     16 C18        65.3630   -6.0370  167.9760 C.ar      1 6V2        -0.0686
     17 C17        66.4450   -6.7360  167.4870 C.ar      1 6V2        -0.0687
     18 C16        66.2720   -8.0210  167.0240 C.ar      1 6V2        -0.0686
     19 C15        65.0170   -8.6050  167.0420 C.ar      1 6V2        -0.0601
     20 C11        61.8500   -7.3590  165.4160 C.2       1 6V2         0.2041
     21 O1         60.9670   -6.5860  165.7500 O.2       1 6V2        -0.3945
     22 N          62.7460   -7.0130  164.4670 N.am      1 6V2        -0.2558
     23 C          63.8230   -7.8800  164.0040 C.3       1 6V2         0.0252
     24 C1         62.6620   -5.6950  163.8590 C.3       1 6V2         0.1226
     25 C2         61.3770   -5.5420  163.0660 C.2       1 6V2         0.2005
     26 O          60.9090   -6.4780  162.4230 O.2       1 6V2        -0.3947
     27 N1         60.7940   -4.3500  163.1280 N.am      1 6V2        -0.2739
     28 C3         59.5260   -4.1090  162.4550 C.3       1 6V2         0.0645
     29 C4         58.3500   -4.0740  163.4010 C.ar      1 6V2        -0.0210
     30 C9         57.8550   -2.8670  163.8620 C.ar      1 6V2        -0.0584
     31 C8         56.8270   -2.8240  164.7850 C.ar      1 6V2        -0.0633
     32 C7         56.2550   -3.9940  165.2690 C.ar      1 6V2         0.0188
     33 C10        55.1600   -3.9370  166.2600 C.cat     1 6V2         0.2318
     34 N3         54.8170   -2.8600  166.8730 N.pl3     1 6V2        -0.2729
     35 N2         54.4880   -5.0640  166.5210 N.pl3     1 6V2        -0.2729
     36 C6         56.7420   -5.2110  164.7950 C.ar      1 6V2        -0.0633
     37 C5         57.7740   -5.2440  163.8730 C.ar      1 6V2        -0.0584
     38 H1         59.9220   -8.4288  163.3076 H         1 6V2         0.0682
     39 H2         58.7000   -7.9500  164.5340 H         1 6V2         0.0682
     40 H3         59.3468  -10.4595  161.8283 H         1 6V2         0.0557
     41 H4         57.5550  -11.3842  160.4152 H         1 6V2         0.0599
     42 H5         55.2028  -10.8080  160.8633 H         1 6V2         0.0559
     43 H6         54.6479   -9.2975  162.7288 H         1 6V2         0.0599
     44 H7         56.4358   -8.3672  164.1412 H         1 6V2         0.0557
     45 H8         60.1170   -9.0193  167.0753 H         1 6V2         0.1705
     46 H9         62.5912   -9.4105  165.5263 H         1 6V2         0.0777
     47 H10        62.6081   -9.5177  168.0042 H         1 6V2         0.0469
     48 H11        61.8656   -7.8844  168.0936 H         1 6V2         0.0469
     49 H12        63.2659   -6.0644  168.3910 H         1 6V2         0.0557
     50 H13        65.4947   -5.0262  168.3447 H         1 6V2         0.0599
     51 H14        67.4268   -6.2769  167.4669 H         1 6V2         0.0559
     52 H15        67.1213   -8.5773  166.6441 H         1 6V2         0.0599
     53 H16        64.8914   -9.6175  166.6757 H         1 6V2         0.0557
     54 H17        64.4060   -7.3591  163.2302 H         1 6V2         0.0488
     55 H18        63.3961   -8.8021  163.5827 H         1 6V2         0.0488
     56 H19        64.4795   -8.1328  164.8496 H         1 6V2         0.0488
     57 H20        63.5196   -5.5548  163.1846 H         1 6V2         0.0765
     58 H21        62.6892   -4.9315  164.6504 H         1 6V2         0.0765
     59 H22        61.2303   -3.6113  163.6418 H         1 6V2         0.1878
     60 H23        59.3611   -4.9118  161.7213 H         1 6V2         0.0683
     61 H24        59.5847   -3.1421  161.9337 H         1 6V2         0.0683
     62 H25        58.2801   -1.9404  163.4935 H         1 6V2         0.0557
     63 H26        56.4625   -1.8653  165.1357 H         1 6V2         0.0599
     64 H27        54.0451   -2.8790  167.5547 H         1 6V2         0.3180
     65 H28        55.3141   -1.9783  166.6823 H         1 6V2         0.3180
     66 H29        54.7445   -5.9392  166.0423 H         1 6V2         0.3180
     67 H30        53.7141   -5.0565  167.2006 H         1 6V2         0.3180
     68 H31        56.3092   -6.1388  165.1512 H         1 6V2         0.0599
     69 H32        58.1379   -6.1999  163.5141 H         1 6V2         0.0557
@<TRIPOS>BOND
     1    1    2 2  
     2    2    3 2  
     3    2    4 1  
     4    2   11 am 
     5    4    5 1  
     6    5    6 ar 
     7    5   10 ar 
     8    6    7 ar 
     9    7    8 ar 
    10    8    9 ar 
    11    9   10 ar 
    12   11   12 1  
    13   12   13 1  
    14   12   20 1  
    15   13   14 1  
    16   14   15 ar 
    17   14   19 ar 
    18   15   16 ar 
    19   16   17 ar 
    20   17   18 ar 
    21   18   19 ar 
    22   20   21 2  
    23   20   22 am 
    24   22   23 1  
    25   22   24 1  
    26   24   25 1  
    27   25   26 2  
    28   25   27 am 
    29   27   28 1  
    30   28   29 1  
    31   29   30 ar 
    32   29   37 ar 
    33   30   31 ar 
    34   31   32 ar 
    35   32   33 1  
    36   32   36 ar 
    37   33   34 ar 
    38   33   35 ar 
    39   36   37 ar 
    40    4   38 1  
    41    4   39 1  
    42    6   40 1  
    43    7   41 1  
    44    8   42 1  
    45    9   43 1  
    46   10   44 1  
    47   11   45 1  
    48   12   46 1  
    49   13   47 1  
    50   13   48 1  
    51   15   49 1  
    52   16   50 1  
    53   17   51 1  
    54   18   52 1  
    55   19   53 1  
    56   23   54 1  
    57   23   55 1  
    58   23   56 1  
    59   24   57 1  
    60   24   58 1  
    61   27   59 1  
    62   28   60 1  
    63   28   61 1  
    64   30   62 1  
    65   31   63 1  
    66   34   64 1  
    67   34   65 1  
    68   35   66 1  
    69   35   67 1  
    70   36   68 1  
    71   37   69 1  
@<TRIPOS>SUBSTRUCTURE
     1 6V2         1

