### 
### Created by X-TOOL on Mon Sep 10 21:13:26 2018
### 

@<TRIPOS>MOLECULE
4ufg_ligand
   75    77     1     0     0
SMALL
GAST_HUCK


@<TRIPOS>ATOM
      1 O3        143.4460  -16.7990   93.6930 O.2       1 D6J        -0.1532
      2 S         142.4610  -15.9710   94.3240 S.o2      1 D6J         0.0512
      3 O2        141.2980  -16.5760   94.8940 O.2       1 D6J        -0.1532
      4 C22       141.9630  -14.7640   93.1100 C.3       1 D6J         0.1181
      5 C23       140.8580  -15.2660   92.2280 C.ar      1 D6J        -0.0204
      6 C28       141.1360  -16.0490   91.1180 C.ar      1 D6J        -0.0587
      7 C27       140.1160  -16.5140   90.3080 C.ar      1 D6J        -0.0685
      8 C26       138.8050  -16.2040   90.5970 C.ar      1 D6J        -0.0687
      9 C25       138.5150  -15.4240   91.6950 C.ar      1 D6J        -0.0685
     10 C24       139.5340  -14.9590   92.5050 C.ar      1 D6J        -0.0587
     11 N4        143.2100  -15.1980   95.5350 N.am      1 D6J        -0.2261
     12 C14       144.5290  -14.6230   95.3200 C.3       1 D6J         0.1357
     13 C15       145.2400  -14.4460   96.6690 C.3       1 D6J         0.0179
     14 C16       146.6000  -13.7950   96.5910 C.ar      1 D6J        -0.0390
     15 C21       146.7950  -12.5030   97.0550 C.ar      1 D6J        -0.0601
     16 C20       148.0400  -11.9060   96.9860 C.ar      1 D6J        -0.0686
     17 C19       149.1130  -12.5970   96.4620 C.ar      1 D6J        -0.0687
     18 C18       148.9370  -13.8860   96.0140 C.ar      1 D6J        -0.0686
     19 C17       147.6900  -14.4830   96.0810 C.ar      1 D6J        -0.0601
     20 C13       144.6100  -13.3300   94.5180 C.2       1 D6J         0.2043
     21 O1        143.8570  -12.4150   94.8010 O.2       1 D6J        -0.3945
     22 N3        145.4640  -13.2540   93.4760 N.am      1 D6J        -0.2531
     23 C12       146.3020  -14.3580   93.0120 C.3       1 D6J         0.0254
     24 C2        145.5580  -11.9740   92.7600 C.3       1 D6J         0.1331
     25 C1        146.7580  -11.9260   91.8150 C.3       1 D6J        -0.0151
     26 C         146.8910  -10.6160   91.1110 C.3       1 D6J        -0.0610
     27 C3        144.2410  -11.6750   92.0380 C.2       1 D6J         0.2037
     28 O         143.6830  -12.5350   91.3580 O.2       1 D6J        -0.3944
     29 N         143.7450  -10.4450   92.2080 N.am      1 D6J        -0.2737
     30 C4        142.5450   -9.9790   91.5260 C.3       1 D6J         0.0645
     31 C5        141.3310   -9.9270   92.4230 C.ar      1 D6J        -0.0210
     32 C11       140.7520  -11.0940   92.8870 C.ar      1 D6J        -0.0584
     33 C10       139.6730  -11.0630   93.7520 C.ar      1 D6J        -0.0633
     34 C8        139.1440   -9.8500   94.1820 C.ar      1 D6J         0.0188
     35 C9        138.0130   -9.8420   95.1310 C.cat     1 D6J         0.2318
     36 N2        137.7060   -8.6850   95.7270 N.pl3     1 D6J        -0.2729
     37 N1        137.2850  -10.8540   95.4310 N.pl3     1 D6J        -0.2729
     38 C7        139.7190   -8.6760   93.7080 C.ar      1 D6J        -0.0633
     39 C6        140.7940   -8.7170   92.8360 C.ar      1 D6J        -0.0584
     40 H1        142.8311  -14.5148   92.4822 H         1 D6J         0.0682
     41 H2        141.6161  -13.8599   93.6317 H         1 D6J         0.0682
     42 H3        142.1641  -16.2994   90.8825 H         1 D6J         0.0557
     43 H4        140.3487  -17.1244   89.4429 H         1 D6J         0.0599
     44 H5        138.0058  -16.5719   89.9637 H         1 D6J         0.0559
     45 H6        137.4853  -15.1744   91.9242 H         1 D6J         0.0599
     46 H7        139.2955  -14.3469   93.3673 H         1 D6J         0.0557
     47 H8        142.7669  -15.1164   96.4277 H         1 D6J         0.1705
     48 H9        145.0945  -15.3705   94.7443 H         1 D6J         0.0777
     49 H10       145.3628  -15.4402   97.1234 H         1 D6J         0.0469
     50 H11       144.6005  -13.8248   97.3133 H         1 D6J         0.0469
     51 H12       145.9609  -11.9542   97.4771 H         1 D6J         0.0557
     52 H13       148.1736  -10.8918   97.3447 H         1 D6J         0.0599
     53 H14       150.0883  -12.1275   96.4036 H         1 D6J         0.0559
     54 H15       149.7779  -14.4359   95.6071 H         1 D6J         0.0599
     55 H16       147.5643  -15.5010   95.7304 H         1 D6J         0.0557
     56 H17       146.1236  -15.2430   93.6405 H         1 D6J         0.0488
     57 H18       147.3609  -14.0680   93.0793 H         1 D6J         0.0488
     58 H19       146.0521  -14.5940   91.9671 H         1 D6J         0.0488
     59 H20       145.7082  -11.1856   93.5123 H         1 D6J         0.0802
     60 H21       146.6435  -12.7193   91.0616 H         1 D6J         0.0310
     61 H22       147.6725  -12.1047   92.3996 H         1 D6J         0.0310
     62 H23       147.7687  -10.6433   90.4485 H         1 D6J         0.0232
     63 H24       147.0157   -9.8126   91.8519 H         1 D6J         0.0232
     64 H25       145.9867  -10.4271   90.5139 H         1 D6J         0.0232
     65 H26       144.2172   -9.8192   92.8288 H         1 D6J         0.1878
     66 H27       142.3320  -10.6604   90.6892 H         1 D6J         0.0683
     67 H28       142.7350   -8.9680   91.1365 H         1 D6J         0.0683
     68 H29       141.1507  -12.0499   92.5672 H         1 D6J         0.0557
     69 H30       139.2354  -11.9924   94.0981 H         1 D6J         0.0599
     70 H31       136.9232   -8.6416   96.3950 H         1 D6J         0.3180
     71 H32       138.2524   -7.8372   95.5181 H         1 D6J         0.3180
     72 H33       137.4757  -11.7708   95.0021 H         1 D6J         0.3180
     73 H34       136.5095  -10.7501   96.1009 H         1 D6J         0.3180
     74 H35       139.3215   -7.7184   94.0245 H         1 D6J         0.0599
     75 H36       141.2217   -7.7902   92.4711 H         1 D6J         0.0557
@<TRIPOS>BOND
     1    1    2 2  
     2    2    3 2  
     3    2    4 1  
     4    2   11 am 
     5    4    5 1  
     6    5    6 ar 
     7    5   10 ar 
     8    6    7 ar 
     9    7    8 ar 
    10    8    9 ar 
    11    9   10 ar 
    12   11   12 1  
    13   12   13 1  
    14   12   20 1  
    15   13   14 1  
    16   14   15 ar 
    17   14   19 ar 
    18   15   16 ar 
    19   16   17 ar 
    20   17   18 ar 
    21   18   19 ar 
    22   20   21 2  
    23   20   22 am 
    24   22   23 1  
    25   22   24 1  
    26   24   25 1  
    27   24   27 1  
    28   25   26 1  
    29   27   28 2  
    30   27   29 am 
    31   29   30 1  
    32   30   31 1  
    33   31   32 ar 
    34   31   39 ar 
    35   32   33 ar 
    36   33   34 ar 
    37   34   35 1  
    38   34   38 ar 
    39   35   36 ar 
    40   35   37 ar 
    41   38   39 ar 
    42    4   40 1  
    43    4   41 1  
    44    6   42 1  
    45    7   43 1  
    46    8   44 1  
    47    9   45 1  
    48   10   46 1  
    49   11   47 1  
    50   12   48 1  
    51   13   49 1  
    52   13   50 1  
    53   15   51 1  
    54   16   52 1  
    55   17   53 1  
    56   18   54 1  
    57   19   55 1  
    58   23   56 1  
    59   23   57 1  
    60   23   58 1  
    61   24   59 1  
    62   25   60 1  
    63   25   61 1  
    64   26   62 1  
    65   26   63 1  
    66   26   64 1  
    67   29   65 1  
    68   30   66 1  
    69   30   67 1  
    70   32   68 1  
    71   33   69 1  
    72   36   70 1  
    73   36   71 1  
    74   37   72 1  
    75   37   73 1  
    76   38   74 1  
    77   39   75 1  
@<TRIPOS>SUBSTRUCTURE
     1 D6J         1

