### 
### Created by X-TOOL on Mon Sep 10 21:13:24 2018
### 

@<TRIPOS>MOLECULE
4ufh_ligand
   24    24     1     0     0
SMALL
GAST_HUCK


@<TRIPOS>ATOM
      1 C          76.0300   88.9040   19.5160 C.3       1 GIF        -0.0045
      2 N          76.3080   88.8770   18.0640 N.4       1 GIF         0.2292
      3 O          80.3260   87.4590   16.8500 O.3       1 GIF        -0.3945
      4 C1         77.2490   89.0740   20.3870 C.3       1 GIF         0.1209
      5 O1         77.9840   86.9000   20.2710 O.3       1 GIF        -0.3885
      6 C2         78.3680   88.2100   19.9870 C.3       1 GIF         0.0958
      7 O2         76.8830   88.8070   21.7050 O.3       1 GIF        -0.3839
      8 C3         78.6980   88.2990   18.5420 C.3       1 GIF         0.0507
      9 C4         77.4820   88.0860   17.6710 C.3       1 GIF        -0.0261
     10 C5         79.8080   87.3350   18.1300 C.3       1 GIF         0.0543
     11 H1         75.5428   87.9564   19.7894 H         1 GIF         0.0840
     12 H2         75.3448   89.7404   19.7184 H         1 GIF         0.0840
     13 H3         76.4528   89.8257   17.7557 H         1 GIF         0.2014
     14 H4         75.5013   88.4917   17.5983 H         1 GIF         0.2014
     15 H5         80.6958   88.3274   16.7420 H         1 GIF         0.2094
     16 H6         77.5841   90.1192   20.3141 H         1 GIF         0.0673
     17 H7         77.8081   86.8173   21.2009 H         1 GIF         0.2099
     18 H8         79.2596   88.4799   20.5720 H         1 GIF         0.0626
     19 H9         77.6233   88.9707   22.2774 H         1 GIF         0.2101
     20 H10        79.0636   89.3199   18.3577 H         1 GIF         0.0401
     21 H11        77.7476   88.3544   16.6379 H         1 GIF         0.0818
     22 H12        77.2098   87.0211   17.7148 H         1 GIF         0.0818
     23 H13        80.6404   87.4712   18.8361 H         1 GIF         0.0562
     24 H14        79.4092   86.3143   18.2258 H         1 GIF         0.0562
@<TRIPOS>BOND
     1    2    1 1  
     2    4    1 1  
     3    9    2 1  
     4   10    3 1  
     5    6    4 1  
     6    4    7 1  
     7    6    5 1  
     8    8    6 1  
     9    8    9 1  
    10    8   10 1  
    11    1   11 1  
    12    1   12 1  
    13    2   13 1  
    14    2   14 1  
    15    3   15 1  
    16    4   16 1  
    17    5   17 1  
    18    6   18 1  
    19    7   19 1  
    20    8   20 1  
    21    9   21 1  
    22    9   22 1  
    23   10   23 1  
    24   10   24 1  
@<TRIPOS>SUBSTRUCTURE
     1 GIF         1

