### 
### Created by X-TOOL on Mon Sep 10 21:13:21 2018
### 

@<TRIPOS>MOLECULE
4ufi_ligand
   24    24     1     0     0
SMALL
GAST_HUCK


@<TRIPOS>ATOM
      1 O2         78.7550   88.0510   20.4930 O.3       1 AGK        -0.3833
      2 C4         79.0740   89.3880   20.1560 C.3       1 AGK         0.1318
      3 C3         77.8830   90.2730   20.4850 C.3       1 AGK         0.1272
      4 O1         77.5330   90.1400   21.8600 O.3       1 AGK        -0.3837
      5 C2         76.6990   89.8930   19.6150 C.3       1 AGK         0.0220
      6 N1         77.1600   90.1390   18.2260 N.4       1 AGK         0.3216
      7 C5         79.4170   89.4670   18.6720 C.3       1 AGK         0.0564
      8 C6         80.3380   88.3390   18.2920 C.3       1 AGK         0.0908
      9 O          81.1250   88.6920   17.1750 O.3       1 AGK        -0.3893
     10 N          78.1950   89.2320   17.8900 N.4       1 AGK         0.3247
     11 H1         78.5600   87.9975   21.4213 H         1 AGK         0.2102
     12 H2         79.9431   89.7178   20.7441 H         1 AGK         0.0679
     13 H3         78.1521   91.3207   20.2852 H         1 AGK         0.0675
     14 H4         78.2708   90.3985   22.3999 H         1 AGK         0.2101
     15 H5         75.8266   90.5200   19.8512 H         1 AGK         0.0855
     16 H6         76.4381   88.8337   19.7555 H         1 AGK         0.0855
     17 H7         77.5063   91.0827   18.1516 H         1 AGK         0.2326
     18 H8         76.3874   90.0136   17.5909 H         1 AGK         0.2326
     19 H9         79.8651   90.4430   18.4342 H         1 AGK         0.0915
     20 H10        79.7381   87.4508   18.0447 H         1 AGK         0.0615
     21 H11        80.9986   88.1105   19.1413 H         1 AGK         0.0615
     22 H12        81.6469   89.4573   17.3859 H         1 AGK         0.2097
     23 H13        78.4116   89.3353   16.9110 H         1 AGK         0.2330
     24 H14        77.8731   88.2931   18.0657 H         1 AGK         0.2330
@<TRIPOS>BOND
     1    1    2 1  
     2    2    3 1  
     3    2    7 1  
     4    3    4 1  
     5    3    5 1  
     6    5    6 1  
     7    6   10 1  
     8    7    8 1  
     9    7   10 1  
    10    8    9 1  
    11    1   11 1  
    12    2   12 1  
    13    3   13 1  
    14    4   14 1  
    15    5   15 1  
    16    5   16 1  
    17    6   17 1  
    18    6   18 1  
    19    7   19 1  
    20    8   20 1  
    21    8   21 1  
    22    9   22 1  
    23   10   23 1  
    24   10   24 1  
@<TRIPOS>SUBSTRUCTURE
     1 AGK         1

