### 
### Created by X-TOOL on Mon Sep 10 21:13:21 2018
### 

@<TRIPOS>MOLECULE
4ufj_ligand
   22    22     1     0     0
SMALL
GAST_HUCK


@<TRIPOS>ATOM
      1 O          75.9280   90.8550   19.7240 O.2       1 IF7        -0.3941
      2 C2         76.9860   90.2920   19.4270 C.2       1 IF7         0.2075
      3 C3         78.0820   90.3150   20.4840 C.3       1 IF7         0.1695
      4 O3         77.5270   90.1090   21.7730 O.3       1 IF7        -0.3688
      5 C4         79.1660   89.2790   20.2010 C.3       1 IF7         0.1048
      6 O2         78.6830   87.9810   20.5310 O.3       1 IF7        -0.3864
      7 C5         79.5990   89.3380   18.7360 C.3       1 IF7         0.0329
      8 C6         80.7100   88.3550   18.4330 C.3       1 IF7         0.0514
      9 O1         81.2020   88.5400   17.1210 O.3       1 IF7        -0.3946
     10 C1         78.4030   89.0370   17.8220 C.3       1 IF7         0.0385
     11 N          77.1760   89.7290   18.2410 N.am      1 IF7        -0.2843
     12 H1         78.5507   91.3100   20.4654 H         1 IF7         0.0864
     13 H2         78.2208   90.1257   22.4217 H         1 IF7         0.2134
     14 H3         80.0394   89.5010   20.8318 H         1 IF7         0.0649
     15 H4         78.4530   87.9547   21.4524 H         1 IF7         0.2101
     16 H5         79.9635   90.3539   18.5237 H         1 IF7         0.0370
     17 H6         80.3214   87.3306   18.5309 H         1 IF7         0.0561
     18 H7         81.5304   88.5061   19.1500 H         1 IF7         0.0561
     19 H8         81.5417   89.4228   17.0329 H         1 IF7         0.2094
     20 H9         78.2162   87.9530   17.8335 H         1 IF7         0.0524
     21 H10        78.6537   89.3551   16.7993 H         1 IF7         0.0524
     22 H11        76.4264   89.7793   17.5810 H         1 IF7         0.1851
@<TRIPOS>BOND
     1    1    2 2  
     2    2    3 1  
     3    2   11 am 
     4    3    4 1  
     5    3    5 1  
     6    5    6 1  
     7    5    7 1  
     8    7    8 1  
     9    7   10 1  
    10    8    9 1  
    11   10   11 1  
    12    3   12 1  
    13    4   13 1  
    14    5   14 1  
    15    6   15 1  
    16    7   16 1  
    17    8   17 1  
    18    8   18 1  
    19    9   19 1  
    20   10   20 1  
    21   10   21 1  
    22   11   22 1  
@<TRIPOS>SUBSTRUCTURE
     1 IF7         1

