### 
### Created by X-TOOL on Mon Sep 10 21:13:20 2018
### 

@<TRIPOS>MOLECULE
4ufk_ligand
   21    21     1     0     0
SMALL
GAST_HUCK


@<TRIPOS>ATOM
      1 O2         78.5400   87.5190   20.6000 O.3       1 LDU        -0.3833
      2 C4         78.9420   88.8540   20.3480 C.3       1 LDU         0.1303
      3 C3         77.7740   89.8070   20.5600 C.3       1 LDU         0.1258
      4 O1         77.1250   89.5860   21.8130 O.3       1 LDU        -0.3837
      5 C2         76.8690   89.4770   19.3880 C.3       1 LDU        -0.0039
      6 N          77.8170   89.1570   18.2860 N.4       1 LDU         0.2346
      7 C5         79.1780   89.0940   18.8550 C.3       1 LDU         0.0302
      8 C6         79.9930   88.0010   18.1950 C.3       1 LDU         0.0893
      9 O          80.4390   88.4160   16.9140 O.3       1 LDU        -0.3894
     10 H1         78.2375   87.4446   21.4975 H         1 LDU         0.2102
     11 H2         79.8187   89.1113   20.9606 H         1 LDU         0.0679
     12 H3         78.1099   90.8533   20.5118 H         1 LDU         0.0675
     13 H4         77.7478   89.7170   22.5184 H         1 LDU         0.2101
     14 H5         76.2388   90.3393   19.1246 H         1 LDU         0.0840
     15 H6         76.2295   88.6121   19.6182 H         1 LDU         0.0840
     16 H7         77.7749   89.8751   17.5799 H         1 LDU         0.2019
     17 H8         77.5767   88.2681   17.8760 H         1 LDU         0.2019
     18 H9         79.6976   90.0524   18.7085 H         1 LDU         0.0900
     19 H10        79.3703   87.1007   18.0869 H         1 LDU         0.0614
     20 H11        80.8652   87.7702   18.8243 H         1 LDU         0.0614
     21 H12        80.9794   89.1921   17.0042 H         1 LDU         0.2097
@<TRIPOS>BOND
     1    1    2 1  
     2    2    3 1  
     3    2    7 1  
     4    3    4 1  
     5    3    5 1  
     6    5    6 1  
     7    6    7 1  
     8    7    8 1  
     9    8    9 1  
    10    1   10 1  
    11    2   11 1  
    12    3   12 1  
    13    4   13 1  
    14    5   14 1  
    15    5   15 1  
    16    6   16 1  
    17    6   17 1  
    18    7   18 1  
    19    8   19 1  
    20    8   20 1  
    21    9   21 1  
@<TRIPOS>SUBSTRUCTURE
     1 LDU         1

