### 
### Created by X-TOOL on Mon Sep 10 21:13:23 2018
### 

@<TRIPOS>MOLECULE
4ufl_ligand
   28    29     1     0     0
SMALL
GAST_HUCK


@<TRIPOS>ATOM
      1 O1         80.7530   88.1080   16.9320 O.3       1 DZX        -0.3944
      2 C6         80.0430   87.7450   18.0860 C.3       1 DZX         0.0546
      3 C5         79.0480   88.8960   18.3900 C.3       1 DZX         0.0536
      4 C4         78.7980   89.1420   19.9100 C.3       1 DZX         0.0963
      5 O5         78.8690   87.8940   20.5280 O.3       1 DZX        -0.3885
      6 C3         77.4500   89.8000   20.3030 C.3       1 DZX         0.1238
      7 O7         77.1700   89.3350   21.5950 O.3       1 DZX        -0.3836
      8 C2         76.3050   89.4370   19.3160 C.3       1 DZX         0.0068
      9 C7         76.1100   87.9140   19.2540 C.3       1 DZX        -0.0021
     10 C8         76.9850   87.4240   18.0970 C.3       1 DZX        -0.0041
     11 C1         77.7150   88.6900   17.6240 C.3       1 DZX        -0.0146
     12 N1         76.7010   89.7390   17.9360 N.4       1 DZX         0.2336
     13 H1         81.2185   88.9208   17.0905 H         1 DZX         0.2094
     14 H2         80.7363   87.6129   18.9297 H         1 DZX         0.0563
     15 H3         79.4941   86.8077   17.9122 H         1 DZX         0.0563
     16 H4         79.5061   89.8161   17.9982 H         1 DZX         0.0404
     17 H5         79.6051   89.7883   20.2854 H         1 DZX         0.0627
     18 H6         78.7219   87.9951   21.4611 H         1 DZX         0.2099
     19 H7         77.5641   90.8940   20.3169 H         1 DZX         0.0676
     20 H8         77.8690   89.5964   22.1828 H         1 DZX         0.2102
     21 H9         75.3793   89.9584   19.6011 H         1 DZX         0.0877
     22 H10        75.0541   87.6711   19.0642 H         1 DZX         0.0323
     23 H11        76.4292   87.4489   20.1983 H         1 DZX         0.0323
     24 H12        76.3671   87.0039   17.2897 H         1 DZX         0.0322
     25 H13        77.7021   86.6650   18.4428 H         1 DZX         0.0322
     26 H14        77.9241   88.6515   16.5447 H         1 DZX         0.0855
     27 H15        77.1047   90.6603   17.8709 H         1 DZX         0.2020
     28 H16        75.9117   89.6732   17.3125 H         1 DZX         0.2020
@<TRIPOS>BOND
     1    1    2 1  
     2    2    3 1  
     3    3    4 1  
     4    3   11 1  
     5    4    5 1  
     6    4    6 1  
     7    6    7 1  
     8    6    8 1  
     9    8    9 1  
    10    8   12 1  
    11    9   10 1  
    12   10   11 1  
    13   11   12 1  
    14    1   13 1  
    15    2   14 1  
    16    2   15 1  
    17    3   16 1  
    18    4   17 1  
    19    5   18 1  
    20    6   19 1  
    21    7   20 1  
    22    8   21 1  
    23    9   22 1  
    24    9   23 1  
    25   10   24 1  
    26   10   25 1  
    27   11   26 1  
    28   12   27 1  
    29   12   28 1  
@<TRIPOS>SUBSTRUCTURE
     1 DZX         1

