### 
### Created by X-TOOL on Mon Sep 10 21:13:22 2018
### 

@<TRIPOS>MOLECULE
4ufm_ligand
   25    25     1     0     0
SMALL
GAST_HUCK


@<TRIPOS>ATOM
      1 C1         76.8880   88.6370   18.1940 C.3       1 DGJ        -0.0040
      2 C2         76.3420   89.1330   19.5230 C.3       1 DGJ         0.1231
      3 O2         75.4120   90.1940   19.3010 O.3       1 DGJ        -0.3838
      4 C3         77.4770   89.6060   20.4170 C.3       1 DGJ         0.1171
      5 O3         77.0760   89.5820   21.7820 O.3       1 DGJ        -0.3862
      6 C4         78.7170   88.7490   20.2140 C.3       1 DGJ         0.1280
      7 O4         78.4300   87.3890   20.5220 O.3       1 DGJ        -0.3835
      8 C5         79.2400   88.8820   18.7840 C.3       1 DGJ         0.0301
      9 N5         78.1820   89.2180   17.8210 N.4       1 DGJ         0.2346
     10 C6         80.0190   87.6670   18.3130 C.3       1 DGJ         0.0893
     11 O6         80.6990   87.9630   17.1010 O.3       1 DGJ        -0.3894
     12 H1         76.1594   88.8843   17.4079 H         1 DGJ         0.0840
     13 H2         77.0050   87.5450   18.2551 H         1 DGJ         0.0840
     14 H3         75.8208   88.3037   20.0235 H         1 DGJ         0.0674
     15 H4         75.8500   90.9094   18.8550 H         1 DGJ         0.2101
     16 H5         77.7238   90.6428   20.1448 H         1 DGJ         0.0649
     17 H6         77.7946   89.8797   22.3273 H         1 DGJ         0.2100
     18 H7         79.4995   89.1027   20.9015 H         1 DGJ         0.0678
     19 H8         78.1502   87.3228   21.4275 H         1 DGJ         0.2102
     20 H9         79.9447   89.7266   18.7908 H         1 DGJ         0.0900
     21 H10        78.0877   90.2207   17.7793 H         1 DGJ         0.2019
     22 H11        78.4458   88.8673   16.9136 H         1 DGJ         0.2019
     23 H12        79.3235   86.8314   18.1453 H         1 DGJ         0.0614
     24 H13        80.7528   87.3846   19.0823 H         1 DGJ         0.0614
     25 H14        81.3011   88.6836   17.2449 H         1 DGJ         0.2097
@<TRIPOS>BOND
     1    1    2 1  
     2    1    9 1  
     3    2    3 1  
     4    2    4 1  
     5    4    5 1  
     6    4    6 1  
     7    6    7 1  
     8    6    8 1  
     9    8    9 1  
    10    8   10 1  
    11   10   11 1  
    12    1   12 1  
    13    1   13 1  
    14    2   14 1  
    15    3   15 1  
    16    4   16 1  
    17    5   17 1  
    18    6   18 1  
    19    7   19 1  
    20    8   20 1  
    21    9   21 1  
    22    9   22 1  
    23   10   23 1  
    24   10   24 1  
    25   11   25 1  
@<TRIPOS>SUBSTRUCTURE
     1 DGJ         1

