### 
### Created by X-TOOL on Mon Sep 10 21:13:27 2018
### 

@<TRIPOS>MOLECULE
4ufu_ligand
   33    35     1     0     0
SMALL
GAST_HUCK


@<TRIPOS>ATOM
      1 N1        -37.4670  -11.2430   13.0250 N.am      1 2ZI        -0.1979
      2 C2        -38.2510  -12.0230   12.1430 C.2       1 2ZI         0.1805
      3 N3        -39.0940  -12.9630   12.6430 N.2       1 2ZI        -0.2769
      4 C4        -39.1910  -13.1430   14.0000 C.ar      1 2ZI         0.0413
      5 C5        -38.3980  -12.3790   14.9110 C.ar      1 2ZI         0.0630
      6 C6        -37.5190  -11.4080   14.4000 C.2       1 2ZI         0.2339
      7 O6        -36.7450  -10.6990   15.0710 O.2       1 2ZI        -0.3861
      8 FAB       -38.4160   -9.5450    6.2900 F         1 2ZI        -0.2266
      9 FAC       -39.2230  -11.5180    5.7970 F         1 2ZI        -0.2266
     10 FAD       -37.1870  -11.1690    5.9360 F         1 2ZI        -0.2266
     11 CAE       -38.7740  -12.6430    9.8050 C.ar      1 2ZI        -0.0155
     12 CAF       -37.6930  -10.5340   10.2420 C.ar      1 2ZI        -0.0155
     13 CAG       -38.7900  -12.3130    8.4250 C.ar      1 2ZI        -0.0296
     14 CAH       -37.7240  -10.2260    8.8760 C.ar      1 2ZI        -0.0296
     15 CAI       -40.8270  -14.9040   13.5840 C.3       1 2ZI        -0.0295
     16 CAJ       -40.0570  -14.1430   14.4810 C.ar      1 2ZI        -0.0261
     17 CAK       -38.5220  -12.5980   16.2820 C.ar      1 2ZI        -0.0512
     18 CAP       -38.1950  -11.7630   10.7460 C.ar      1 2ZI         0.0688
     19 CAQ       -38.2610  -11.1220    7.9360 C.ar      1 2ZI         0.0447
     20 CAU       -38.2610  -10.8270    6.4880 C.3       1 2ZI         0.3716
     21 CAC       -40.1700  -14.3600   15.8640 C.ar      1 2ZI        -0.0585
     22 CAD       -39.4120  -13.5770   16.7510 C.ar      1 2ZI        -0.0669
     23 H1        -36.8552  -10.5498   12.6439 H         1 2ZI         0.2481
     24 H2        -39.2095  -13.5776   10.1396 H         1 2ZI         0.0745
     25 H3        -37.2736   -9.8132   10.9346 H         1 2ZI         0.0745
     26 H4        -39.2305  -13.0144    7.7257 H         1 2ZI         0.0845
     27 H5        -37.3255   -9.2767    8.5368 H         1 2ZI         0.0845
     28 H6        -41.4353  -15.6281   14.1458 H         1 2ZI         0.0392
     29 H7        -40.1607  -15.4423   12.8939 H         1 2ZI         0.0392
     30 H8        -41.4876  -14.2371   13.0105 H         1 2ZI         0.0392
     31 H9        -37.9343  -12.0154   16.9822 H         1 2ZI         0.0599
     32 H10       -40.8367  -15.1255   16.2442 H         1 2ZI         0.0576
     33 H11       -39.5166  -13.7320   17.8187 H         1 2ZI         0.0581
@<TRIPOS>BOND
     1    2    1 1  
     2    1    6 am 
     3    2    3 2  
     4   18    2 1  
     5    3    4 1  
     6    4    5 ar 
     7    4   16 ar 
     8    6    5 1  
     9    5   17 ar 
    10    6    7 2  
    11   20    8 1  
    12   20    9 1  
    13   20   10 1  
    14   13   11 ar 
    15   11   18 ar 
    16   14   12 ar 
    17   12   18 ar 
    18   19   13 ar 
    19   19   14 ar 
    20   16   15 1  
    21   16   21 ar 
    22   17   22 ar 
    23   19   20 1  
    24   21   22 ar 
    25    1   23 1  
    26   11   24 1  
    27   12   25 1  
    28   13   26 1  
    29   14   27 1  
    30   15   28 1  
    31   15   29 1  
    32   15   30 1  
    33   17   31 1  
    34   21   32 1  
    35   22   33 1  
@<TRIPOS>SUBSTRUCTURE
     1 2ZI         1

