### 
### Created by X-TOOL on Mon Sep 10 21:13:26 2018
### 

@<TRIPOS>MOLECULE
4ufy_ligand
   33    35     1     0     0
SMALL
GAST_HUCK


@<TRIPOS>ATOM
      1 CAD       -39.8470  -12.2390   10.0320 C.ar      1 M3W        -0.0466
      2 CAC       -39.9010  -11.9470    8.6630 C.ar      1 M3W        -0.0523
      3 CAB       -39.2080  -10.8610    8.1260 C.ar      1 M3W        -0.0389
      4 CAA       -39.2960  -10.5840    6.7480 C.3       1 M3W        -0.0277
      5 CAG       -38.4420  -10.0670    8.9850 C.ar      1 M3W        -0.0523
      6 CAF       -38.3720  -10.3720   10.3450 C.ar      1 M3W        -0.0466
      7 CAE       -39.0670  -11.4720   10.9050 C.ar      1 M3W         0.0378
      8 CAH       -39.0510  -11.7760   12.3010 C.2       1 M3W         0.1543
      9 NAI       -39.8590  -12.7490   12.8160 N.2       1 M3W        -0.3025
     10 CAJ       -39.8890  -13.0190   14.1510 C.ar      1 M3W         0.0244
     11 CAO       -40.7520  -14.0340   14.6100 C.ar      1 M3W        -0.0328
     12 CAP       -41.5670  -14.7710   13.7070 C.3       1 M3W        -0.0317
     13 CAN       -40.8160  -14.3270   15.9790 C.ar      1 M3W        -0.0628
     14 CAM       -40.0180  -13.6120   16.8730 C.ar      1 M3W        -0.0706
     15 CAL       -39.1490  -12.6000   16.4180 C.ar      1 M3W        -0.0554
     16 CAK       -39.0930  -12.2880   15.0690 C.ar      1 M3W         0.0566
     17 CAQ       -38.2440  -11.3050   14.5880 C.2       1 M3W         0.2315
     18 OAR       -37.4930  -10.6580   15.3160 O.2       1 M3W        -0.3871
     19 NAS       -38.2510  -11.0350   13.2050 N.am      1 M3W        -0.2022
     20 H1        -40.4191  -13.0732   10.4218 H         1 M3W         0.0669
     21 H2        -40.4924  -12.5766    8.0081 H         1 M3W         0.0577
     22 H3        -38.6876   -9.6983    6.5125 H         1 M3W         0.0407
     23 H4        -40.3449  -10.3904    6.4791 H         1 M3W         0.0407
     24 H5        -38.9241  -11.4469    6.1760 H         1 M3W         0.0407
     25 H6        -37.9014   -9.2128    8.5937 H         1 M3W         0.0577
     26 H7        -37.7671   -9.7479   10.9928 H         1 M3W         0.0669
     27 H8        -42.1600  -15.5090   14.2671 H         1 M3W         0.0383
     28 H9        -40.9286  -15.2910   12.9777 H         1 M3W         0.0383
     29 H10       -42.2428  -14.0830   13.1779 H         1 M3W         0.0383
     30 H11       -41.4805  -15.1033   16.3407 H         1 M3W         0.0565
     31 H12       -40.0672  -13.8381   17.9320 H         1 M3W         0.0550
     32 H13       -38.5239  -12.0652   17.1239 H         1 M3W         0.0588
     33 H14       -37.6742  -10.2986   12.8514 H         1 M3W         0.2482
@<TRIPOS>BOND
     1    1    2 ar 
     2    1    7 ar 
     3    2    3 ar 
     4    3    4 1  
     5    3    5 ar 
     6    5    6 ar 
     7    6    7 ar 
     8    7    8 1  
     9    8    9 2  
    10    8   19 1  
    11    9   10 1  
    12   10   11 ar 
    13   10   16 ar 
    14   11   12 1  
    15   11   13 ar 
    16   13   14 ar 
    17   14   15 ar 
    18   15   16 ar 
    19   16   17 1  
    20   17   18 2  
    21   17   19 am 
    22    1   20 1  
    23    2   21 1  
    24    4   22 1  
    25    4   23 1  
    26    4   24 1  
    27    5   25 1  
    28    6   26 1  
    29   12   27 1  
    30   12   28 1  
    31   12   29 1  
    32   13   30 1  
    33   14   31 1  
    34   15   32 1  
    35   19   33 1  
@<TRIPOS>SUBSTRUCTURE
     1 M3W         1

