### 
### Created by X-TOOL on Mon Sep 10 21:13:25 2018
### 

@<TRIPOS>MOLECULE
4ufz_ligand
   38    40     1     0     0
SMALL
GAST_HUCK


@<TRIPOS>ATOM
      1 N4        114.5310   88.3180   29.2710 N.1       1 IA7        -0.3453
      2 C11       113.9740   89.0710   28.6260 C.1       1 IA7         0.0925
      3 C8        113.2980   89.9910   27.7570 C.ar      1 IA7         0.1749
      4 C7        113.2530   91.3610   28.0980 C.ar      1 IA7         0.1278
      5 N5        113.8110   91.8110   29.2690 N.pl3     1 IA7        -0.3100
      6 C9        112.7620   89.5190   26.5290 C.ar      1 IA7         0.1406
      7 N3        112.8190   88.2120   26.2030 N.pl3     1 IA7        -0.3118
      8 N1        112.1590   90.3260   25.6660 N.ar      1 IA7        -0.2657
      9 C10       112.0800   91.6550   25.9570 C.ar      1 IA7         0.1344
     10 N2        111.4410   92.3850   24.9990 N.ar      1 IA7        -0.2323
     11 C4        111.3370   93.6910   25.2180 C.ar      1 IA7         0.0957
     12 C1        110.6130   94.5030   24.1360 C.3       1 IA7        -0.0058
     13 C3        109.6200   93.7010   23.2880 C.3       1 IA7        -0.0733
     14 C2        111.6950   95.0660   23.2100 C.3       1 IA7        -0.0733
     15 C         109.8400   95.6790   24.7530 C.3       1 IA7        -0.0733
     16 C6        112.6170   92.2970   27.1860 C.ar      1 IA7         0.1105
     17 C5        112.4130   93.7250   27.2280 C.ar      1 IA7         0.1288
     18 N         111.7930   94.3920   26.2450 N.ar      1 IA7        -0.2465
     19 C12       112.9000   94.5930   28.3210 C.2       1 IA7         0.1496
     20 S         111.7100   95.5680   29.1150 S.3       1 IA7         0.0083
     21 C14       112.9480   96.2500   30.0850 C.2       1 IA7         0.0233
     22 C13       114.1390   95.7350   29.7470 C.2       1 IA7         0.0014
     23 N6        114.1320   94.8030   28.7320 N.2       1 IA7        -0.2917
     24 H1        114.2612   91.1459   29.9139 H         1 IA7         0.1881
     25 H2        113.7794   92.8137   29.5026 H         1 IA7         0.1881
     26 H3        112.4254   87.8867   25.3085 H         1 IA7         0.1847
     27 H4        113.2561   87.5388   26.8485 H         1 IA7         0.1847
     28 H5        109.1536   94.3641   22.5445 H         1 IA7         0.0163
     29 H6        108.8420   93.2754   23.9388 H         1 IA7         0.0163
     30 H7        110.1515   92.8879   22.7719 H         1 IA7         0.0163
     31 H8        112.4185   95.6460   23.8017 H         1 IA7         0.0163
     32 H9        111.2298   95.7192   22.4571 H         1 IA7         0.0163
     33 H10       112.2140   94.2373   22.7061 H         1 IA7         0.0163
     34 H11       109.0573   95.2924   25.4223 H         1 IA7         0.0163
     35 H12       109.3766   96.2738   23.9521 H         1 IA7         0.0163
     36 H13       110.5326   96.3126   25.3264 H         1 IA7         0.0163
     37 H14       112.7899   96.9946   30.8638 H         1 IA7         0.0853
     38 H15       115.0590   96.0360   30.2460 H         1 IA7         0.0631
@<TRIPOS>BOND
     1    1    2 3  
     2    2    3 1  
     3    3    4 ar 
     4    3    6 ar 
     5    4    5 1  
     6    4   16 ar 
     7    6    7 1  
     8    6    8 ar 
     9    8    9 ar 
    10    9   10 ar 
    11    9   16 ar 
    12   10   11 ar 
    13   11   12 1  
    14   11   18 ar 
    15   12   13 1  
    16   12   14 1  
    17   12   15 1  
    18   16   17 ar 
    19   17   18 ar 
    20   17   19 1  
    21   19   20 1  
    22   19   23 2  
    23   20   21 1  
    24   21   22 2  
    25   22   23 1  
    26    5   24 1  
    27    5   25 1  
    28    7   26 1  
    29    7   27 1  
    30   13   28 1  
    31   13   29 1  
    32   13   30 1  
    33   14   31 1  
    34   14   32 1  
    35   14   33 1  
    36   15   34 1  
    37   15   35 1  
    38   15   36 1  
    39   21   37 1  
    40   22   38 1  
@<TRIPOS>SUBSTRUCTURE
     1 IA7         1

