### 
### Created by X-TOOL on Mon Sep 10 21:13:27 2018
### 

@<TRIPOS>MOLECULE
4uhg_ligand
   30    32     1     0     0
SMALL
GAST_HUCK


@<TRIPOS>ATOM
      1 CAD       -39.4250  -12.4440    9.8910 C.ar      1 SZ5        -0.0459
      2 CAC       -39.4530  -12.1280    8.5260 C.ar      1 SZ5        -0.0518
      3 CAB       -38.8860  -10.9690    8.0360 C.ar      1 SZ5        -0.0385
      4 CAA       -38.9270  -10.6830    6.6360 C.3       1 SZ5        -0.0275
      5 CAG       -38.3150  -10.0820    8.9370 C.ar      1 SZ5        -0.0518
      6 CAF       -38.2800  -10.3800   10.2990 C.ar      1 SZ5        -0.0459
      7 CAE       -38.8110  -11.5870   10.8080 C.ar      1 SZ5         0.0393
      8 CAH       -38.8230  -11.8740   12.2010 C.2       1 SZ5         0.1566
      9 NAI       -39.6380  -12.8260   12.6850 N.2       1 SZ5        -0.2998
     10 CAJ       -39.6760  -13.1170   13.9970 C.ar      1 SZ5         0.0206
     11 CAO       -40.5460  -14.1300   14.4270 C.ar      1 SZ5        -0.0508
     12 CAN       -40.6310  -14.4240   15.7790 C.ar      1 SZ5        -0.0647
     13 CAM       -39.8760  -13.7030   16.7080 C.ar      1 SZ5        -0.0637
     14 CAL       -39.0300  -12.6680   16.2740 C.ar      1 SZ5        -0.0485
     15 CAK       -38.9330  -12.3790   14.9240 C.ar      1 SZ5         0.0623
     16 CAP       -38.0450  -11.3970   14.4490 C.2       1 SZ5         0.2340
     17 OAQ       -37.2890  -10.7420   15.1760 O.2       1 SZ5        -0.3862
     18 NAR       -38.0240  -11.1460   13.0950 N.am      1 SZ5        -0.2007
     19 H1        -39.8842  -13.3623   10.2388 H         1 SZ5         0.0673
     20 H2        -39.9331  -12.8126    7.8361 H         1 SZ5         0.0578
     21 H3        -38.4269   -9.7224    6.4432 H         1 SZ5         0.0408
     22 H4        -39.9741  -10.6242    6.3042 H         1 SZ5         0.0408
     23 H5        -38.4115  -11.4822    6.0832 H         1 SZ5         0.0408
     24 H6        -37.8927   -9.1498    8.5795 H         1 SZ5         0.0578
     25 H7        -37.8344   -9.6681   10.9844 H         1 SZ5         0.0673
     26 H8        -41.1459  -14.6775   13.7091 H         1 SZ5         0.0569
     27 H9        -41.2869  -15.2178   16.1176 H         1 SZ5         0.0631
     28 H10       -39.9428  -13.9420   17.7632 H         1 SZ5         0.0567
     29 H11       -38.4551  -12.0977   16.9946 H         1 SZ5         0.0647
     30 H12       -37.4250  -10.4278   12.7408 H         1 SZ5         0.2491
@<TRIPOS>BOND
     1    1    2 ar 
     2    1    7 ar 
     3    2    3 ar 
     4    3    4 1  
     5    3    5 ar 
     6    5    6 ar 
     7    6    7 ar 
     8    7    8 1  
     9    8    9 2  
    10    8   18 1  
    11    9   10 1  
    12   10   11 ar 
    13   10   15 ar 
    14   11   12 ar 
    15   12   13 ar 
    16   13   14 ar 
    17   14   15 ar 
    18   15   16 1  
    19   16   17 2  
    20   16   18 am 
    21    1   19 1  
    22    2   20 1  
    23    4   21 1  
    24    4   22 1  
    25    4   23 1  
    26    5   24 1  
    27    6   25 1  
    28   11   26 1  
    29   12   27 1  
    30   13   28 1  
    31   14   29 1  
    32   18   30 1  
@<TRIPOS>SUBSTRUCTURE
     1 SZ5         1

