### 
### Created by X-TOOL on Mon Sep 10 21:13:27 2018
### 

@<TRIPOS>MOLECULE
4ui3_ligand
   30    32     1     0     0
SMALL
GAST_HUCK


@<TRIPOS>ATOM
      1 FAA       -39.3940   -9.0720    6.2270 F         1 06R        -0.2252
      2 CAB       -39.0670  -10.4430    6.4290 C.3       1 06R         0.3730
      3 FAC       -39.9530  -11.1790    5.6740 F         1 06R        -0.2252
      4 FAD       -37.7580  -10.7510    5.8600 F         1 06R        -0.2252
      5 CAE       -39.0790  -10.7610    7.8490 C.ar      1 06R         0.0462
      6 CAF       -39.7660  -11.8670    8.3780 C.ar      1 06R        -0.0288
      7 CAG       -39.7730  -12.1570    9.7680 C.ar      1 06R        -0.0147
      8 CAH       -39.0520  -11.3610   10.6840 C.ar      1 06R         0.0705
      9 CAI       -38.3580  -10.2560   10.1480 C.ar      1 06R        -0.0147
     10 CAJ       -38.3810   -9.9610    8.7730 C.ar      1 06R        -0.0288
     11 CAK       -39.0730  -11.6590   12.0970 C.2       1 06R         0.1825
     12 NAL       -39.9120  -12.6260   12.5680 N.2       1 06R        -0.2755
     13 CAM       -39.9710  -12.9170   13.8950 C.ar      1 06R         0.0363
     14 CAN       -40.8620  -13.9300   14.2840 C.ar      1 06R        -0.0449
     15 CAO       -40.9800  -14.2450   15.6500 C.ar      1 06R        -0.0610
     16 CAP       -40.2030  -13.5390   16.5830 C.ar      1 06R        -0.0604
     17 CAQ       -39.2830  -12.5470   16.1940 C.ar      1 06R        -0.0447
     18 CAR       -39.1680  -12.2200   14.8560 C.ar      1 06R         0.0682
     19 CAS       -38.2990  -11.2130   14.4210 C.2       1 06R         0.2364
     20 OAT       -37.5490  -10.5740   15.1730 O.2       1 06R        -0.3854
     21 NAU       -38.2670  -10.9390   13.0440 N.am      1 06R        -0.1963
     22 H1        -40.3080  -12.5197    7.7032 H         1 06R         0.0848
     23 H2        -40.3421  -13.0047   10.1322 H         1 06R         0.0749
     24 H3        -37.7910   -9.6163   10.8146 H         1 06R         0.0749
     25 H4        -37.8444   -9.0903    8.4137 H         1 06R         0.0848
     26 H5        -41.4495  -14.4608   13.5437 H         1 06R         0.0600
     27 H6        -41.6612  -15.0219   15.9779 H         1 06R         0.0641
     28 H7        -40.3154  -13.7654   17.6371 H         1 06R         0.0595
     29 H8        -38.6717  -12.0453   16.9354 H         1 06R         0.0657
     30 H9        -37.6613  -10.2166   12.7104 H         1 06R         0.2493
@<TRIPOS>BOND
     1    1    2 1  
     2    2    3 1  
     3    2    4 1  
     4    2    5 1  
     5    5    6 ar 
     6    5   10 ar 
     7    6    7 ar 
     8    7    8 ar 
     9    8    9 ar 
    10    8   11 1  
    11    9   10 ar 
    12   11   12 2  
    13   11   21 1  
    14   12   13 1  
    15   13   14 ar 
    16   13   18 ar 
    17   14   15 ar 
    18   15   16 ar 
    19   16   17 ar 
    20   17   18 ar 
    21   18   19 1  
    22   19   20 2  
    23   19   21 am 
    24    6   22 1  
    25    7   23 1  
    26    9   24 1  
    27   10   25 1  
    28   14   26 1  
    29   15   27 1  
    30   16   28 1  
    31   17   29 1  
    32   21   30 1  
@<TRIPOS>SUBSTRUCTURE
     1 06R         1

