### 
### Created by X-TOOL on Mon Sep 10 21:13:27 2018
### 

@<TRIPOS>MOLECULE
4ui4_ligand
   48    51     1     0     0
SMALL
GAST_HUCK


@<TRIPOS>ATOM
      1 CAY       -58.1500  -37.0430   26.4690 C.ar      1 RJN        -0.0578
      2 CAZ       -57.6840  -35.8110   26.9390 C.ar      1 RJN        -0.0685
      3 CBA       -56.4180  -35.7050   27.5150 C.ar      1 RJN        -0.0687
      4 CBB       -55.6180  -36.8380   27.6290 C.ar      1 RJN        -0.0685
      5 CBC       -56.0830  -38.0680   27.1610 C.ar      1 RJN        -0.0578
      6 CAX       -57.3460  -38.1870   26.5650 C.ar      1 RJN        -0.0130
      7 CAW       -57.7780  -39.4440   26.1120 C.3       1 RJN         0.1113
      8 OAV       -57.2680  -39.6740   24.7500 O.3       1 RJN        -0.2505
      9 CAB       -56.5610  -40.8410   24.4550 C.2       1 RJN         0.3237
     10 OAA       -56.3360  -41.7230   25.2920 O.2       1 RJN        -0.3773
     11 NAC       -56.0950  -41.0030   23.2140 N.am      1 RJN        -0.2498
     12 CAD       -55.3430  -42.1930   22.7230 C.3       1 RJN         0.0698
     13 CAE       -55.5300  -42.1900   21.3230 C.ar      1 RJN        -0.0135
     14 CAJ       -56.5990  -42.8950   20.7730 C.ar      1 RJN        -0.0496
     15 CAI       -56.8290  -42.8900   19.3990 C.ar      1 RJN        -0.0459
     16 CAF       -54.7090  -41.4390   20.4630 C.ar      1 RJN        -0.0496
     17 CAG       -54.9460  -41.4280   19.0900 C.ar      1 RJN        -0.0459
     18 CAH       -56.0180  -42.1550   18.5300 C.ar      1 RJN         0.0393
     19 CAK       -56.3070  -42.1900   17.1430 C.2       1 RJN         0.1566
     20 NAL       -57.2500  -43.0580   16.7190 N.2       1 RJN        -0.2998
     21 CAM       -57.5800  -43.1470   15.4120 C.ar      1 RJN         0.0206
     22 CAR       -58.5560  -44.0950   15.0340 C.ar      1 RJN        -0.0508
     23 CAQ       -58.9110  -44.2310   13.6900 C.ar      1 RJN        -0.0647
     24 CAP       -58.2850  -43.4110   12.7390 C.ar      1 RJN        -0.0637
     25 CAO       -57.3090  -42.4670   13.1060 C.ar      1 RJN        -0.0485
     26 CAN       -56.9590  -42.3300   14.4340 C.ar      1 RJN         0.0623
     27 CAS       -56.0000  -41.4310   14.8250 C.2       1 RJN         0.2340
     28 OAT       -55.4510  -40.7120   14.0170 O.2       1 RJN        -0.3862
     29 NAU       -55.6650  -41.3550   16.1780 N.am      1 RJN        -0.2007
     30 H1        -59.1379  -37.1135   26.0283 H         1 RJN         0.0557
     31 H2        -58.3118  -34.9313   26.8550 H         1 RJN         0.0599
     32 H3        -56.0596  -34.7461   27.8716 H         1 RJN         0.0559
     33 H4        -54.6352  -36.7654   28.0806 H         1 RJN         0.0599
     34 H5        -55.4562  -38.9468   27.2602 H         1 RJN         0.0557
     35 H6        -58.8776  -39.4726   26.1019 H         1 RJN         0.0776
     36 H7        -57.3969  -40.2272   26.7838 H         1 RJN         0.0776
     37 H8        -56.2644  -40.2654   22.5603 H         1 RJN         0.1897
     38 H9        -55.7472  -43.1155   23.1652 H         1 RJN         0.0700
     39 H10       -54.2749  -42.1049   22.9707 H         1 RJN         0.0700
     40 H11       -57.2609  -43.4552   21.4235 H         1 RJN         0.0579
     41 H12       -57.6531  -43.4675   18.9960 H         1 RJN         0.0673
     42 H13       -53.8855  -40.8643   20.8713 H         1 RJN         0.0579
     43 H14       -54.2963  -40.8516   18.4414 H         1 RJN         0.0673
     44 H15       -59.0290  -44.7163   15.7859 H         1 RJN         0.0569
     45 H16       -59.6568  -44.9570   13.3871 H         1 RJN         0.0631
     46 H17       -58.5605  -43.5074   11.6950 H         1 RJN         0.0567
     47 H18       -56.8347  -41.8510   12.3506 H         1 RJN         0.0647
     48 H19       -54.9650  -40.7062   16.4762 H         1 RJN         0.2491
@<TRIPOS>BOND
     1    1    2 ar 
     2    1    6 ar 
     3    2    3 ar 
     4    3    4 ar 
     5    4    5 ar 
     6    5    6 ar 
     7    6    7 1  
     8    7    8 1  
     9    8    9 1  
    10    9   10 2  
    11    9   11 am 
    12   11   12 1  
    13   12   13 1  
    14   13   14 ar 
    15   13   16 ar 
    16   14   15 ar 
    17   15   18 ar 
    18   16   17 ar 
    19   17   18 ar 
    20   18   19 1  
    21   19   20 2  
    22   19   29 1  
    23   20   21 1  
    24   21   22 ar 
    25   21   26 ar 
    26   22   23 ar 
    27   23   24 ar 
    28   24   25 ar 
    29   25   26 ar 
    30   26   27 1  
    31   27   28 2  
    32   27   29 am 
    33    1   30 1  
    34    2   31 1  
    35    3   32 1  
    36    4   33 1  
    37    5   34 1  
    38    7   35 1  
    39    7   36 1  
    40   11   37 1  
    41   12   38 1  
    42   12   39 1  
    43   14   40 1  
    44   15   41 1  
    45   16   42 1  
    46   17   43 1  
    47   22   44 1  
    48   23   45 1  
    49   24   46 1  
    50   25   47 1  
    51   29   48 1  
@<TRIPOS>SUBSTRUCTURE
     1 RJN         1

