### 
### Created by X-TOOL on Mon Sep 10 21:13:26 2018
### 

@<TRIPOS>MOLECULE
4ui5_ligand
   34    36     1     0     0
SMALL
GAST_HUCK


@<TRIPOS>ATOM
      1 CAA       -58.4460  -46.0880   15.4270 C.3       1 BJ4         0.0588
      2 OAB       -57.2670  -45.3500   15.8680 O.3       1 BJ4        -0.3215
      3 CAC       -56.6120  -44.6340   14.9000 C.ar      1 BJ4         0.1051
      4 CAD       -56.8200  -44.7550   13.5250 C.ar      1 BJ4        -0.0348
      5 CAE       -56.0630  -43.9740   12.6380 C.ar      1 BJ4        -0.0728
      6 CAF       -55.1330  -43.0440   13.1180 C.ar      1 BJ4        -0.0596
      7 CAG       -54.9190  -42.9310   14.4730 C.ar      1 BJ4         0.0553
      8 CAH       -55.6510  -43.7240   15.3740 C.ar      1 BJ4         0.0534
      9 NAI       -55.4100  -43.6270   16.7070 N.2       1 BJ4        -0.3019
     10 CAJ       -54.5020  -42.7600   17.2160 C.2       1 BJ4         0.1530
     11 NAK       -53.7920  -41.9340   16.3190 N.am      1 BJ4        -0.2032
     12 CAL       -53.9970  -41.9880   14.9740 C.2       1 BJ4         0.2301
     13 OAM       -53.3660  -41.1920   14.2510 O.2       1 BJ4        -0.3876
     14 CAN       -54.2540  -42.7020   18.5960 C.ar      1 BJ4         0.0368
     15 CAO       -55.0780  -43.3980   19.4880 C.ar      1 BJ4        -0.0470
     16 CAP       -54.8200  -43.3950   20.8610 C.ar      1 BJ4        -0.0525
     17 CAQ       -53.7280  -42.7180   21.3800 C.ar      1 BJ4        -0.0392
     18 CAR       -53.4800  -42.7130   22.7710 C.3       1 BJ4        -0.0278
     19 CAS       -52.8710  -42.0610   20.5090 C.ar      1 BJ4        -0.0525
     20 CAT       -53.1110  -42.0600   19.1280 C.ar      1 BJ4        -0.0470
     21 H1        -58.8862  -46.6210   16.2827 H         1 BJ4         0.0577
     22 H2        -58.1560  -46.8137   14.6529 H         1 BJ4         0.0577
     23 H3        -59.1846  -45.3858   15.0131 H         1 BJ4         0.0577
     24 H4        -57.5617  -45.4480   13.1446 H         1 BJ4         0.0547
     25 H5        -56.1999  -44.0922   11.5692 H         1 BJ4         0.0541
     26 H6        -54.5841  -42.4159   12.4258 H         1 BJ4         0.0551
     27 H7        -53.1184  -41.2900   16.6818 H         1 BJ4         0.2477
     28 H8        -55.9306  -43.9485   19.1071 H         1 BJ4         0.0667
     29 H9        -55.4839  -43.9302   21.5303 H         1 BJ4         0.0576
     30 H10       -52.5739  -42.1253   22.9798 H         1 BJ4         0.0406
     31 H11       -53.3361  -43.7457   23.1215 H         1 BJ4         0.0406
     32 H12       -54.3369  -42.2641   23.2946 H         1 BJ4         0.0406
     33 H13       -52.0043  -41.5416   20.9016 H         1 BJ4         0.0576
     34 H14       -52.4149  -41.5631   18.4619 H         1 BJ4         0.0667
@<TRIPOS>BOND
     1    1    2 1  
     2    2    3 1  
     3    3    4 ar 
     4    3    8 ar 
     5    4    5 ar 
     6    5    6 ar 
     7    6    7 ar 
     8    7    8 ar 
     9    7   12 1  
    10    8    9 1  
    11    9   10 2  
    12   10   11 1  
    13   10   14 1  
    14   11   12 am 
    15   12   13 2  
    16   14   15 ar 
    17   14   20 ar 
    18   15   16 ar 
    19   16   17 ar 
    20   17   18 1  
    21   17   19 ar 
    22   19   20 ar 
    23    1   21 1  
    24    1   22 1  
    25    1   23 1  
    26    4   24 1  
    27    5   25 1  
    28    6   26 1  
    29   11   27 1  
    30   15   28 1  
    31   16   29 1  
    32   18   30 1  
    33   18   31 1  
    34   18   32 1  
    35   19   33 1  
    36   20   34 1  
@<TRIPOS>SUBSTRUCTURE
     1 BJ4         1

