### 
### Created by X-TOOL on Mon Sep 10 21:13:26 2018
### 

@<TRIPOS>MOLECULE
4ui6_ligand
   34    36     1     0     0
SMALL
GAST_HUCK


@<TRIPOS>ATOM
      1 CAA       -58.8110  -46.1730   15.4730 C.3       1 ECZ         0.0600
      2 OAB       -57.6260  -45.4080   15.9320 O.3       1 ECZ        -0.3181
      3 CAC       -56.9980  -44.6920   14.9600 C.ar      1 ECZ         0.1129
      4 CAH       -56.0430  -43.7720   15.4380 C.ar      1 ECZ         0.0713
      5 NAI       -55.8210  -43.7270   16.7900 N.2       1 ECZ        -0.2753
      6 CAD       -57.2420  -44.8230   13.5920 C.ar      1 ECZ        -0.0300
      7 CAE       -56.4990  -44.0500   12.7010 C.ar      1 ECZ        -0.0686
      8 CAF       -55.5590  -43.1250   13.1660 C.ar      1 ECZ        -0.0551
      9 CAG       -55.3020  -42.9930   14.5200 C.ar      1 ECZ         0.0621
     10 CAL       -54.3820  -42.0510   14.9970 C.2       1 ECZ         0.2325
     11 OAM       -53.7220  -41.2850   14.2680 O.2       1 ECZ        -0.3866
     12 NAK       -54.1800  -42.0290   16.3710 N.am      1 ECZ        -0.1989
     13 CAJ       -54.9060  -42.8400   17.2800 C.2       1 ECZ         0.1794
     14 CAN       -54.6280  -42.7790   18.6640 C.ar      1 ECZ         0.0677
     15 CAO       -53.4670  -42.1230   19.1740 C.ar      1 ECZ        -0.0160
     16 CAP       -53.1770  -42.1100   20.5360 C.ar      1 ECZ        -0.0301
     17 CAQ       -54.0040  -42.7890   21.4490 C.ar      1 ECZ         0.0437
     18 CAT       -53.7120  -42.7860   22.8600 C.3       1 ECZ         0.3705
     19 FAV       -52.3860  -43.0770   23.0660 F         1 ECZ        -0.2277
     20 FAW       -54.4360  -43.7050   23.5230 F         1 ECZ        -0.2277
     21 FAU       -54.0200  -41.5620   23.4480 F         1 ECZ        -0.2277
     22 CAR       -55.1280  -43.4530   20.9430 C.ar      1 ECZ        -0.0301
     23 CAS       -55.4150  -43.4740   19.5600 C.ar      1 ECZ        -0.0160
     24 H1        -59.2487  -46.7162   16.3235 H         1 ECZ         0.0579
     25 H2        -58.5061  -46.8908   14.6972 H         1 ECZ         0.0579
     26 H3        -59.5570  -45.4794   15.0580 H         1 ECZ         0.0579
     27 H4        -57.9952  -45.5130   13.2291 H         1 ECZ         0.0559
     28 H5        -56.6519  -44.1675   11.6343 H         1 ECZ         0.0573
     29 H6        -55.0245  -42.5031   12.4570 H         1 ECZ         0.0564
     30 H7        -53.4866  -41.4091   16.7383 H         1 ECZ         0.2474
     31 H8        -52.7956  -41.6234   18.4850 H         1 ECZ         0.0742
     32 H9        -52.3070  -41.5724   20.8954 H         1 ECZ         0.0843
     33 H10       -55.7942  -43.9634   21.6292 H         1 ECZ         0.0843
     34 H11       -56.2637  -44.0429   19.1979 H         1 ECZ         0.0742
@<TRIPOS>BOND
     1    1    2 1  
     2    2    3 1  
     3    3    4 ar 
     4    3    6 ar 
     5    4    5 1  
     6    4    9 ar 
     7    5   13 2  
     8    6    7 ar 
     9    7    8 ar 
    10    8    9 ar 
    11    9   10 1  
    12   10   11 2  
    13   10   12 am 
    14   12   13 1  
    15   13   14 1  
    16   14   15 ar 
    17   14   23 ar 
    18   15   16 ar 
    19   16   17 ar 
    20   17   18 1  
    21   17   22 ar 
    22   18   19 1  
    23   18   20 1  
    24   18   21 1  
    25   22   23 ar 
    26    1   24 1  
    27    1   25 1  
    28    1   26 1  
    29    6   27 1  
    30    7   28 1  
    31    8   29 1  
    32   12   30 1  
    33   15   31 1  
    34   16   32 1  
    35   22   33 1  
    36   23   34 1  
@<TRIPOS>SUBSTRUCTURE
     1 ECZ         1

