### 
### Created by X-TOOL on Mon Sep 10 21:13:27 2018
### 

@<TRIPOS>MOLECULE
4ui7_ligand
   31    33     1     0     0
SMALL
GAST_HUCK


@<TRIPOS>ATOM
      1 CAD       -38.1250  -10.4700   10.1990 C.ar      1 VT3        -0.0470
      2 CAC       -38.0680  -10.2050    8.8280 C.ar      1 VT3        -0.0525
      3 CAB       -38.6070  -11.1160    7.9250 C.ar      1 VT3        -0.0392
      4 CAA       -38.5710  -10.8660    6.5460 C.3       1 VT3        -0.0278
      5 CAG       -39.2160  -12.2710    8.4130 C.ar      1 VT3        -0.0525
      6 CAF       -39.2430  -12.5630    9.7870 C.ar      1 VT3        -0.0470
      7 CAE       -38.6790  -11.6730   10.7020 C.ar      1 VT3         0.0368
      8 CAH       -38.7440  -11.9330   12.0970 C.2       1 VT3         0.1530
      9 NAI       -39.5170  -12.9380   12.6060 N.2       1 VT3        -0.3019
     10 CAJ       -39.5780  -13.1680   13.9290 C.ar      1 VT3         0.0532
     11 CAO       -40.4010  -14.1750   14.3980 C.ar      1 VT3         0.1020
     12 OAP       -41.0690  -14.9160   13.4430 O.3       1 VT3        -0.3334
     13 CAN       -40.5200  -14.4060   15.7750 C.ar      1 VT3        -0.0351
     14 CAM       -39.7950  -13.6210   16.6740 C.ar      1 VT3        -0.0728
     15 CAL       -38.9570  -12.5840   16.2050 C.ar      1 VT3        -0.0596
     16 CAK       -38.8480  -12.3730   14.8410 C.ar      1 VT3         0.0553
     17 CAQ       -37.9770  -11.3960   14.3310 C.2       1 VT3         0.2301
     18 OAR       -37.2340  -10.7370   15.0480 O.2       1 VT3        -0.3876
     19 NAS       -37.9350  -11.1760   12.9710 N.am      1 VT3        -0.2032
     20 H1        -37.7354   -9.7363   10.8954 H         1 VT3         0.0667
     21 H2        -37.6054   -9.2927    8.4693 H         1 VT3         0.0576
     22 H3        -39.0451  -11.7011    6.0095 H         1 VT3         0.0406
     23 H4        -37.5256  -10.7662    6.2186 H         1 VT3         0.0406
     24 H5        -39.1141   -9.9346    6.3279 H         1 VT3         0.0406
     25 H6        -39.6795  -12.9599    7.7162 H         1 VT3         0.0576
     26 H7        -39.7024  -13.4805   10.1367 H         1 VT3         0.0667
     27 H8        -41.6021  -15.5754   13.8712 H         1 VT3         0.2474
     28 H9        -41.1721  -15.1908   16.1408 H         1 VT3         0.0546
     29 H10       -39.8755  -13.8082   17.7387 H         1 VT3         0.0541
     30 H11       -38.4076  -11.9628   16.9031 H         1 VT3         0.0551
     31 H12       -37.3263  -10.4743   12.6007 H         1 VT3         0.2477
@<TRIPOS>BOND
     1    1    2 ar 
     2    1    7 ar 
     3    2    3 ar 
     4    3    4 1  
     5    3    5 ar 
     6    5    6 ar 
     7    6    7 ar 
     8    7    8 1  
     9    8    9 2  
    10    8   19 1  
    11    9   10 1  
    12   10   11 ar 
    13   10   16 ar 
    14   11   12 1  
    15   11   13 ar 
    16   13   14 ar 
    17   14   15 ar 
    18   15   16 ar 
    19   16   17 1  
    20   17   18 2  
    21   17   19 am 
    22    1   20 1  
    23    2   21 1  
    24    4   22 1  
    25    4   23 1  
    26    4   24 1  
    27    5   25 1  
    28    6   26 1  
    29   12   27 1  
    30   13   28 1  
    31   14   29 1  
    32   15   30 1  
    33   19   31 1  
@<TRIPOS>SUBSTRUCTURE
     1 VT3         1

