### 
### Created by X-TOOL on Mon Sep 10 21:13:27 2018
### 

@<TRIPOS>MOLECULE
4ui8_ligand
   31    33     1     0     0
SMALL
GAST_HUCK


@<TRIPOS>ATOM
      1 CAN       -55.1650  -43.4630   19.5920 C.ar      1 IY5        -0.0160
      2 CAO       -54.8950  -43.3930   20.9600 C.ar      1 IY5        -0.0301
      3 CAP       -53.7800  -42.7100   21.4740 C.ar      1 IY5         0.0437
      4 CAS       -53.5080  -42.6350   22.8930 C.3       1 IY5         0.3705
      5 FAU       -54.1310  -43.6070   23.5880 F         1 IY5        -0.2277
      6 FAV       -53.8990  -41.4130   23.4560 F         1 IY5        -0.2277
      7 FAT       -52.2060  -42.7710   23.1000 F         1 IY5        -0.2277
      8 CAQ       -52.9370  -42.0870   20.5440 C.ar      1 IY5        -0.0301
      9 CAR       -53.1990  -42.1550   19.1860 C.ar      1 IY5        -0.0160
     10 CAM       -54.3340  -42.8270   18.6730 C.ar      1 IY5         0.0677
     11 CAI       -54.5810  -42.9160   17.2800 C.2       1 IY5         0.1794
     12 NAH       -55.4970  -43.7920   16.7810 N.2       1 IY5        -0.2754
     13 CAG       -55.7300  -43.8890   15.4530 C.ar      1 IY5         0.0711
     14 CAB       -56.6910  -44.7950   14.9620 C.ar      1 IY5         0.1097
     15 OAA       -57.3840  -45.5110   15.8680 O.3       1 IY5        -0.3299
     16 CAC       -56.9330  -44.9470   13.5980 C.ar      1 IY5        -0.0303
     17 CAD       -56.1970  -44.1760   12.7050 C.ar      1 IY5        -0.0687
     18 CAE       -55.2460  -43.2620   13.1750 C.ar      1 IY5        -0.0551
     19 CAF       -55.0010  -43.1110   14.5320 C.ar      1 IY5         0.0621
     20 CAK       -54.0390  -42.1870   15.0140 C.2       1 IY5         0.2325
     21 OAL       -53.3850  -41.4370   14.2980 O.2       1 IY5        -0.3866
     22 NAJ       -53.8420  -42.1000   16.3780 N.am      1 IY5        -0.1989
     23 H1        -56.0286  -44.0170   19.2422 H         1 IY5         0.0742
     24 H2        -55.5707  -43.8838   21.6511 H         1 IY5         0.0843
     25 H3        -52.0664  -41.5435   20.8930 H         1 IY5         0.0843
     26 H4        -52.5135  -41.6787   18.4944 H         1 IY5         0.0742
     27 H5        -57.9962  -46.0813   15.4181 H         1 IY5         0.2493
     28 H6        -57.6775  -45.6497   13.2416 H         1 IY5         0.0559
     29 H7        -56.3604  -44.2832   11.6388 H         1 IY5         0.0573
     30 H8        -54.6904  -42.6607   12.4645 H         1 IY5         0.0564
     31 H9        -53.1694  -41.4533   16.7377 H         1 IY5         0.2474
@<TRIPOS>BOND
     1    1    2 ar 
     2    1   10 ar 
     3    2    3 ar 
     4    3    4 1  
     5    3    8 ar 
     6    4    5 1  
     7    4    6 1  
     8    4    7 1  
     9    8    9 ar 
    10    9   10 ar 
    11   10   11 1  
    12   11   12 2  
    13   11   22 1  
    14   12   13 1  
    15   13   14 ar 
    16   13   19 ar 
    17   14   15 1  
    18   14   16 ar 
    19   16   17 ar 
    20   17   18 ar 
    21   18   19 ar 
    22   19   20 1  
    23   20   21 2  
    24   20   22 am 
    25    1   23 1  
    26    2   24 1  
    27    8   25 1  
    28    9   26 1  
    29   15   27 1  
    30   16   28 1  
    31   17   29 1  
    32   18   30 1  
    33   22   31 1  
@<TRIPOS>SUBSTRUCTURE
     1 IY5         1

