### 
### Created by X-TOOL on Mon Sep 10 21:13:25 2018
### 

@<TRIPOS>MOLECULE
4uia_ligand
   69    69     1     0     0
SMALL
GAST_HUCK


@<TRIPOS>ATOM
      1 C23        69.0940   41.4490   43.7730 C.3       1 FH9        -0.0500
      2 C24        69.9210   42.6440   44.3030 C.3       1 FH9        -0.0528
      3 C25        69.1830   43.4340   45.4110 C.3       1 FH9        -0.0530
      4 C28        68.6880   42.5220   46.5580 C.3       1 FH9        -0.0528
      5 C29        67.8330   41.3400   46.0440 C.3       1 FH9        -0.0500
      6 C22        68.5640   40.5580   44.9240 C.3       1 FH9        -0.0369
      7 C21        67.9600   39.1890   44.4990 C.3       1 FH9        -0.0098
      8 C14        66.5080   39.1100   43.9220 C.3       1 FH9         0.1314
      9 C15        66.2850   39.9770   42.6640 C.2       1 FH9         0.2014
     10 O16        66.8320   39.6720   41.6040 O.2       1 FH9        -0.3946
     11 N17        65.4060   40.9770   42.7910 N.am      1 FH9        -0.2851
     12 C18        65.0260   41.8620   41.6760 C.3       1 FH9         0.0312
     13 C19        64.9940   43.3300   42.1420 C.3       1 FH9        -0.0304
     14 C20        65.0260   44.3760   41.0010 C.3       1 FH9        -0.0449
     15 C26        63.8010   44.3480   40.0750 C.3       1 FH9        -0.0626
     16 C27        66.3490   44.4190   40.2250 C.3       1 FH9        -0.0626
     17 N13        65.4940   39.3560   44.9690 N.am      1 FH9        -0.2518
     18 C11        64.3340   38.6940   45.0290 C.2       1 FH9         0.2614
     19 O12        64.0520   37.7910   44.2340 O.2       1 FH9        -0.4006
     20 N10        63.5160   39.0550   46.0240 N.am      1 FH9        -0.2575
     21 C6         62.1990   38.4370   46.2790 C.3       1 FH9         0.0947
     22 C7         61.2070   38.7860   45.1590 C.2       1 FH9         0.0599
     23 O8         61.1860   39.9680   44.7480 O.co2     1 FH9        -0.5666
     24 O9         60.5030   37.8490   44.7300 O.co2     1 FH9        -0.5666
     25 C5         61.6480   38.9090   47.6260 C.3       1 FH9        -0.0180
     26 C4         60.8570   37.8010   48.3250 C.3       1 FH9        -0.0446
     27 C3         59.8570   38.3980   49.3150 C.3       1 FH9        -0.0125
     28 C2         58.9420   37.3190   49.8890 C.3       1 FH9        -0.0354
     29 N1         57.7580   37.1610   49.0300 N.4       1 FH9         0.2185
     30 H1         69.7312   40.8391   43.1157 H         1 FH9         0.0268
     31 H2         68.2385   41.8350   43.1993 H         1 FH9         0.0268
     32 H3         70.1321   43.3254   43.4656 H         1 FH9         0.0265
     33 H4         70.8678   42.2629   44.7132 H         1 FH9         0.0265
     34 H5         68.3153   43.9416   44.9643 H         1 FH9         0.0265
     35 H6         69.8715   44.1835   45.8283 H         1 FH9         0.0265
     36 H7         68.0800   43.1231   47.2500 H         1 FH9         0.0265
     37 H8         69.5617   42.1201   47.0919 H         1 FH9         0.0265
     38 H9         66.8844   41.7305   45.6471 H         1 FH9         0.0268
     39 H10        67.6267   40.6569   46.8812 H         1 FH9         0.0268
     40 H11        69.4913   40.2471   45.4275 H         1 FH9         0.0303
     41 H12        67.9812   38.5443   45.3900 H         1 FH9         0.0315
     42 H13        68.6283   38.7741   43.7301 H         1 FH9         0.0315
     43 H14        66.3677   38.0688   43.5963 H         1 FH9         0.0797
     44 H15        64.9866   41.1314   43.6856 H         1 FH9         0.1851
     45 H16        64.0288   41.5762   41.3101 H         1 FH9         0.0520
     46 H17        65.7593   41.7558   40.8630 H         1 FH9         0.0520
     47 H18        65.8670   43.5026   42.7885 H         1 FH9         0.0287
     48 H19        64.0721   43.4847   42.7217 H         1 FH9         0.0287
     49 H20        64.9680   45.3467   41.5152 H         1 FH9         0.0296
     50 H21        63.9100   45.1203   39.2993 H         1 FH9         0.0232
     51 H22        62.8923   44.5446   40.6629 H         1 FH9         0.0232
     52 H23        63.7233   43.3592   39.5995 H         1 FH9         0.0232
     53 H24        67.1896   44.4377   40.9342 H         1 FH9         0.0232
     54 H25        66.3776   45.3228   39.5987 H         1 FH9         0.0232
     55 H26        66.4284   43.5273   39.5858 H         1 FH9         0.0232
     56 H27        65.6843   40.0492   45.6642 H         1 FH9         0.1877
     57 H28        63.8150   39.7894   46.6334 H         1 FH9         0.1869
     58 H29        62.3242   37.3446   46.3106 H         1 FH9         0.0723
     59 H30        60.9854   39.7711   47.4594 H         1 FH9         0.0305
     60 H31        62.4872   39.2105   48.2701 H         1 FH9         0.0305
     61 H32        61.5545   37.1451   48.8666 H         1 FH9         0.0269
     62 H33        60.3126   37.2141   47.5706 H         1 FH9         0.0269
     63 H34        59.2443   39.1506   48.7972 H         1 FH9         0.0317
     64 H35        60.4081   38.8768   50.1378 H         1 FH9         0.0317
     65 H36        58.6230   37.6108   50.9005 H         1 FH9         0.0813
     66 H37        59.4878   36.3652   49.9375 H         1 FH9         0.0813
     67 H38        57.1576   36.4478   49.4133 H         1 FH9         0.1994
     68 H39        58.0488   36.8927   48.1029 H         1 FH9         0.1994
     69 H40        57.2563   38.0341   48.9853 H         1 FH9         0.1994
@<TRIPOS>BOND
     1    1    2 1  
     2    1    6 1  
     3    2    3 1  
     4    3    4 1  
     5    4    5 1  
     6    5    6 1  
     7    6    7 1  
     8    7    8 1  
     9    8    9 1  
    10    8   17 1  
    11    9   10 2  
    12    9   11 am 
    13   11   12 1  
    14   12   13 1  
    15   13   14 1  
    16   14   15 1  
    17   14   16 1  
    18   17   18 am 
    19   18   19 2  
    20   18   20 am 
    21   20   21 1  
    22   21   22 1  
    23   21   25 1  
    24   22   23 ar 
    25   22   24 ar 
    26   25   26 1  
    27   26   27 1  
    28   27   28 1  
    29   28   29 1  
    30    1   30 1  
    31    1   31 1  
    32    2   32 1  
    33    2   33 1  
    34    3   34 1  
    35    3   35 1  
    36    4   36 1  
    37    4   37 1  
    38    5   38 1  
    39    5   39 1  
    40    6   40 1  
    41    7   41 1  
    42    7   42 1  
    43    8   43 1  
    44   11   44 1  
    45   12   45 1  
    46   12   46 1  
    47   13   47 1  
    48   13   48 1  
    49   14   49 1  
    50   15   50 1  
    51   15   51 1  
    52   15   52 1  
    53   16   53 1  
    54   16   54 1  
    55   16   55 1  
    56   17   56 1  
    57   20   57 1  
    58   21   58 1  
    59   25   59 1  
    60   25   60 1  
    61   26   61 1  
    62   26   62 1  
    63   27   63 1  
    64   27   64 1  
    65   28   65 1  
    66   28   66 1  
    67   29   67 1  
    68   29   68 1  
    69   29   69 1  
@<TRIPOS>SUBSTRUCTURE
     1 FH9         1

