### 
### Created by X-TOOL on Mon Sep 10 21:13:21 2018
### 

@<TRIPOS>MOLECULE
4uib_ligand
   80    82     1     0     0
SMALL
GAST_HUCK


@<TRIPOS>ATOM
      1 C1         65.9280   38.4330   43.5540 C.3       1 GWX         0.1314
      2 N2         64.9340   38.3820   44.6290 N.am      1 GWX        -0.2518
      3 C3         65.4780   39.2590   42.3220 C.2       1 GWX         0.2017
      4 C4         63.6680   37.8260   44.4880 C.2       1 GWX         0.2614
      5 N5         62.9210   37.8660   45.6860 N.am      1 GWX        -0.2575
      6 O6         63.2270   37.3600   43.4180 O.2       1 GWX        -0.4006
      7 O7         65.9450   39.0270   41.2080 O.2       1 GWX        -0.3946
      8 N8         64.5460   40.2780   42.5500 N.am      1 GWX        -0.2815
      9 C9         67.3170   38.8890   44.0920 C.3       1 GWX        -0.0098
     10 C10        67.5930   40.3740   44.3280 C.3       1 GWX        -0.0369
     11 C11        69.0890   40.6440   44.4740 C.3       1 GWX        -0.0500
     12 C12        69.4110   42.1140   44.7470 C.3       1 GWX        -0.0528
     13 C13        68.6650   42.6310   45.9690 C.3       1 GWX        -0.0530
     14 C14        67.1680   42.3850   45.8370 C.3       1 GWX        -0.0528
     15 C15        66.8630   40.9110   45.5610 C.3       1 GWX        -0.0500
     16 C16        61.5760   37.3080   45.8090 C.3       1 GWX         0.0947
     17 C17        60.6660   38.0520   44.8180 C.2       1 GWX         0.0599
     18 O18        60.7120   39.2300   44.5300 O.co2     1 GWX        -0.5666
     19 O19        59.7780   37.2470   44.2100 O.co2     1 GWX        -0.5666
     20 C20        61.0910   37.6150   47.2470 C.3       1 GWX        -0.0180
     21 C21        59.7380   36.9970   47.5370 C.3       1 GWX        -0.0446
     22 C22        59.2320   37.2480   48.9360 C.3       1 GWX        -0.0125
     23 C23        57.7240   37.1330   49.0500 C.3       1 GWX        -0.0354
     24 N24        57.1250   36.0680   48.2460 N.4       1 GWX         0.2185
     25 C25        64.0380   41.1640   41.4810 C.3       1 GWX         0.0482
     26 C26        62.5580   41.6790   41.7240 C.3       1 GWX        -0.0260
     27 C27        64.8280   42.5300   41.2790 C.3       1 GWX        -0.0037
     28 C28        62.6910   43.2080   41.5570 C.3       1 GWX        -0.0332
     29 C29        63.7810   43.3480   40.4580 C.3       1 GWX        -0.0245
     30 C30        63.3860   43.7570   42.8180 C.3       1 GWX        -0.0490
     31 C31        64.8490   43.3060   42.6240 C.3       1 GWX        -0.0448
     32 C32        64.1860   44.8070   40.1470 C.3       1 GWX        -0.0590
     33 C33        63.3900   42.7310   39.0960 C.3       1 GWX        -0.0590
     34 C34        66.2420   42.3670   40.6920 C.3       1 GWX        -0.0570
     35 H1         66.0520   37.3992   43.1993 H         1 GWX         0.0797
     36 H2         65.1810   38.7702   45.5168 H         1 GWX         0.1877
     37 H3         63.3325   38.2971   46.4890 H         1 GWX         0.1869
     38 H4         64.2073   40.4133   43.4811 H         1 GWX         0.1855
     39 H5         68.0688   38.5367   43.3705 H         1 GWX         0.0315
     40 H6         67.4672   38.3806   45.0558 H         1 GWX         0.0315
     41 H7         67.2277   40.9248   43.4487 H         1 GWX         0.0303
     42 H8         69.5913   40.3430   43.5428 H         1 GWX         0.0268
     43 H9         69.4735   40.0407   45.3096 H         1 GWX         0.0268
     44 H10        69.1200   42.7123   43.8710 H         1 GWX         0.0265
     45 H11        70.4926   42.2171   44.9185 H         1 GWX         0.0265
     46 H12        68.8447   43.7115   46.0700 H         1 GWX         0.0265
     47 H13        69.0375   42.1120   46.8645 H         1 GWX         0.0265
     48 H14        66.7780   42.9920   45.0067 H         1 GWX         0.0265
     49 H15        66.6731   42.6830   46.7731 H         1 GWX         0.0265
     50 H16        67.1694   40.3191   46.4361 H         1 GWX         0.0268
     51 H17        65.7799   40.7999   45.4041 H         1 GWX         0.0268
     52 H18        61.5724   36.2260   45.6112 H         1 GWX         0.0723
     53 H19        61.0166   38.7055   47.3709 H         1 GWX         0.0305
     54 H20        61.8245   37.2139   47.9619 H         1 GWX         0.0305
     55 H21        59.8159   35.9099   47.3880 H         1 GWX         0.0269
     56 H22        59.0088   37.4133   46.8263 H         1 GWX         0.0269
     57 H23        59.5302   38.2622   49.2400 H         1 GWX         0.0317
     58 H24        59.6918   36.5124   49.6124 H         1 GWX         0.0317
     59 H25        57.2834   38.0896   48.7326 H         1 GWX         0.0813
     60 H26        57.4743   36.9463   50.1049 H         1 GWX         0.0813
     61 H27        56.1263   36.0652   48.3826 H         1 GWX         0.1994
     62 H28        57.5054   35.1786   48.5294 H         1 GWX         0.1994
     63 H29        57.3304   36.2263   47.2719 H         1 GWX         0.1994
     64 H30        64.0759   40.5860   40.5459 H         1 GWX         0.0561
     65 H31        62.2103   41.4205   42.7351 H         1 GWX         0.0290
     66 H32        61.8658   41.2587   40.9796 H         1 GWX         0.0290
     67 H33        61.7405   43.7105   41.3245 H         1 GWX         0.0307
     68 H34        62.9542   43.3203   43.7306 H         1 GWX         0.0268
     69 H35        63.3122   44.8535   42.8658 H         1 GWX         0.0268
     70 H36        65.5211   44.1747   42.5637 H         1 GWX         0.0271
     71 H37        65.1688   42.6514   43.4481 H         1 GWX         0.0271
     72 H38        64.9574   44.8142   39.3629 H         1 GWX         0.0235
     73 H39        64.5841   45.2790   41.0573 H         1 GWX         0.0235
     74 H40        63.3047   45.3661   39.7994 H         1 GWX         0.0235
     75 H41        63.0877   41.6834   39.2413 H         1 GWX         0.0235
     76 H42        64.2518   42.7726   38.4136 H         1 GWX         0.0235
     77 H43        62.5522   43.2977   38.6637 H         1 GWX         0.0235
     78 H44        66.1835   41.8140   39.7429 H         1 GWX         0.0236
     79 H45        66.8719   41.8110   41.4020 H         1 GWX         0.0236
     80 H46        66.6808   43.3594   40.5116 H         1 GWX         0.0236
@<TRIPOS>BOND
     1    1    2 1  
     2    1    3 1  
     3    1    9 1  
     4    2    4 am 
     5    3    7 2  
     6    3    8 am 
     7    4    5 am 
     8    4    6 2  
     9    5   16 1  
    10    8   25 1  
    11    9   10 1  
    12   10   11 1  
    13   10   15 1  
    14   11   12 1  
    15   12   13 1  
    16   13   14 1  
    17   14   15 1  
    18   16   17 1  
    19   16   20 1  
    20   17   18 ar 
    21   17   19 ar 
    22   20   21 1  
    23   21   22 1  
    24   22   23 1  
    25   23   24 1  
    26   25   26 1  
    27   25   27 1  
    28   26   28 1  
    29   27   29 1  
    30   27   31 1  
    31   27   34 1  
    32   28   29 1  
    33   28   30 1  
    34   29   32 1  
    35   29   33 1  
    36   30   31 1  
    37    1   35 1  
    38    2   36 1  
    39    5   37 1  
    40    8   38 1  
    41    9   39 1  
    42    9   40 1  
    43   10   41 1  
    44   11   42 1  
    45   11   43 1  
    46   12   44 1  
    47   12   45 1  
    48   13   46 1  
    49   13   47 1  
    50   14   48 1  
    51   14   49 1  
    52   15   50 1  
    53   15   51 1  
    54   16   52 1  
    55   20   53 1  
    56   20   54 1  
    57   21   55 1  
    58   21   56 1  
    59   22   57 1  
    60   22   58 1  
    61   23   59 1  
    62   23   60 1  
    63   24   61 1  
    64   24   62 1  
    65   24   63 1  
    66   25   64 1  
    67   26   65 1  
    68   26   66 1  
    69   28   67 1  
    70   30   68 1  
    71   30   69 1  
    72   31   70 1  
    73   31   71 1  
    74   32   72 1  
    75   32   73 1  
    76   32   74 1  
    77   33   75 1  
    78   33   76 1  
    79   33   77 1  
    80   34   78 1  
    81   34   79 1  
    82   34   80 1  
@<TRIPOS>SUBSTRUCTURE
     1 GWX         1

