### 
### Created by X-TOOL on Mon Sep 10 21:13:25 2018
### 

@<TRIPOS>MOLECULE
4uil_ligand
   49    52     1     0     0
SMALL
GAST_HUCK


@<TRIPOS>ATOM
      1 O1         -2.7130    0.5430  -46.3040 O.3       1 QI9        -0.3704
      2 C10        -2.9000    1.2190  -45.0860 C.3       1 QI9         0.1401
      3 C11        -1.9640    2.4710  -45.0010 C.3       1 QI9         0.0187
      4 N1         -0.4580    2.1350  -44.9740 N.4       1 QI9         0.2429
      5 C15         0.0910    1.8380  -46.3790 C.3       1 QI9        -0.0307
      6 C14        -0.0850    3.0730  -47.2650 C.3       1 QI9        -0.0070
      7 C16         0.3240    3.4370  -44.4120 C.3       1 QI9        -0.0180
      8 C17        -0.0330    4.6290  -45.2950 C.3       1 QI9         0.0303
      9 C18        -0.7900    5.6570  -44.5130 C.2       1 QI9        -0.0809
     10 C19        -0.4510    6.9400  -44.4500 C.2       1 QI9        -0.1170
     11 C13        -0.8550    4.1600  -46.5110 C.3       1 QI9        -0.0129
     12 C12        -2.1880    3.5420  -46.0810 C.3       1 QI9         0.0007
     13 C4         -4.3170    1.6560  -44.8670 C.ar      1 QI9         0.0151
     14 C5         -5.1720    1.8410  -45.9750 C.ar      1 QI9        -0.0331
     15 C6         -6.4770    2.2550  -45.7620 C.ar      1 QI9        -0.0046
     16 N          -7.0260    2.5120  -44.5440 N.ar      1 QI9        -0.3134
     17 C7         -6.1940    2.3410  -43.4480 C.ar      1 QI9         0.0314
     18 C3         -4.8200    1.9130  -43.5640 C.ar      1 QI9         0.0045
     19 C2         -4.0660    1.7690  -42.3860 C.ar      1 QI9        -0.0215
     20 C8         -6.7480    2.6060  -42.1750 C.ar      1 QI9        -0.0449
     21 C9         -5.9740    2.4550  -41.0260 C.ar      1 QI9        -0.0240
     22 C1         -4.6580    2.0420  -41.1530 C.ar      1 QI9         0.0956
     23 O          -3.8290    1.8710  -40.0560 O.3       1 QI9        -0.3199
     24 C          -2.7630    2.7730  -39.9400 C.3       1 QI9         0.0597
     25 H1         -3.2883   -0.2123  -46.3373 H         1 QI9         0.2140
     26 H2         -2.6296    0.5262  -44.2755 H         1 QI9         0.0856
     27 H3         -2.2009    2.9450  -44.0371 H         1 QI9         0.0907
     28 H4         -0.2993    1.3410  -44.3736 H         1 QI9         0.2041
     29 H5         -0.4585    0.9913  -46.8163 H         1 QI9         0.0815
     30 H6          1.1593    1.5853  -46.3097 H         1 QI9         0.0815
     31 H7         -0.6438    2.7938  -48.1704 H         1 QI9         0.0321
     32 H8          0.9046    3.4600  -47.5495 H         1 QI9         0.0321
     33 H9          1.4095    3.2618  -44.4449 H         1 QI9         0.0845
     34 H10         0.0161    3.6369  -43.3751 H         1 QI9         0.0845
     35 H11         0.8992    5.0859  -45.6586 H         1 QI9         0.0533
     36 H12        -1.6721    5.3334  -43.9624 H         1 QI9         0.0677
     37 H13        -1.0493    7.6329  -43.8603 H         1 QI9         0.0290
     38 H14         0.4252    7.2987  -44.9881 H         1 QI9         0.0290
     39 H15        -1.0411    5.0185  -47.1731 H         1 QI9         0.0334
     40 H16        -2.8392    4.3315  -45.6778 H         1 QI9         0.0327
     41 H17        -2.6705    3.0793  -46.9545 H         1 QI9         0.0327
     42 H18        -4.8115    1.6611  -46.9814 H         1 QI9         0.0595
     43 H19        -7.1093    2.3841  -46.6330 H         1 QI9         0.0804
     44 H20        -3.0318    1.4480  -42.4358 H         1 QI9         0.0534
     45 H21        -7.7797    2.9282  -42.0920 H         1 QI9         0.0622
     46 H22        -6.3953    2.6576  -40.0480 H         1 QI9         0.0620
     47 H23        -2.1806    2.5381  -39.0369 H         1 QI9         0.0578
     48 H24        -3.1561    3.7977  -39.8665 H         1 QI9         0.0578
     49 H25        -2.1154    2.6912  -40.8254 H         1 QI9         0.0578
@<TRIPOS>BOND
     1    1    2 1  
     2    2    3 1  
     3    2   13 1  
     4    3    4 1  
     5    3   12 1  
     6    4    5 1  
     7    4    7 1  
     8    5    6 1  
     9    6   11 1  
    10    7    8 1  
    11    8    9 1  
    12    8   11 1  
    13    9   10 2  
    14   11   12 1  
    15   13   14 ar 
    16   13   18 ar 
    17   14   15 ar 
    18   15   16 ar 
    19   16   17 ar 
    20   17   18 ar 
    21   17   20 ar 
    22   18   19 ar 
    23   19   22 ar 
    24   20   21 ar 
    25   21   22 ar 
    26   22   23 1  
    27   23   24 1  
    28    1   25 1  
    29    2   26 1  
    30    3   27 1  
    31    4   28 1  
    32    5   29 1  
    33    5   30 1  
    34    6   31 1  
    35    6   32 1  
    36    7   33 1  
    37    7   34 1  
    38    8   35 1  
    39    9   36 1  
    40   10   37 1  
    41   10   38 1  
    42   11   39 1  
    43   12   40 1  
    44   12   41 1  
    45   14   42 1  
    46   15   43 1  
    47   19   44 1  
    48   20   45 1  
    49   21   46 1  
    50   24   47 1  
    51   24   48 1  
    52   24   49 1  
@<TRIPOS>SUBSTRUCTURE
     1 QI9         1

