### 
### Created by X-TOOL on Mon Sep 10 21:13:24 2018
### 

@<TRIPOS>MOLECULE
4uin_ligand
   49    52     1     0     0
SMALL
GAST_HUCK


@<TRIPOS>ATOM
      1 O1          4.7180   -7.6830  -57.3950 O.3       1 QI9        -0.3704
      2 C10         4.4460   -7.3750  -56.0490 C.3       1 QI9         0.1401
      3 C11         5.6570   -7.7890  -55.1600 C.3       1 QI9         0.0187
      4 N1          5.7700   -9.3150  -54.9680 N.4       1 QI9         0.2429
      5 C15         6.3790  -10.0130  -56.1950 C.3       1 QI9        -0.0307
      6 C14         7.7790   -9.4530  -56.4460 C.3       1 QI9        -0.0070
      7 C16         6.7500   -9.5690  -53.7020 C.3       1 QI9        -0.0180
      8 C17         8.1110   -8.9300  -54.0080 C.3       1 QI9         0.0303
      9 C18         8.5890   -7.8670  -53.0450 C.2       1 QI9        -0.0809
     10 C19         7.9860   -7.3890  -51.9520 C.2       1 QI9        -0.1170
     11 C13         8.0940   -8.3440  -55.4390 C.3       1 QI9        -0.0129
     12 C12         7.0220   -7.2660  -55.6220 C.3       1 QI9         0.0007
     13 C4          4.1130   -5.9300  -55.8220 C.ar      1 QI9         0.0151
     14 C5          4.5680   -4.9560  -56.7420 C.ar      1 QI9        -0.0331
     15 C6          4.2650   -3.6210  -56.5350 C.ar      1 QI9        -0.0046
     16 N           3.5430   -3.1530  -55.4830 N.ar      1 QI9        -0.3134
     17 C7          3.0920   -4.0950  -54.5670 C.ar      1 QI9         0.0314
     18 C3          3.3560   -5.5120  -54.6930 C.ar      1 QI9         0.0045
     19 C2          2.8550   -6.3920  -53.7070 C.ar      1 QI9        -0.0215
     20 C8          2.3410   -3.6190  -53.4690 C.ar      1 QI9        -0.0449
     21 C9          1.8610   -4.5170  -52.5190 C.ar      1 QI9        -0.0240
     22 C1          2.1110   -5.8770  -52.6410 C.ar      1 QI9         0.0956
     23 O           1.6260   -6.7630  -51.6730 O.3       1 QI9        -0.3199
     24 C           1.4730   -8.1560  -51.8770 C.3       1 QI9         0.0597
     25 H1          3.9772   -7.4289  -57.9328 H         1 QI9         0.2140
     26 H2          3.5727   -7.9689  -55.7416 H         1 QI9         0.0856
     27 H3          5.4668   -7.3486  -54.1701 H         1 QI9         0.0907
     28 H4          4.8562   -9.6995  -54.7856 H         1 QI9         0.2041
     29 H5          5.7456   -9.8292  -57.0754 H         1 QI9         0.0815
     30 H6          6.4432  -11.0952  -56.0089 H         1 QI9         0.0815
     31 H7          7.8287   -9.0427  -57.4654 H         1 QI9         0.0321
     32 H8          8.5179  -10.2609  -56.3394 H         1 QI9         0.0321
     33 H9          6.8750  -10.6498  -53.5398 H         1 QI9         0.0845
     34 H10         6.3185   -9.1103  -52.8001 H         1 QI9         0.0845
     35 H11         8.8538   -9.7408  -53.9787 H         1 QI9         0.0533
     36 H12         9.5598   -7.4298  -53.2737 H         1 QI9         0.0677
     37 H13         8.4690   -6.6141  -51.3585 H         1 QI9         0.0290
     38 H14         7.0118   -7.7745  -51.6550 H         1 QI9         0.0290
     39 H15         9.0826   -7.9128  -55.6549 H         1 QI9         0.0334
     40 H16         7.2920   -6.3812  -55.0269 H         1 QI9         0.0327
     41 H17         6.9637   -6.9891  -56.6850 H         1 QI9         0.0327
     42 H18         5.1516   -5.2539  -57.6056 H         1 QI9         0.0595
     43 H19         4.6277   -2.9014  -57.2600 H         1 QI9         0.0804
     44 H20         3.0459   -7.4568  -53.7766 H         1 QI9         0.0534
     45 H21         2.1392   -2.5589  -53.3665 H         1 QI9         0.0622
     46 H22         1.2865   -4.1504  -51.6760 H         1 QI9         0.0620
     47 H23         1.0750   -8.6190  -50.9620 H         1 QI9         0.0578
     48 H24         2.4498   -8.6008  -52.1180 H         1 QI9         0.0578
     49 H25         0.7753   -8.3303  -52.7094 H         1 QI9         0.0578
@<TRIPOS>BOND
     1    1    2 1  
     2    2    3 1  
     3    2   13 1  
     4    3    4 1  
     5    3   12 1  
     6    4    5 1  
     7    4    7 1  
     8    5    6 1  
     9    6   11 1  
    10    7    8 1  
    11    8    9 1  
    12    8   11 1  
    13    9   10 2  
    14   11   12 1  
    15   13   14 ar 
    16   13   18 ar 
    17   14   15 ar 
    18   15   16 ar 
    19   16   17 ar 
    20   17   18 ar 
    21   17   20 ar 
    22   18   19 ar 
    23   19   22 ar 
    24   20   21 ar 
    25   21   22 ar 
    26   22   23 1  
    27   23   24 1  
    28    1   25 1  
    29    2   26 1  
    30    3   27 1  
    31    4   28 1  
    32    5   29 1  
    33    5   30 1  
    34    6   31 1  
    35    6   32 1  
    36    7   33 1  
    37    7   34 1  
    38    8   35 1  
    39    9   36 1  
    40   10   37 1  
    41   10   38 1  
    42   11   39 1  
    43   12   40 1  
    44   12   41 1  
    45   14   42 1  
    46   15   43 1  
    47   19   44 1  
    48   20   45 1  
    49   21   46 1  
    50   24   47 1  
    51   24   48 1  
    52   24   49 1  
@<TRIPOS>SUBSTRUCTURE
     1 QI9         1

