### 
### Created by X-TOOL on Mon Sep 10 21:13:20 2018
### 

@<TRIPOS>MOLECULE
4uit_ligand
   60    63     1     0     0
SMALL
GAST_HUCK


@<TRIPOS>ATOM
      1 C01         6.9140   15.3900    8.3910 C.3       1 N1D         0.0556
      2 O05         5.7220   16.0050    7.9000 O.3       1 N1D        -0.3292
      3 C06         4.5370   15.5810    8.4310 C.ar      1 N1D         0.1123
      4 C07         4.1510   14.2540    8.4670 C.ar      1 N1D        -0.0486
      5 C09         3.1110   13.8640    9.2790 C.ar      1 N1D        -0.0857
      6 C11         2.3940   14.7920   10.0250 C.ar      1 N1D        -0.0637
      7 C12         2.7760   16.1300    9.9870 C.ar      1 N1D        -0.0465
      8 C14         3.8630   16.5220    9.2310 C.ar      1 N1D         0.1115
      9 O15         4.3850   17.7870    9.2240 O.3       1 N1D        -0.3268
     10 C16         3.5600   18.8390    8.7330 C.3       1 N1D         0.0567
     11 C20         1.0810   14.4100   10.5880 C.2       1 N1D        -0.0254
     12 C21         0.2130   13.6600    9.8820 C.2       1 N1D         0.0363
     13 N23        -1.0290   13.3570   10.3110 N.am      1 N1D        -0.2310
     14 C24        -1.9040   12.5610    9.4500 C.3       1 N1D         0.0464
     15 C28        -1.4980   13.6810   11.5920 C.2       1 N1D         0.2236
     16 O29        -2.6010   13.2620   11.9110 O.2       1 N1D        -0.3825
     17 C30        -0.6370   14.5540   12.4150 C.2       1 N1D         0.0417
     18 C31        -0.8450   15.1410   13.7010 C.2       1 N1D        -0.0373
     19 C33         0.1560   15.9930   14.0880 C.3       1 N1D         0.1222
     20 S34         1.5350   15.8130   13.0520 S.3       1 N1D        -0.1029
     21 C35         0.6220   14.8790   11.9140 C.3       1 N1D         0.0580
     22 C36         0.3080   16.6080   15.4470 C.2       1 N1D         0.2029
     23 O37         1.3710   16.4630   16.0370 O.2       1 N1D        -0.3924
     24 N38        -0.7370   17.2890   15.9940 N.am      1 N1D        -0.2675
     25 C39        -0.5810   17.9250   17.3140 C.3       1 N1D         0.0511
     26 C42        -1.7390   17.5710   18.2260 C.3       1 N1D         0.0497
     27 N45        -2.9930   17.9650   17.5740 N.am      1 N1D        -0.2348
     28 C46        -3.1860   17.2570   16.2980 C.3       1 N1D         0.0497
     29 C49        -2.0390   17.5920   15.3670 C.3       1 N1D         0.0511
     30 S52        -4.3130   18.1250   18.5320 S.o2      1 N1D         0.0386
     31 C53        -4.6130   16.5690   19.2750 C.3       1 N1D         0.0734
     32 O57        -3.9730   19.0580   19.5590 O.2       1 N1D        -0.1556
     33 O58        -5.4150   18.4370   17.6740 O.2       1 N1D        -0.1556
     34 H1          7.7870   15.8232    7.8809 H         1 N1D         0.0571
     35 H2          6.8753   14.3080    8.1965 H         1 N1D         0.0571
     36 H3          6.9978   15.5652    9.4737 H         1 N1D         0.0571
     37 H4          4.6669   13.5219    7.8564 H         1 N1D         0.0495
     38 H5          2.8462   12.8145    9.3380 H         1 N1D         0.0429
     39 H6          2.2180   16.8671   10.5531 H         1 N1D         0.0430
     40 H7          4.1084   19.7910    8.7877 H         1 N1D         0.0573
     41 H8          2.6480   18.9056    9.3444 H         1 N1D         0.0573
     42 H9          3.2864   18.6330    7.6877 H         1 N1D         0.0573
     43 H10         0.5312   13.2780    8.9131 H         1 N1D         0.0920
     44 H11        -1.4075   12.3861    8.4841 H         1 N1D         0.0566
     45 H12        -2.8471   13.1025    9.2847 H         1 N1D         0.0566
     46 H13        -2.1152   11.5959    9.9337 H         1 N1D         0.0566
     47 H14        -1.7183   14.9307   14.3167 H         1 N1D         0.0625
     48 H15        -0.2614   16.8986   13.6237 H         1 N1D         0.0811
     49 H16         0.2402   15.7940   11.4376 H         1 N1D         0.0618
     50 H17        -0.5447   19.0169   17.1856 H         1 N1D         0.0538
     51 H18         0.3570   17.5783   17.7721 H         1 N1D         0.0538
     52 H19        -1.6347   18.1071   19.1808 H         1 N1D         0.0498
     53 H20        -1.7443   16.4870   18.4127 H         1 N1D         0.0498
     54 H21        -4.1355   17.5731   15.8413 H         1 N1D         0.0498
     55 H22        -3.2091   16.1722   16.4785 H         1 N1D         0.0498
     56 H23        -2.1401   16.9998   14.4455 H         1 N1D         0.0538
     57 H24        -2.0780   18.6633   15.1206 H         1 N1D         0.0538
     58 H25        -5.4956   16.6385   19.9279 H         1 N1D         0.0482
     59 H26        -3.7378   16.2728   19.8719 H         1 N1D         0.0482
     60 H27        -4.7943   15.8177   18.4923 H         1 N1D         0.0482
@<TRIPOS>BOND
     1    1    2 1  
     2    2    3 1  
     3    3    4 ar 
     4    3    8 ar 
     5    4    5 ar 
     6    5    6 ar 
     7    6    7 ar 
     8    6   11 1  
     9    7    8 ar 
    10    8    9 1  
    11    9   10 1  
    12   11   12 2  
    13   11   21 1  
    14   12   13 1  
    15   13   14 1  
    16   13   15 am 
    17   15   16 2  
    18   15   17 1  
    19   17   18 2  
    20   17   21 1  
    21   18   19 1  
    22   19   20 1  
    23   19   22 1  
    24   20   21 1  
    25   22   23 2  
    26   22   24 am 
    27   24   25 1  
    28   24   29 1  
    29   25   26 1  
    30   26   27 1  
    31   27   28 1  
    32   27   30 am 
    33   28   29 1  
    34   30   31 1  
    35   30   32 2  
    36   30   33 2  
    37    1   34 1  
    38    1   35 1  
    39    1   36 1  
    40    4   37 1  
    41    5   38 1  
    42    7   39 1  
    43   10   40 1  
    44   10   41 1  
    45   10   42 1  
    46   12   43 1  
    47   14   44 1  
    48   14   45 1  
    49   14   46 1  
    50   18   47 1  
    51   19   48 1  
    52   21   49 1  
    53   25   50 1  
    54   25   51 1  
    55   26   52 1  
    56   26   53 1  
    57   28   54 1  
    58   28   55 1  
    59   29   56 1  
    60   29   57 1  
    61   31   58 1  
    62   31   59 1  
    63   31   60 1  
@<TRIPOS>SUBSTRUCTURE
     1 N1D         1

