### 
### Created by X-TOOL on Mon Sep 10 21:13:21 2018
### 

@<TRIPOS>MOLECULE
4uiu_ligand
   56    59     1     0     0
SMALL
GAST_HUCK


@<TRIPOS>ATOM
      1 O5         -5.8220   18.0850   17.4410 O.2       1 TVU        -0.1743
      2 S1         -4.4840   18.0840   17.9660 S.o2      1 TVU        -0.0309
      3 O4         -4.2100   18.8720   19.1360 O.2       1 TVU        -0.1743
      4 C19        -3.9620   16.4200   18.2410 C.3       1 TVU         0.0678
      5 C18        -2.4580   16.3480   18.5650 C.3       1 TVU        -0.0106
      6 C20        -3.3510   18.5200   16.6850 C.3       1 TVU         0.0678
      7 C21        -1.9090   18.3630   17.1740 C.3       1 TVU        -0.0106
      8 C17        -1.4950   16.9490   17.5490 C.3       1 TVU         0.0436
      9 N1         -1.3780   16.1030   16.3610 N.am      1 TVU        -0.2867
     10 C16        -0.2880   16.0940   15.5710 C.2       1 TVU         0.1978
     11 O3          0.7600   16.6720   15.8630 O.2       1 TVU        -0.3976
     12 C14        -0.3870   15.3200   14.3130 C.2       1 TVU         0.0879
     13 C13        -1.4000   14.5930   13.7580 C.2       1 TVU        -0.0496
     14 S           1.0030   15.3610   13.2680 S.3       1 TVU        -0.0323
     15 C15         0.1750   14.4300   12.0510 C.2       1 TVU         0.0418
     16 C12        -1.0970   14.0850   12.4660 C.2       1 TVU         0.0437
     17 C11        -1.9570   13.3290   11.5690 C.2       1 TVU         0.2161
     18 O2         -3.0650   12.9160   11.8850 O.2       1 TVU        -0.4058
     19 N          -1.4620   13.0360   10.3030 N.am      1 TVU        -0.2069
     20 C10        -2.3450   12.3150    9.3870 C.3       1 TVU         0.0599
     21 C9         -0.2170   13.4070    9.9120 C.2       1 TVU         0.0768
     22 C8          0.6550   14.0680   10.7110 C.2       1 TVU         0.0174
     23 C4          2.0320   14.3460   10.2270 C.ar      1 TVU        -0.0536
     24 C3          2.6580   15.5590   10.4990 C.ar      1 TVU        -0.0832
     25 C2          3.9420   15.8130   10.0520 C.ar      1 TVU        -0.0470
     26 C5          2.7030   13.3880    9.4710 C.ar      1 TVU        -0.0437
     27 C6          3.9770   13.6370    8.9980 C.ar      1 TVU         0.1133
     28 O1          4.6890   12.7830    8.1990 O.3       1 TVU        -0.3264
     29 C7          3.9580   11.9250    7.3250 C.3       1 TVU         0.0567
     30 C1          4.6120   14.8550    9.3060 C.ar      1 TVU         0.1138
     31 O           5.8970   14.9820    8.8550 O.3       1 TVU        -0.3283
     32 C           6.8720   15.4640    9.7740 C.3       1 TVU         0.0559
     33 H1         -4.1615   15.8282   17.3355 H         1 TVU         0.0500
     34 H2         -4.5301   16.0017   19.0850 H         1 TVU         0.0500
     35 H3         -2.1954   15.2861   18.6811 H         1 TVU         0.0303
     36 H4         -2.3002   16.8713   19.5196 H         1 TVU         0.0303
     37 H5         -3.5221   19.5658   16.3899 H         1 TVU         0.0500
     38 H6         -3.5135   17.8630   15.8179 H         1 TVU         0.0500
     39 H7         -1.7809   19.0001   18.0615 H         1 TVU         0.0303
     40 H8         -1.2399   18.7108   16.3732 H         1 TVU         0.0303
     41 H9         -0.5025   17.0035   18.0201 H         1 TVU         0.0555
     42 H10        -2.1430   15.5038   16.1250 H         1 TVU         0.1834
     43 H11        -2.3514   14.4186   14.2584 H         1 TVU         0.0515
     44 H12        -1.8271   12.1526    8.4303 H         1 TVU         0.0609
     45 H13        -3.2564   12.9063    9.2147 H         1 TVU         0.0609
     46 H14        -2.6156   11.3438    9.8269 H         1 TVU         0.0609
     47 H15         0.0991   13.1598    8.8996 H         1 TVU         0.1252
     48 H16         2.1316   16.3156   11.0695 H         1 TVU         0.0443
     49 H17         4.4225   16.7567   10.2837 H         1 TVU         0.0498
     50 H18         2.2227   12.4411    9.2523 H         1 TVU         0.0448
     51 H19         4.6599   11.3021    6.7512 H         1 TVU         0.0573
     52 H20         3.3569   12.5328    6.6327 H         1 TVU         0.0573
     53 H21         3.2936   11.2784    7.9170 H         1 TVU         0.0573
     54 H22         7.8518   15.5138    9.2764 H         1 TVU         0.0571
     55 H23         6.9325   14.7826   10.6354 H         1 TVU         0.0571
     56 H24         6.5851   16.4679   10.1201 H         1 TVU         0.0571
@<TRIPOS>BOND
     1    1    2 2  
     2    2    3 2  
     3    2    4 1  
     4    2    6 1  
     5    4    5 1  
     6    5    8 1  
     7    6    7 1  
     8    7    8 1  
     9    8    9 1  
    10    9   10 am 
    11   10   11 2  
    12   10   12 1  
    13   12   13 2  
    14   12   14 1  
    15   13   16 1  
    16   14   15 1  
    17   15   16 2  
    18   15   22 1  
    19   16   17 1  
    20   17   18 2  
    21   17   19 am 
    22   19   20 1  
    23   19   21 1  
    24   21   22 2  
    25   22   23 1  
    26   23   24 ar 
    27   23   26 ar 
    28   24   25 ar 
    29   25   30 ar 
    30   26   27 ar 
    31   27   28 1  
    32   27   30 ar 
    33   28   29 1  
    34   30   31 1  
    35   31   32 1  
    36    4   33 1  
    37    4   34 1  
    38    5   35 1  
    39    5   36 1  
    40    6   37 1  
    41    6   38 1  
    42    7   39 1  
    43    7   40 1  
    44    8   41 1  
    45    9   42 1  
    46   13   43 1  
    47   20   44 1  
    48   20   45 1  
    49   20   46 1  
    50   21   47 1  
    51   24   48 1  
    52   25   49 1  
    53   26   50 1  
    54   29   51 1  
    55   29   52 1  
    56   29   53 1  
    57   32   54 1  
    58   32   55 1  
    59   32   56 1  
@<TRIPOS>SUBSTRUCTURE
     1 TVU         1

