### 
### Created by X-TOOL on Mon Sep 10 21:13:20 2018
### 

@<TRIPOS>MOLECULE
4uiv_ligand
   53    56     1     0     0
SMALL
GAST_HUCK


@<TRIPOS>ATOM
      1 C01        -1.4670   10.3450    9.3720 C.3       1 XZB         0.0596
      2 N05        -0.6790   11.2610   10.2340 N.am      1 XZB        -0.2080
      3 C06         0.5390   11.6900    9.8260 C.2       1 XZB         0.0766
      4 C08         1.3190   12.5410   10.5580 C.2       1 XZB         0.0272
      5 C09         2.6650   12.9400   10.0380 C.ar      1 XZB        -0.0073
      6 C10         3.4870   11.9960    9.4060 C.ar      1 XZB        -0.0367
      7 C12         4.7370   12.3660    8.9150 C.ar      1 XZB        -0.0389
      8 C14         5.1520   13.6860    9.0020 C.ar      1 XZB        -0.0382
      9 C16         4.3320   14.6470    9.5990 C.ar      1 XZB         0.0398
     10 C17         3.0990   14.2680   10.1200 C.ar      1 XZB        -0.0360
     11 C19         4.7800   16.0730    9.7090 C.3       1 XZB         0.3749
     12 F20         4.6910   16.5780   10.9510 F         1 XZB        -0.2204
     13 F21         4.0270   16.8630    9.0090 F         1 XZB        -0.2204
     14 F22         6.0320   16.2230    9.2370 F         1 XZB        -0.2204
     15 C23         0.7790   13.0050   11.7900 C.2       1 XZB         0.0371
     16 S24         1.5620   14.0650   12.9290 S.3       1 XZB        -0.0432
     17 C25         0.2080   14.0050   14.0060 C.2       1 XZB         0.0694
     18 C26        -0.7760   13.1590   13.5290 C.2       1 XZB        -0.0681
     19 C28        -0.4810   12.5620   12.2810 C.2       1 XZB         0.0324
     20 C29        -1.2490   11.6510   11.4460 C.2       1 XZB         0.2122
     21 O30        -2.3620   11.2640   11.7580 O.2       1 XZB        -0.4076
     22 C31         0.1160   14.7880   15.2740 C.cat     1 XZB         0.2405
     23 N32         1.0960   15.1060   15.9660 N.pl3     1 XZB        -0.2729
     24 N34        -1.0830   15.2030   15.4880 N.pl3     1 XZB        -0.2575
     25 C36        -1.6090   16.0450   16.5550 C.3       1 XZB         0.1004
     26 C38        -2.3110   17.2270   15.9310 C.3       1 XZB         0.0109
     27 C41        -2.7760   18.2370   16.9660 C.3       1 XZB         0.0700
     28 S44        -3.9480   17.4630   18.0350 S.o2      1 XZB        -0.0307
     29 O45        -4.2280   18.3370   19.1380 O.2       1 XZB        -0.1743
     30 O46        -5.0580   16.9960   17.2550 O.2       1 XZB        -0.1743
     31 C47        -3.0270   16.0750   18.6160 C.3       1 XZB         0.0700
     32 C50        -2.5430   15.2460   17.4320 C.3       1 XZB         0.0109
     33 H1         -0.8989   10.1239    8.4563 H         1 XZB         0.0608
     34 H2         -2.4212   10.8228    9.1051 H         1 XZB         0.0608
     35 H3         -1.6648    9.4094    9.9156 H         1 XZB         0.0608
     36 H4          0.9160   11.3393    8.8664 H         1 XZB         0.1244
     37 H5          3.1477   10.9721    9.2989 H         1 XZB         0.0799
     38 H6          5.3848   11.6223    8.4652 H         1 XZB         0.0680
     39 H7          6.1184   13.9742    8.6045 H         1 XZB         0.0798
     40 H8          2.4671   15.0098   10.5949 H         1 XZB         0.0774
     41 H9         -1.7019   12.9680   14.0695 H         1 XZB         0.0399
     42 H10         0.9612   15.6480   16.8314 H         1 XZB         0.3180
     43 H11         2.0440   14.8279   15.6749 H         1 XZB         0.3180
     44 H12        -1.7803   14.8913   14.7970 H         1 XZB         0.3207
     45 H13        -0.7750   16.4106   17.1720 H         1 XZB         0.0834
     46 H14        -3.1870   16.8637   15.3736 H         1 XZB         0.0326
     47 H15        -1.6165   17.7251   15.2386 H         1 XZB         0.0326
     48 H16        -3.2465   19.0933   16.4608 H         1 XZB         0.0501
     49 H17        -1.9145   18.5863   17.5540 H         1 XZB         0.0501
     50 H18        -3.6682   15.4542   19.2589 H         1 XZB         0.0501
     51 H19        -2.1600   16.4277   19.1938 H         1 XZB         0.0501
     52 H20        -2.0122   14.3588   17.8077 H         1 XZB         0.0326
     53 H21        -3.4117   14.9288   16.8365 H         1 XZB         0.0326
@<TRIPOS>BOND
     1    1    2 1  
     2    2    3 1  
     3    2   20 am 
     4    3    4 2  
     5    4    5 1  
     6    4   15 1  
     7    5    6 ar 
     8    5   10 ar 
     9    6    7 ar 
    10    7    8 ar 
    11    8    9 ar 
    12    9   10 ar 
    13    9   11 1  
    14   11   12 1  
    15   11   13 1  
    16   11   14 1  
    17   15   16 1  
    18   15   19 2  
    19   16   17 1  
    20   17   18 2  
    21   17   22 1  
    22   18   19 1  
    23   19   20 1  
    24   20   21 2  
    25   22   23 ar 
    26   22   24 ar 
    27   24   25 1  
    28   25   26 1  
    29   25   32 1  
    30   26   27 1  
    31   27   28 1  
    32   28   29 2  
    33   28   30 2  
    34   28   31 1  
    35   31   32 1  
    36    1   33 1  
    37    1   34 1  
    38    1   35 1  
    39    3   36 1  
    40    6   37 1  
    41    7   38 1  
    42    8   39 1  
    43   10   40 1  
    44   18   41 1  
    45   23   42 1  
    46   23   43 1  
    47   24   44 1  
    48   25   45 1  
    49   26   46 1  
    50   26   47 1  
    51   27   48 1  
    52   27   49 1  
    53   31   50 1  
    54   31   51 1  
    55   32   52 1  
    56   32   53 1  
@<TRIPOS>SUBSTRUCTURE
     1 XZB         1

