### 
### Created by X-TOOL on Mon Sep 10 21:13:20 2018
### 

@<TRIPOS>MOLECULE
4uiw_ligand
   56    59     1     0     0
SMALL
GAST_HUCK


@<TRIPOS>ATOM
      1 C01        -2.7760   11.7730    8.3110 C.3       1 H1B        -0.0349
      2 C05        -1.7550   10.9550    9.0700 C.3       1 H1B         0.0676
      3 N08        -1.0070   11.8680    9.9400 N.am      1 H1B        -0.2053
      4 C09         0.2130   12.3480    9.5360 C.2       1 H1B         0.0769
      5 C11         0.9720   13.2050   10.2590 C.2       1 H1B         0.0272
      6 C12         2.2970   13.6510    9.7170 C.ar      1 H1B        -0.0073
      7 C13         3.1390   12.7430    9.0790 C.ar      1 H1B        -0.0367
      8 C15         4.3670   13.1530    8.5790 C.ar      1 H1B        -0.0389
      9 C17         4.7560   14.4710    8.6970 C.ar      1 H1B        -0.0382
     10 C19         3.9250   15.3960    9.3150 C.ar      1 H1B         0.0398
     11 C20         2.7010   14.9790    9.8320 C.ar      1 H1B        -0.0360
     12 C22         4.3350   16.8310    9.4280 C.3       1 H1B         0.3749
     13 F23         5.5980   17.0390    9.0310 F         1 H1B        -0.2204
     14 F24         4.1970   17.3130   10.6720 F         1 H1B        -0.2204
     15 F25         3.5640   17.6020    8.7100 F         1 H1B        -0.2204
     16 C26         0.4080   13.6360   11.5150 C.2       1 H1B         0.0371
     17 S27         1.1400   14.7290   12.6540 S.3       1 H1B        -0.0432
     18 C28        -0.2180   14.6090   13.7110 C.2       1 H1B         0.0694
     19 C29        -1.1610   13.7560   13.2250 C.2       1 H1B        -0.0681
     20 C31        -0.8490   13.1640   11.9860 C.2       1 H1B         0.0325
     21 C32        -1.5950   12.2360   11.1510 C.2       1 H1B         0.2124
     22 O33        -2.6980   11.8050   11.4980 O.2       1 H1B        -0.4076
     23 C34        -0.3840   15.3600   14.9370 C.cat     1 H1B         0.2405
     24 N35         0.7040   15.6840   15.6570 N.pl3     1 H1B        -0.2729
     25 N37        -1.5550   15.8060   15.1510 N.pl3     1 H1B        -0.2575
     26 C39        -2.0230   16.6330   16.2420 C.3       1 H1B         0.1004
     27 C41        -2.8000   17.7960   15.6730 C.3       1 H1B         0.0109
     28 C44        -3.2670   18.7400   16.7610 C.3       1 H1B         0.0700
     29 S47        -4.4550   17.9490   17.7990 S.o2      1 H1B        -0.0307
     30 O48        -5.5510   17.4910   16.9940 O.2       1 H1B        -0.1743
     31 O49        -4.7500   18.8030   18.9120 O.2       1 H1B        -0.1743
     32 C50        -3.5340   16.5540   18.3680 C.3       1 H1B         0.0700
     33 C53        -2.8640   15.8150   17.2060 C.3       1 H1B         0.0109
     34 H1         -3.3546   11.1133    7.6477 H         1 H1B         0.0259
     35 H2         -2.2606   12.5366    7.7099 H         1 H1B         0.0259
     36 H3         -3.4554   12.2640    9.0233 H         1 H1B         0.0259
     37 H4         -1.0687   10.4644    8.3640 H         1 H1B         0.0641
     38 H5         -2.2635   10.1918    9.6774 H         1 H1B         0.0641
     39 H6          0.5958   12.0184    8.5713 H         1 H1B         0.1244
     40 H7          2.8328   11.7086    8.9723 H         1 H1B         0.0799
     41 H8          5.0211   12.4366    8.0952 H         1 H1B         0.0680
     42 H9          5.7161   14.7866    8.3050 H         1 H1B         0.0798
     43 H10         2.0563   15.6950   10.3288 H         1 H1B         0.0774
     44 H11        -2.0887   13.5468   13.7555 H         1 H1B         0.0399
     45 H12         0.6023   16.2182   16.5318 H         1 H1B         0.3180
     46 H13         1.6393   15.3981   15.3339 H         1 H1B         0.3180
     47 H14        -2.2663   15.5433   14.4539 H         1 H1B         0.3207
     48 H15        -1.1534   17.0254   16.7895 H         1 H1B         0.0834
     49 H16        -3.6780   17.4096   15.1347 H         1 H1B         0.0326
     50 H17        -2.1550   18.3484   14.9738 H         1 H1B         0.0326
     51 H18        -3.7243   19.6272   16.2986 H         1 H1B         0.0501
     52 H19        -2.4032   19.0473   17.3687 H         1 H1B         0.0501
     53 H20        -4.2149   15.8629   18.8865 H         1 H1B         0.0501
     54 H21        -2.7583   16.8985   19.0677 H         1 H1B         0.0501
     55 H22        -2.2103   15.0441   17.6400 H         1 H1B         0.0326
     56 H23        -3.6605   15.3330   16.6201 H         1 H1B         0.0326
@<TRIPOS>BOND
     1    1    2 1  
     2    2    3 1  
     3    3    4 1  
     4    3   21 am 
     5    4    5 2  
     6    5    6 1  
     7    5   16 1  
     8    6    7 ar 
     9    6   11 ar 
    10    7    8 ar 
    11    8    9 ar 
    12    9   10 ar 
    13   10   11 ar 
    14   10   12 1  
    15   12   13 1  
    16   12   14 1  
    17   12   15 1  
    18   16   17 1  
    19   16   20 2  
    20   17   18 1  
    21   18   19 2  
    22   18   23 1  
    23   19   20 1  
    24   20   21 1  
    25   21   22 2  
    26   23   24 ar 
    27   23   25 ar 
    28   25   26 1  
    29   26   27 1  
    30   26   33 1  
    31   27   28 1  
    32   28   29 1  
    33   29   30 2  
    34   29   31 2  
    35   29   32 1  
    36   32   33 1  
    37    1   34 1  
    38    1   35 1  
    39    1   36 1  
    40    2   37 1  
    41    2   38 1  
    42    4   39 1  
    43    7   40 1  
    44    8   41 1  
    45    9   42 1  
    46   11   43 1  
    47   19   44 1  
    48   24   45 1  
    49   24   46 1  
    50   25   47 1  
    51   26   48 1  
    52   27   49 1  
    53   27   50 1  
    54   28   51 1  
    55   28   52 1  
    56   32   53 1  
    57   32   54 1  
    58   33   55 1  
    59   33   56 1  
@<TRIPOS>SUBSTRUCTURE
     1 H1B         1

