### 
### Created by X-TOOL on Mon Sep 10 21:13:24 2018
### 

@<TRIPOS>MOLECULE
4uix_ligand
   56    59     1     0     0
SMALL
GAST_HUCK


@<TRIPOS>ATOM
      1 O5         29.9820   -6.2380   11.1120 O.2       1 TVU        -0.1743
      2 S1         29.5350   -5.2410   12.0390 S.o2      1 TVU        -0.0309
      3 O4         29.8920   -3.8730   11.7810 O.2       1 TVU        -0.1743
      4 C19        27.7820   -5.3430   12.2270 C.3       1 TVU         0.0678
      5 C18        27.3320   -6.6600   12.8380 C.3       1 TVU        -0.0106
      6 C20        30.0710   -5.6750   13.6640 C.3       1 TVU         0.0678
      7 C21        29.3740   -6.8790   14.2600 C.3       1 TVU        -0.0106
      8 C17        27.8530   -6.8990   14.2380 C.3       1 TVU         0.0436
      9 N1         27.2730   -5.9430   15.1860 N.am      1 TVU        -0.2867
     10 C16        26.0320   -6.1100   15.6700 C.2       1 TVU         0.1978
     11 O3         25.2830   -7.0080   15.2820 O.2       1 TVU        -0.3976
     12 C14        25.6150   -5.2240   16.7760 C.2       1 TVU         0.0879
     13 C13        26.2750   -4.2660   17.4710 C.2       1 TVU        -0.0496
     14 S          23.9820   -5.3930   17.3280 S.3       1 TVU        -0.0323
     15 C15        24.1870   -4.1320   18.4880 C.2       1 TVU         0.0418
     16 C12        25.4670   -3.6270   18.4490 C.2       1 TVU         0.0437
     17 C11        25.9010   -2.5370   19.2660 C.2       1 TVU         0.2161
     18 O2         27.0200   -2.0360   19.2330 O.2       1 TVU        -0.4058
     19 N          24.9090   -2.0230   20.1040 N.am      1 TVU        -0.2069
     20 C10        25.2710   -0.9030   20.9680 C.3       1 TVU         0.0599
     21 C9         23.6490   -2.5260   20.1390 C.2       1 TVU         0.0768
     22 C8         23.2170   -3.5580   19.3720 C.2       1 TVU         0.0174
     23 C4         21.8090   -4.0280   19.4880 C.ar      1 TVU        -0.0536
     24 C3         21.1720   -4.0340   20.7270 C.ar      1 TVU        -0.0832
     25 C2         19.8850   -4.5210   20.8670 C.ar      1 TVU        -0.0470
     26 C5         21.1260   -4.4870   18.3640 C.ar      1 TVU        -0.0437
     27 C6         19.8360   -4.9840   18.4870 C.ar      1 TVU         0.1133
     28 O1         19.1090   -5.5050   17.4490 O.3       1 TVU        -0.3264
     29 C7         19.6980   -5.5060   16.1560 C.3       1 TVU         0.0567
     30 C1         19.2070   -4.9990   19.7540 C.ar      1 TVU         0.1138
     31 O          17.9340   -5.5030   19.7910 O.3       1 TVU        -0.3283
     32 C          17.1900   -5.3350   21.0000 C.3       1 TVU         0.0559
     33 H1         27.3153   -5.2372   11.2366 H         1 TVU         0.0500
     34 H2         27.4498   -4.5214   12.8786 H         1 TVU         0.0500
     35 H3         27.6845   -7.4787   12.1934 H         1 TVU         0.0303
     36 H4         26.2326   -6.6676   12.8722 H         1 TVU         0.0303
     37 H5         29.8925   -4.8140   14.3249 H         1 TVU         0.0500
     38 H6         31.1492   -5.8888   13.6234 H         1 TVU         0.0500
     39 H7         29.6882   -6.9532   15.3115 H         1 TVU         0.0303
     40 H8         29.7220   -7.7657   13.7098 H         1 TVU         0.0303
     41 H9         27.5318   -7.9047   14.5468 H         1 TVU         0.0555
     42 H10        27.8114   -5.1523   15.4774 H         1 TVU         0.1834
     43 H11        27.3195   -4.0117   17.2972 H         1 TVU         0.0515
     44 H12        24.3980   -0.6051   21.5673 H         1 TVU         0.0609
     45 H13        25.5984   -0.0540   20.3500 H         1 TVU         0.0609
     46 H14        26.0893   -1.2061   21.6377 H         1 TVU         0.0609
     47 H15        22.9384   -2.0714   20.8278 H         1 TVU         0.1252
     48 H16        21.6939   -3.6504   21.5962 H         1 TVU         0.0443
     49 H17        19.4084   -4.5294   21.8406 H         1 TVU         0.0498
     50 H18        21.6031   -4.4559   17.3911 H         1 TVU         0.0448
     51 H19        18.9979   -5.9526   15.4346 H         1 TVU         0.0573
     52 H20        20.6275   -6.0939   16.1769 H         1 TVU         0.0573
     53 H21        19.9245   -4.4724   15.8554 H         1 TVU         0.0573
     54 H22        16.1937   -5.7863   20.8831 H         1 TVU         0.0571
     55 H23        17.0832   -4.2623   21.2188 H         1 TVU         0.0571
     56 H24        17.7205   -5.8272   21.8284 H         1 TVU         0.0571
@<TRIPOS>BOND
     1    1    2 2  
     2    2    3 2  
     3    2    4 1  
     4    2    6 1  
     5    4    5 1  
     6    5    8 1  
     7    6    7 1  
     8    7    8 1  
     9    8    9 1  
    10    9   10 am 
    11   10   11 2  
    12   10   12 1  
    13   12   13 2  
    14   12   14 1  
    15   13   16 1  
    16   14   15 1  
    17   15   16 2  
    18   15   22 1  
    19   16   17 1  
    20   17   18 2  
    21   17   19 am 
    22   19   20 1  
    23   19   21 1  
    24   21   22 2  
    25   22   23 1  
    26   23   24 ar 
    27   23   26 ar 
    28   24   25 ar 
    29   25   30 ar 
    30   26   27 ar 
    31   27   28 1  
    32   27   30 ar 
    33   28   29 1  
    34   30   31 1  
    35   31   32 1  
    36    4   33 1  
    37    4   34 1  
    38    5   35 1  
    39    5   36 1  
    40    6   37 1  
    41    6   38 1  
    42    7   39 1  
    43    7   40 1  
    44    8   41 1  
    45    9   42 1  
    46   13   43 1  
    47   20   44 1  
    48   20   45 1  
    49   20   46 1  
    50   21   47 1  
    51   24   48 1  
    52   25   49 1  
    53   26   50 1  
    54   29   51 1  
    55   29   52 1  
    56   29   53 1  
    57   32   54 1  
    58   32   55 1  
    59   32   56 1  
@<TRIPOS>SUBSTRUCTURE
     1 TVU         1

