### 
### Created by X-TOOL on Mon Sep 10 21:13:21 2018
### 

@<TRIPOS>MOLECULE
4uiy_ligand
   53    56     1     0     0
SMALL
GAST_HUCK


@<TRIPOS>ATOM
      1 C01        24.5560   47.6670    2.0950 C.3       1 5V2         0.0596
      2 N05        24.9060   48.7100    1.1290 N.am      1 5V2        -0.2080
      3 C06        26.1580   49.2090    1.0820 C.2       1 5V2         0.0766
      4 C08        26.5270   50.1520    0.1930 C.2       1 5V2         0.0272
      5 C09        27.8920   50.7320    0.2200 C.ar      1 5V2        -0.0073
      6 C10        28.5850   50.8400    1.4230 C.ar      1 5V2        -0.0367
      7 C12        29.8350   51.4350    1.4630 C.ar      1 5V2        -0.0389
      8 C14        30.3800   51.9620    0.3130 C.ar      1 5V2        -0.0382
      9 C16        29.6830   51.8990   -0.8850 C.ar      1 5V2         0.0398
     10 C17        28.4400   51.2810   -0.9250 C.ar      1 5V2        -0.0360
     11 C19        30.2320   52.5060   -2.1270 C.3       1 5V2         0.3749
     12 F20        29.4780   53.5510   -2.5310 F         1 5V2        -0.2204
     13 F21        30.2930   51.6630   -3.1090 F         1 5V2        -0.2204
     14 F22        31.4880   52.9680   -1.9680 F         1 5V2        -0.2204
     15 C23        25.4930   50.6400   -0.7300 C.2       1 5V2         0.0371
     16 S24        25.6640   51.8170   -1.9870 S.3       1 5V2        -0.0432
     17 C25        24.0210   51.6700   -2.4200 C.2       1 5V2         0.0694
     18 C26        23.3970   50.7590   -1.6570 C.2       1 5V2        -0.0681
     19 C28        24.2090   50.1230   -0.6980 C.2       1 5V2         0.0324
     20 C29        23.9190   49.1130    0.2470 C.2       1 5V2         0.2122
     21 O30        22.7380   48.6460    0.3060 O.2       1 5V2        -0.4076
     22 C31        23.4390   52.4820   -3.5100 C.cat     1 5V2         0.2405
     23 N32        23.9120   53.5910   -3.7180 N.pl3     1 5V2        -0.2729
     24 N34        22.3300   51.9210   -4.0840 N.pl3     1 5V2        -0.2575
     25 C36        21.5820   52.4600   -5.1870 C.3       1 5V2         0.1004
     26 C38        21.6880   51.4890   -6.3380 C.3       1 5V2         0.0109
     27 C41        21.0050   52.0530   -7.5530 C.3       1 5V2         0.0700
     28 S44        19.2780   52.1150   -7.2510 S.o2      1 5V2        -0.0307
     29 O45        18.6270   52.7320   -8.3710 O.2       1 5V2        -0.1743
     30 O46        18.8240   50.8150   -6.8480 O.2       1 5V2        -0.1743
     31 C47        19.2040   53.2070   -5.8670 C.3       1 5V2         0.0700
     32 C50        20.1360   52.6890   -4.7720 C.3       1 5V2         0.0109
     33 H1         25.4279   47.4463    2.7283 H         1 5V2         0.0608
     34 H2         24.2532   46.7562    1.5577 H         1 5V2         0.0608
     35 H3         23.7240   48.0149    2.7249 H         1 5V2         0.0608
     36 H4         26.8981   48.8361    1.7885 H         1 5V2         0.1244
     37 H5         28.1428   50.4555    2.3350 H         1 5V2         0.0799
     38 H6         30.3830   51.4858    2.3969 H         1 5V2         0.0680
     39 H7         31.3581   52.4282    0.3441 H         1 5V2         0.0798
     40 H8         27.8952   51.2285   -1.8607 H         1 5V2         0.0774
     41 H9         22.3389   50.5282   -1.7712 H         1 5V2         0.0399
     42 H10        23.5290   54.1815   -4.4700 H         1 5V2         0.3180
     43 H11        24.6932   53.9342   -3.1411 H         1 5V2         0.3180
     44 H12        22.0006   51.0289   -3.6884 H         1 5V2         0.3207
     45 H13        22.0181   53.4237   -5.4887 H         1 5V2         0.0834
     46 H14        21.2081   50.5395   -6.0586 H         1 5V2         0.0326
     47 H15        22.7489   51.3103   -6.5670 H         1 5V2         0.0326
     48 H16        21.2056   51.4096   -8.4223 H         1 5V2         0.0501
     49 H17        21.3823   53.0669   -7.7523 H         1 5V2         0.0501
     50 H18        18.1734   53.2481   -5.4847 H         1 5V2         0.0501
     51 H19        19.5213   54.2142   -6.1749 H         1 5V2         0.0501
     52 H20        20.1323   53.4214   -3.9513 H         1 5V2         0.0326
     53 H21        19.7328   51.7314   -4.4108 H         1 5V2         0.0326
@<TRIPOS>BOND
     1    1    2 1  
     2    2    3 1  
     3    2   20 am 
     4    3    4 2  
     5    4    5 1  
     6    4   15 1  
     7    5    6 ar 
     8    5   10 ar 
     9    6    7 ar 
    10    7    8 ar 
    11    8    9 ar 
    12    9   10 ar 
    13    9   11 1  
    14   11   12 1  
    15   11   13 1  
    16   11   14 1  
    17   15   16 1  
    18   15   19 2  
    19   16   17 1  
    20   17   18 2  
    21   17   22 1  
    22   18   19 1  
    23   19   20 1  
    24   20   21 2  
    25   22   23 ar 
    26   22   24 ar 
    27   24   25 1  
    28   25   26 1  
    29   25   32 1  
    30   26   27 1  
    31   27   28 1  
    32   28   29 2  
    33   28   30 2  
    34   28   31 1  
    35   31   32 1  
    36    1   33 1  
    37    1   34 1  
    38    1   35 1  
    39    3   36 1  
    40    6   37 1  
    41    7   38 1  
    42    8   39 1  
    43   10   40 1  
    44   18   41 1  
    45   23   42 1  
    46   23   43 1  
    47   24   44 1  
    48   25   45 1  
    49   26   46 1  
    50   26   47 1  
    51   27   48 1  
    52   27   49 1  
    53   31   50 1  
    54   31   51 1  
    55   32   52 1  
    56   32   53 1  
@<TRIPOS>SUBSTRUCTURE
     1 5V2         1

