### 
### Created by X-TOOL on Mon Sep 10 21:13:21 2018
### 

@<TRIPOS>MOLECULE
4uiz_ligand
   58    61     1     0     0
SMALL
GAST_HUCK


@<TRIPOS>ATOM
      1 C01        32.1590   52.5450    2.3320 C.3       1 N1D         0.0559
      2 O05        31.5810   52.4690    1.0260 O.3       1 N1D        -0.3283
      3 C06        30.3130   51.9660    0.9220 C.ar      1 N1D         0.1138
      4 C07        29.5720   51.4930    1.9900 C.ar      1 N1D        -0.0470
      5 C09        28.2950   51.0160    1.7750 C.ar      1 N1D        -0.0832
      6 C11        27.7350   51.0040    0.4980 C.ar      1 N1D        -0.0536
      7 C12        28.4860   51.4590   -0.5770 C.ar      1 N1D        -0.0437
      8 C14        29.7520   51.9690   -0.3700 C.ar      1 N1D         0.1133
      9 O15        30.5420   52.4570   -1.3700 O.3       1 N1D        -0.3264
     10 C16        30.2260   52.0450   -2.6960 C.3       1 N1D         0.0567
     11 C20        26.3600   50.4780    0.2940 C.2       1 N1D         0.0174
     12 C21        25.9180   49.4620    1.0710 C.2       1 N1D         0.0768
     13 N23        24.6800   48.9350    0.9760 N.am      1 N1D        -0.2069
     14 C24        24.2890   47.8260    1.8470 C.3       1 N1D         0.0599
     15 C28        23.7340   49.3950    0.0600 C.2       1 N1D         0.2161
     16 O29        22.5920   48.8890    0.0470 O.2       1 N1D        -0.4058
     17 C30        24.1210   50.5250   -0.7990 C.2       1 N1D         0.0437
     18 C31        23.4010   51.2250   -1.8240 C.2       1 N1D        -0.0496
     19 C33        24.1260   52.2260   -2.4220 C.2       1 N1D         0.0881
     20 S34        25.7260   52.3250   -1.7740 S.3       1 N1D        -0.0323
     21 C35        25.4290   51.0240   -0.6630 C.2       1 N1D         0.0418
     22 C36        24.0150   53.2600   -3.5110 C.2       1 N1D         0.2001
     23 O37        25.0040   53.9340   -3.7620 O.2       1 N1D        -0.3974
     24 N38        22.8760   53.3900   -4.2320 N.am      1 N1D        -0.2730
     25 C39        22.8500   54.3890   -5.3070 C.3       1 N1D         0.0496
     26 C42        21.8220   55.4580   -5.0100 C.3       1 N1D         0.0495
     27 N45        20.4910   54.8310   -4.8220 N.am      1 N1D        -0.2349
     28 C46        20.5100   53.7550   -3.8140 C.3       1 N1D         0.0495
     29 C49        21.5760   52.7370   -4.1590 C.3       1 N1D         0.0496
     30 S52        19.2370   55.8660   -4.6880 S.o2      1 N1D         0.0386
     31 C53        19.3250   56.9820   -6.0360 C.3       1 N1D         0.0734
     32 O57        19.4340   56.6020   -3.4820 O.2       1 N1D        -0.1556
     33 O58        18.0450   55.0950   -4.8220 O.2       1 N1D        -0.1556
     34 H1         33.1727   52.9660    2.2604 H         1 N1D         0.0571
     35 H2         32.2107   51.5370    2.7694 H         1 N1D         0.0571
     36 H3         31.5383   53.1905    2.9707 H         1 N1D         0.0571
     37 H4         29.9917   51.4970    2.9894 H         1 N1D         0.0498
     38 H5         27.7172   50.6442    2.6134 H         1 N1D         0.0443
     39 H6         28.0779   51.4138   -1.5802 H         1 N1D         0.0448
     40 H7         30.9332   52.5057   -3.4014 H         1 N1D         0.0573
     41 H8         29.2021   52.3614   -2.9441 H         1 N1D         0.0573
     42 H9         30.2986   50.9497   -2.7668 H         1 N1D         0.0573
     43 H10        26.5987   49.0474    1.8131 H         1 N1D         0.1252
     44 H11        25.1264   47.5698    2.5126 H         1 N1D         0.0609
     45 H12        24.0282   46.9516    1.2327 H         1 N1D         0.0609
     46 H13        23.4186   48.1230    2.4505 H         1 N1D         0.0609
     47 H14        22.3757   50.9848   -2.1016 H         1 N1D         0.0515
     48 H15        22.5942   53.8940   -6.2554 H         1 N1D         0.0536
     49 H16        23.8427   54.8550   -5.3926 H         1 N1D         0.0536
     50 H17        21.7774   56.1663   -5.8504 H         1 N1D         0.0498
     51 H18        22.1065   55.9946   -4.0929 H         1 N1D         0.0498
     52 H19        19.5280   53.2599   -3.7918 H         1 N1D         0.0498
     53 H20        20.7255   54.1865   -2.8254 H         1 N1D         0.0498
     54 H21        21.6017   51.9578   -3.3830 H         1 N1D         0.0536
     55 H22        21.3423   52.2787   -5.1313 H         1 N1D         0.0536
     56 H23        18.4906   57.6963   -5.9757 H         1 N1D         0.0482
     57 H24        19.2606   56.4219   -6.9805 H         1 N1D         0.0482
     58 H25        20.2789   57.5285   -5.9980 H         1 N1D         0.0482
@<TRIPOS>BOND
     1    1    2 1  
     2    2    3 1  
     3    3    4 ar 
     4    3    8 ar 
     5    4    5 ar 
     6    5    6 ar 
     7    6    7 ar 
     8    6   11 1  
     9    7    8 ar 
    10    8    9 1  
    11    9   10 1  
    12   11   12 2  
    13   11   21 1  
    14   12   13 1  
    15   13   14 1  
    16   13   15 am 
    17   15   16 2  
    18   15   17 1  
    19   17   18 1  
    20   17   21 2  
    21   18   19 2  
    22   19   20 1  
    23   19   22 1  
    24   20   21 1  
    25   22   23 2  
    26   22   24 am 
    27   24   25 1  
    28   24   29 1  
    29   25   26 1  
    30   26   27 1  
    31   27   28 1  
    32   27   30 am 
    33   28   29 1  
    34   30   31 1  
    35   30   32 2  
    36   30   33 2  
    37    1   34 1  
    38    1   35 1  
    39    1   36 1  
    40    4   37 1  
    41    5   38 1  
    42    7   39 1  
    43   10   40 1  
    44   10   41 1  
    45   10   42 1  
    46   12   43 1  
    47   14   44 1  
    48   14   45 1  
    49   14   46 1  
    50   18   47 1  
    51   25   48 1  
    52   25   49 1  
    53   26   50 1  
    54   26   51 1  
    55   28   52 1  
    56   28   53 1  
    57   29   54 1  
    58   29   55 1  
    59   31   56 1  
    60   31   57 1  
    61   31   58 1  
@<TRIPOS>SUBSTRUCTURE
     1 N1D         1

