### 
### Created by X-TOOL on Mon Sep 10 21:13:26 2018
### 

@<TRIPOS>MOLECULE
4uj1_ligand
   42    45     1     0     0
SMALL
GAST_HUCK


@<TRIPOS>ATOM
      1 CAK       -28.8510    9.3870    2.3910 C.ar      1 NVX        -0.0267
      2 CAV       -30.2460    9.6290    2.3730 C.ar      1 NVX         0.0900
      3 NAO       -30.9430    9.5630    1.2320 N.pl3     1 NVX        -0.2329
      4 CAI       -32.3470    9.7850    1.2850 C.2       1 NVX         0.1261
      5 NAP       -33.0460   10.0540    2.4100 N.2       1 NVX        -0.2520
      6 CAU       -32.3320   10.1570    3.5930 C.2       1 NVX         0.1646
      7 OAB       -32.9420   10.3710    4.6690 O.2       1 NVX        -0.3999
      8 CAW       -30.9370    9.9570    3.5540 C.ar      1 NVX         0.0569
      9 CAH       -30.1720   10.0050    4.7380 C.ar      1 NVX        -0.0563
     10 CAG       -28.7810    9.7670    4.7290 C.ar      1 NVX        -0.0632
     11 CAT       -28.0920    9.4940    3.5290 C.ar      1 NVX        -0.0352
     12 CAY       -26.6650    9.2050    3.5660 C.3       1 NVX         0.0555
     13 CAM       -26.6920    7.5840    3.4320 C.3       1 NVX        -0.0180
     14 NAN       -25.3040    7.1720    3.0990 N.4       1 NVX         0.2308
     15 CAL       -24.5820    8.4470    2.7930 C.3       1 NVX        -0.0129
     16 CAX       -25.6930    9.5510    2.4450 C.3       1 NVX         0.0915
     17 CAQ       -24.9800   10.9390    2.4790 C.2       1 NVX         0.1436
     18 OAA       -25.0200   11.5880    3.5200 O.2       1 NVX        -0.3777
     19 CAS       -24.2690   11.4010    1.3460 C.ar      1 NVX         0.0338
     20 CAJ       -23.7960   12.7180    1.2350 C.ar      1 NVX        -0.0290
     21 CAR       -23.0950   13.0960    0.0710 C.ar      1 NVX         0.0462
     22 CL        -22.5880   14.5730   -0.1390 Cl        1 NVX        -0.0694
     23 CAE       -22.7980   12.2450   -0.9720 C.ar      1 NVX        -0.0433
     24 CAD       -23.2440   10.9320   -0.8740 C.ar      1 NVX        -0.0554
     25 CAF       -23.9420   10.5490    0.2880 C.ar      1 NVX        -0.0429
     26 H1        -28.3616    9.1050    1.4658 H         1 NVX         0.0497
     27 H2        -30.4744    9.3567    0.3382 H         1 NVX         0.2356
     28 H3        -32.9004    9.7344    0.3485 H         1 NVX         0.1585
     29 H4        -30.6642   10.2301    5.6772 H         1 NVX         0.0627
     30 H5        -28.2312    9.7946    5.6628 H         1 NVX         0.0494
     31 H6        -26.2532    9.5685    4.5190 H         1 NVX         0.0551
     32 H7        -27.3825    7.2790    2.6319 H         1 NVX         0.0843
     33 H8        -27.0074    7.1281    4.3821 H         1 NVX         0.0843
     34 H9        -25.2988    6.5612    2.2972 H         1 NVX         0.2017
     35 H10       -24.8767    6.7025    3.8819 H         1 NVX         0.2017
     36 H11       -23.9116    8.3032    1.9329 H         1 NVX         0.0844
     37 H12       -23.9945    8.7662    3.6665 H         1 NVX         0.0844
     38 H13       -26.1607    9.4085    1.4597 H         1 NVX         0.0602
     39 H14       -23.9668   13.4333    2.0314 H         1 NVX         0.0678
     40 H15       -22.2383   12.5865   -1.8352 H         1 NVX         0.0661
     41 H16       -23.0594   10.2212   -1.6713 H         1 NVX         0.0630
     42 H17       -24.2494    9.5125    0.3676 H         1 NVX         0.0673
@<TRIPOS>BOND
     1    1    2 ar 
     2    1   11 ar 
     3    2    3 1  
     4    2    8 ar 
     5    3    4 1  
     6    4    5 2  
     7    5    6 1  
     8    6    7 2  
     9    6    8 1  
    10    8    9 ar 
    11    9   10 ar 
    12   10   11 ar 
    13   11   12 1  
    14   12   13 1  
    15   12   16 1  
    16   13   14 1  
    17   14   15 1  
    18   15   16 1  
    19   16   17 1  
    20   17   18 2  
    21   17   19 1  
    22   19   20 ar 
    23   19   25 ar 
    24   20   21 ar 
    25   21   22 1  
    26   21   23 ar 
    27   23   24 ar 
    28   24   25 ar 
    29    1   26 1  
    30    3   27 1  
    31    4   28 1  
    32    9   29 1  
    33   10   30 1  
    34   12   31 1  
    35   13   32 1  
    36   13   33 1  
    37   14   34 1  
    38   14   35 1  
    39   15   36 1  
    40   15   37 1  
    41   16   38 1  
    42   20   39 1  
    43   23   40 1  
    44   24   41 1  
    45   25   42 1  
@<TRIPOS>SUBSTRUCTURE
     1 NVX         1

