### 
### Created by X-TOOL on Mon Sep 10 21:13:26 2018
### 

@<TRIPOS>MOLECULE
4uj2_ligand
   42    45     1     0     0
SMALL
GAST_HUCK


@<TRIPOS>ATOM
      1 CAK        28.4580    9.4760   -2.4320 C.ar      1 NVV        -0.0267
      2 CAV        29.8420    9.6730   -2.3930 C.ar      1 NVV         0.0900
      3 NAO        30.5070    9.5860   -1.2210 N.pl3     1 NVV        -0.2329
      4 CAI        31.8950    9.7940   -1.1980 C.2       1 NVV         0.1261
      5 NAP        32.5830   10.0670   -2.3060 N.2       1 NVV        -0.2520
      6 CAU        31.9300   10.1740   -3.5210 C.2       1 NVV         0.1646
      7 OAB        32.5960   10.4170   -4.5270 O.2       1 NVV        -0.3999
      8 CAW        30.5420    9.9790   -3.5690 C.ar      1 NVV         0.0569
      9 CAH        29.8410   10.0750   -4.7770 C.ar      1 NVV        -0.0563
     10 CAG        28.4600    9.8680   -4.8050 C.ar      1 NVV        -0.0632
     11 CAT        27.7470    9.5790   -3.6310 C.ar      1 NVV        -0.0352
     12 CAY        26.3510    9.3050   -3.6970 C.3       1 NVV         0.0555
     13 CAM        26.2270    7.7550   -3.7320 C.3       1 NVV        -0.0180
     14 NAN        24.9840    7.4240   -2.9820 N.4       1 NVV         0.2308
     15 CAL        24.3200    8.7210   -2.7680 C.3       1 NVV        -0.0129
     16 CAQ        25.0010   11.0940   -2.5790 C.2       1 NVV         0.1441
     17 CAX        25.4920    9.6390   -2.4820 C.3       1 NVV         0.0915
     18 OAA        25.2300   11.7570   -3.5850 O.2       1 NVV        -0.3777
     19 CAS        24.2140   11.6100   -1.5360 C.ar      1 NVV         0.0362
     20 CAF        23.6990   12.9110   -1.6230 C.ar      1 NVV        -0.0405
     21 CAD        22.9090   13.4400   -0.6030 C.ar      1 NVV        -0.0530
     22 CAE        22.6230   12.6570    0.5230 C.ar      1 NVV        -0.0462
     23 CAR        23.1300   11.3610    0.6110 C.ar      1 NVV         0.0154
     24 CAJ        23.9190   10.8350   -0.4190 C.ar      1 NVV        -0.0319
     25 ILA        22.6990   10.1690    2.2470 I         1 NVV        -0.0480
     26 H1         27.9276    9.2394   -1.5167 H         1 NVV         0.0497
     27 H2         30.0000    9.3688   -0.3511 H         1 NVV         0.2356
     28 H3         32.4242    9.7305   -0.2483 H         1 NVV         0.1585
     29 H4         30.3712   10.3105   -5.6927 H         1 NVV         0.0627
     30 H5         27.9303    9.9316   -5.7486 H         1 NVV         0.0494
     31 H6         25.9329    9.7832   -4.5950 H         1 NVV         0.0551
     32 H7         27.0995    7.2910   -3.2488 H         1 NVV         0.0843
     33 H8         26.1518    7.4012   -4.7708 H         1 NVV         0.0843
     34 H9         25.2060    6.9886   -2.1004 H         1 NVV         0.2017
     35 H10        24.3961    6.8086   -3.5221 H         1 NVV         0.2017
     36 H11        23.6289    8.6788   -1.9132 H         1 NVV         0.0844
     37 H12        23.7726    9.0417   -3.6666 H         1 NVV         0.0844
     38 H13        25.9903    9.4405   -1.5217 H         1 NVV         0.0602
     39 H14        23.9182   13.5147   -2.4962 H         1 NVV         0.0693
     40 H15        22.5194   14.4486   -0.6806 H         1 NVV         0.0636
     41 H16        22.0101   13.0570    1.3226 H         1 NVV         0.0683
     42 H17        24.3004    9.8229   -0.3461 H         1 NVV         0.0701
@<TRIPOS>BOND
     1    1    2 ar 
     2    1   11 ar 
     3    2    3 1  
     4    2    8 ar 
     5    3    4 1  
     6    4    5 2  
     7    5    6 1  
     8    6    7 2  
     9    6    8 1  
    10    8    9 ar 
    11    9   10 ar 
    12   10   11 ar 
    13   11   12 1  
    14   12   13 1  
    15   12   17 1  
    16   13   14 1  
    17   14   15 1  
    18   15   17 1  
    19   17   16 1  
    20   16   18 2  
    21   16   19 1  
    22   19   20 ar 
    23   19   24 ar 
    24   20   21 ar 
    25   21   22 ar 
    26   22   23 ar 
    27   23   24 ar 
    28   23   25 1  
    29    1   26 1  
    30    3   27 1  
    31    4   28 1  
    32    9   29 1  
    33   10   30 1  
    34   12   31 1  
    35   13   32 1  
    36   13   33 1  
    37   14   34 1  
    38   14   35 1  
    39   15   36 1  
    40   15   37 1  
    41   17   38 1  
    42   20   39 1  
    43   21   40 1  
    44   22   41 1  
    45   24   42 1  
@<TRIPOS>SUBSTRUCTURE
     1 NVV         1

