### 
### Created by X-TOOL on Mon Sep 10 21:13:26 2018
### 

@<TRIPOS>MOLECULE
4uj9_ligand
   47    50     1     0     0
SMALL
GAST_HUCK


@<TRIPOS>ATOM
      1 F01        20.7560   12.9120    1.4360 F         1 S3N        -0.2193
      2 C02        21.9700   13.3680    1.3890 C.3       1 S3N         0.3786
      3 F03        22.4060   13.1520    2.5970 F         1 S3N        -0.2193
      4 F04        22.0250   14.6600    1.2660 F         1 S3N        -0.2193
      5 C05        22.7750   12.7090    0.3290 C.ar      1 S3N         0.0509
      6 C06        23.0950   13.4300   -0.8230 C.ar      1 S3N        -0.0275
      7 C07        23.8670   12.8260   -1.8240 C.ar      1 S3N        -0.0153
      8 C08        24.3320   11.5160   -1.6400 C.ar      1 S3N         0.0603
      9 C09        24.0150   10.7940   -0.5050 C.ar      1 S3N        -0.0153
     10 C10        23.2240   11.4070    0.4950 C.ar      1 S3N        -0.0275
     11 C11        25.1910   10.8150   -2.6790 C.2       1 S3N         0.1628
     12 O12        25.5350   11.4170   -3.7050 O.2       1 S3N        -0.3646
     13 C13        25.6540    9.4060   -2.4940 C.3       1 S3N         0.0956
     14 C14        24.5330    8.4010   -2.6370 C.3       1 S3N        -0.0125
     15 N15        25.2070    7.1810   -3.0690 N.4       1 S3N         0.2308
     16 C16        26.4930    7.6010   -3.6950 C.3       1 S3N        -0.0180
     17 C17        26.5350    9.1280   -3.6570 C.3       1 S3N         0.0552
     18 C18        28.0010    9.3740   -3.6670 C.ar      1 S3N        -0.0392
     19 C19        28.7140    9.3500   -2.4650 C.ar      1 S3N        -0.0366
     20 C20        30.1230    9.5470   -2.4190 C.ar      1 S3N         0.0539
     21 C21        30.8090    9.7800   -3.5840 C.ar      1 S3N         0.0600
     22 C22        30.0870    9.8190   -4.8330 C.ar      1 S3N        -0.0594
     23 C23        28.6970    9.6260   -4.8720 C.ar      1 S3N        -0.0667
     24 C24        32.2980    9.9800   -3.5630 C.2       1 S3N         0.1935
     25 O25        32.9170   10.1460   -4.5960 O.2       1 S3N        -0.3950
     26 N26        32.9340    9.9370   -2.3040 N.am      1 S3N        -0.2692
     27 C27        32.2040    9.7160   -1.0940 C.3       1 S3N         0.1095
     28 N28        30.7740    9.5340   -1.1170 N.pl3     1 S3N        -0.2998
     29 H1         22.7485   14.4502   -0.9421 H         1 S3N         0.0857
     30 H2         24.1029   13.3669   -2.7333 H         1 S3N         0.0743
     31 H3         24.3663    9.7758   -0.3831 H         1 S3N         0.0743
     32 H4         22.9680   10.8576    1.3937 H         1 S3N         0.0857
     33 H5         26.1727    9.2871   -1.5313 H         1 S3N         0.0606
     34 H6         23.8038    8.7329   -3.3908 H         1 S3N         0.0844
     35 H7         24.0217    8.2459   -1.6755 H         1 S3N         0.0844
     36 H8         24.6383    6.6889   -3.7402 H         1 S3N         0.2017
     37 H9         25.3850    6.5834   -2.2771 H         1 S3N         0.2017
     38 H10        26.5386    7.2483   -4.7359 H         1 S3N         0.0843
     39 H11        27.3407    7.1863   -3.1298 H         1 S3N         0.0843
     40 H12        26.0960    9.5996   -4.5485 H         1 S3N         0.0551
     41 H13        28.1774    9.1760   -1.5393 H         1 S3N         0.0464
     42 H14        30.6265   10.0002   -5.7556 H         1 S3N         0.0619
     43 H15        28.1635    9.6696   -5.8146 H         1 S3N         0.0464
     44 H16        33.9247   10.0649   -2.2564 H         1 S3N         0.1858
     45 H17        32.3993   10.5838   -0.4469 H         1 S3N         0.0784
     46 H18        32.6278    8.8118   -0.6327 H         1 S3N         0.0784
     47 H19        30.2358    9.4004   -0.2490 H         1 S3N         0.1800
@<TRIPOS>BOND
     1    1    2 1  
     2    2    3 1  
     3    2    4 1  
     4    2    5 1  
     5    5    6 ar 
     6    5   10 ar 
     7    6    7 ar 
     8    7    8 ar 
     9    8    9 ar 
    10    8   11 1  
    11    9   10 ar 
    12   11   12 2  
    13   11   13 1  
    14   13   14 1  
    15   13   17 1  
    16   14   15 1  
    17   15   16 1  
    18   16   17 1  
    19   17   18 1  
    20   18   19 ar 
    21   18   23 ar 
    22   19   20 ar 
    23   20   21 ar 
    24   20   28 1  
    25   21   22 ar 
    26   21   24 1  
    27   22   23 ar 
    28   24   25 2  
    29   24   26 am 
    30   26   27 1  
    31   27   28 1  
    32    6   29 1  
    33    7   30 1  
    34    9   31 1  
    35   10   32 1  
    36   13   33 1  
    37   14   34 1  
    38   14   35 1  
    39   15   36 1  
    40   15   37 1  
    41   16   38 1  
    42   16   39 1  
    43   17   40 1  
    44   19   41 1  
    45   22   42 1  
    46   23   43 1  
    47   26   44 1  
    48   27   45 1  
    49   27   46 1  
    50   28   47 1  
@<TRIPOS>SUBSTRUCTURE
     1 S3N         1

