### 
### Created by X-TOOL on Mon Sep 10 21:13:26 2018
### 

@<TRIPOS>MOLECULE
4uja_ligand
   39    42     1     0     0
SMALL
GAST_HUCK


@<TRIPOS>ATOM
      1 C4        -25.1360   10.9650    2.6720 C.2       1 4L7         0.1493
      2 C5        -25.6440    9.5380    2.5840 C.3       1 4L7         0.0907
      3 C6        -24.4950    8.5130    2.6660 C.3       1 4L7        -0.0132
      4 C7        -26.3590    7.5680    3.7160 C.3       1 4L7        -0.0181
      5 BR        -22.1210   14.3580   -0.7520 Br        1 4L7        -0.0321
      6 C1        -23.1970   11.6900   -0.4750 C.2       1 4L7        -0.0552
      7 C2        -23.9650   10.8590    0.3780 C.2       1 4L7        -0.0503
      8 C3        -24.3210   11.4670    1.5640 C.2       1 4L7         0.0867
      9 C         -22.9820   12.9050    0.0660 C.2       1 4L7         0.0735
     10 O         -25.3920   11.6590    3.6400 O.2       1 4L7        -0.3825
     11 N         -25.0510    7.2520    3.1220 N.4       1 4L7         0.2307
     12 O1        -32.9220   10.1390    4.6570 O.2       1 4L7        -0.3875
     13 C15       -32.2390    9.9970    3.6470 C.2       1 4L7         0.2340
     14 N1        -32.7980    9.8230    2.4120 N.am      1 4L7        -0.1989
     15 C16       -32.0730    9.5410    1.3020 C.2       1 4L7         0.1266
     16 N2        -30.7690    9.3920    1.2760 N.2       1 4L7        -0.2978
     17 C11       -30.0990    9.5710    2.4960 C.ar      1 4L7         0.0173
     18 C10       -28.7140    9.3890    2.5200 C.ar      1 4L7        -0.0485
     19 C12       -30.7760    9.8890    3.6790 C.ar      1 4L7         0.0577
     20 C13       -30.0590   10.0590    4.8640 C.ar      1 4L7        -0.0537
     21 C14       -28.6910    9.8580    4.8730 C.ar      1 4L7        -0.0605
     22 C9        -28.0070    9.5030    3.7150 C.ar      1 4L7        -0.0346
     23 C8        -26.5480    9.0970    3.7790 C.3       1 4L7         0.0556
     24 S         -23.6760   13.0830    1.6380 S.3       1 4L7        -0.0205
     25 H1        -26.1925    9.4290    1.6367 H         1 4L7         0.0598
     26 H2        -23.7321    8.8634    3.3767 H         1 4L7         0.0843
     27 H3        -24.0392    8.3828    1.6734 H         1 4L7         0.0843
     28 H4        -26.4085    7.1517    4.7330 H         1 4L7         0.0843
     29 H5        -27.1562    7.1266    3.0999 H         1 4L7         0.0843
     30 H6        -22.8249   11.3831   -1.4514 H         1 4L7         0.0495
     31 H7        -24.2470    9.8388    0.1220 H         1 4L7         0.0534
     32 H8        -24.4467    6.8331    3.8115 H         1 4L7         0.2017
     33 H9        -25.1641    6.6193    2.3455 H         1 4L7         0.2017
     34 H10       -33.7904    9.9079    2.3230 H         1 4L7         0.2556
     35 H11       -32.6121    9.4298    0.3623 H         1 4L7         0.1519
     36 H12       -28.1857    9.1574    1.6022 H         1 4L7         0.0504
     37 H13       -30.5725   10.3475    5.7740 H         1 4L7         0.0634
     38 H14       -28.1415    9.9793    5.7995 H         1 4L7         0.0517
     39 H15       -26.1387    9.4972    4.7183 H         1 4L7         0.0550
@<TRIPOS>BOND
     1    2    1 1  
     2    1    8 1  
     3    1   10 2  
     4    2    3 1  
     5   23    2 1  
     6   11    3 1  
     7    4   11 1  
     8   23    4 1  
     9    9    5 1  
    10    7    6 1  
    11    9    6 2  
    12    8    7 2  
    13    8   24 1  
    14   24    9 1  
    15   13   12 2  
    16   13   14 am 
    17   19   13 1  
    18   15   14 1  
    19   16   15 2  
    20   17   16 1  
    21   18   17 ar 
    22   17   19 ar 
    23   22   18 ar 
    24   20   19 ar 
    25   21   20 ar 
    26   22   21 ar 
    27   22   23 1  
    28    2   25 1  
    29    3   26 1  
    30    3   27 1  
    31    4   28 1  
    32    4   29 1  
    33    6   30 1  
    34    7   31 1  
    35   11   32 1  
    36   11   33 1  
    37   14   34 1  
    38   15   35 1  
    39   18   36 1  
    40   20   37 1  
    41   21   38 1  
    42   23   39 1  
@<TRIPOS>SUBSTRUCTURE
     1 4L7         1

