### 
### Created by X-TOOL on Mon Sep 10 21:13:26 2018
### 

@<TRIPOS>MOLECULE
4ujb_ligand
   44    47     1     0     0
SMALL
GAST_HUCK


@<TRIPOS>ATOM
      1 F01       -23.3420   10.8370   -1.7070 F         1 8BQ        -0.1822
      2 C02       -23.4940   11.5220   -0.6120 C.ar      1 8BQ         0.1381
      3 C03       -22.9880   12.7420   -0.5110 C.ar      1 8BQ        -0.0236
      4 C04       -23.1690   13.4880    0.6890 C.ar      1 8BQ        -0.0577
      5 C05       -23.8720   12.9050    1.7500 C.ar      1 8BQ        -0.0471
      6 C06       -24.3880   11.6220    1.6270 C.ar      1 8BQ         0.0314
      7 C07       -24.2180   10.9190    0.4740 C.ar      1 8BQ        -0.0095
      8 C08       -25.1700   10.9690    2.7570 C.2       1 8BQ         0.1426
      9 O09       -25.4760   11.6320    3.7780 O.2       1 8BQ        -0.3777
     10 C10       -25.6390    9.5170    2.5790 C.3       1 8BQ         0.0913
     11 C11       -24.4980    8.4170    2.6920 C.3       1 8BQ        -0.0129
     12 N12       -25.0990    7.3530    3.1610 N.4       1 8BQ         0.2308
     13 C13       -26.5110    7.8130    3.7330 C.3       1 8BQ        -0.0181
     14 C14       -26.5090    9.1800    3.7480 C.3       1 8BQ         0.0548
     15 C15       -28.0530    9.4390    3.7460 C.ar      1 8BQ        -0.0392
     16 C16       -28.7090    9.3850    2.5460 C.ar      1 8BQ        -0.0366
     17 C17       -30.1160    9.5770    2.4900 C.ar      1 8BQ         0.0539
     18 C18       -30.8150    9.8340    3.6540 C.ar      1 8BQ         0.0600
     19 C19       -30.1190    9.8980    4.9090 C.ar      1 8BQ        -0.0594
     20 C20       -28.7630    9.7110    4.9610 C.ar      1 8BQ        -0.0667
     21 C21       -32.3140   10.0410    3.5800 C.2       1 8BQ         0.1935
     22 O22       -32.9770   10.2600    4.5960 O.2       1 8BQ        -0.3950
     23 N23       -32.9430    9.9730    2.3370 N.am      1 8BQ        -0.2692
     24 C24       -32.2000    9.7100    1.1320 C.3       1 8BQ         0.1095
     25 N25       -30.7740    9.5070    1.1970 N.pl3     1 8BQ        -0.2998
     26 H1        -22.4373   13.1719   -1.3399 H         1 8BQ         0.0642
     27 H2        -22.7687   14.4913    0.7792 H         1 8BQ         0.0620
     28 H3        -24.0141   13.4577    2.6716 H         1 8BQ         0.0637
     29 H4        -24.6229    9.9183    0.3759 H         1 8BQ         0.0658
     30 H5        -26.1738    9.4200    1.6227 H         1 8BQ         0.0602
     31 H6        -23.7072    8.7494    3.3805 H         1 8BQ         0.0844
     32 H7        -24.0609    8.2103    1.7040 H         1 8BQ         0.0844
     33 H8        -24.5467    6.9425    3.8975 H         1 8BQ         0.2017
     34 H9        -25.2299    6.6786    2.4234 H         1 8BQ         0.2017
     35 H10       -26.6507    7.4241    4.7524 H         1 8BQ         0.0843
     36 H11       -27.3197    7.4434    3.0855 H         1 8BQ         0.0843
     37 H12       -26.0664    9.6121    4.6576 H         1 8BQ         0.0551
     38 H13       -28.1533    9.1951    1.6349 H         1 8BQ         0.0464
     39 H14       -30.6706   10.0956    5.8210 H         1 8BQ         0.0619
     40 H15       -28.2352    9.7678    5.9061 H         1 8BQ         0.0464
     41 H16       -33.9320   10.1100    2.2814 H         1 8BQ         0.1858
     42 H17       -32.3693   10.5650    0.4609 H         1 8BQ         0.0784
     43 H18       -32.6304    8.8019    0.6847 H         1 8BQ         0.0784
     44 H19       -30.2319    9.3159    0.3423 H         1 8BQ         0.1800
@<TRIPOS>BOND
     1    1    2 1  
     2    2    3 ar 
     3    2    7 ar 
     4    3    4 ar 
     5    4    5 ar 
     6    5    6 ar 
     7    6    7 ar 
     8    6    8 1  
     9    8    9 2  
    10    8   10 1  
    11   10   11 1  
    12   10   14 1  
    13   11   12 1  
    14   12   13 1  
    15   13   14 1  
    16   14   15 1  
    17   15   16 ar 
    18   15   20 ar 
    19   16   17 ar 
    20   17   18 ar 
    21   17   25 1  
    22   18   19 ar 
    23   18   21 1  
    24   19   20 ar 
    25   21   22 2  
    26   21   23 am 
    27   23   24 1  
    28   24   25 1  
    29    3   26 1  
    30    4   27 1  
    31    5   28 1  
    32    7   29 1  
    33   10   30 1  
    34   11   31 1  
    35   11   32 1  
    36   12   33 1  
    37   12   34 1  
    38   13   35 1  
    39   13   36 1  
    40   14   37 1  
    41   16   38 1  
    42   19   39 1  
    43   20   40 1  
    44   23   41 1  
    45   24   42 1  
    46   24   43 1  
    47   25   44 1  
@<TRIPOS>SUBSTRUCTURE
     1 8BQ         1

