### 
### Created by X-TOOL on Mon Sep 10 21:13:24 2018
### 

@<TRIPOS>MOLECULE
4um1_ligand
   36    37     1     0     0
SMALL
GAST_HUCK


@<TRIPOS>ATOM
      1 C1         14.2820   30.5390  -15.2490 C.3       1 09P        -0.0134
      2 N1         14.1880   31.3740  -14.0170 N.4       1 09P         0.2284
      3 C2         15.3010   31.3400  -13.0270 C.3       1 09P        -0.0318
      4 C3         16.5360   32.1270  -13.5100 C.3       1 09P         0.0073
      5 C4         17.0910   31.6070  -14.8430 C.3       1 09P         0.0330
      6 N2         16.2180   32.0900  -15.9230 N.pl3     1 09P        -0.2997
      7 C5         15.2610   31.0360  -16.3450 C.3       1 09P         0.0679
      8 C6         16.9000   35.6300  -18.0660 C.ar      1 09P         0.0258
      9 C7         17.8360   35.2440  -17.0910 C.ar      1 09P         0.1070
     10 C8         17.6020   34.0390  -16.3540 C.ar      1 09P         0.0027
     11 C9         16.4550   33.2470  -16.6070 C.ar      1 09P         0.0592
     12 C10        15.6030   33.7560  -17.6260 C.ar      1 09P         0.0169
     13 N3         15.8120   34.8990  -18.3330 N.ar      1 09P        -0.3201
     14 O1         18.9090   36.0880  -16.8670 O.3       1 09P        -0.3141
     15 C11        18.8680   36.7500  -15.5980 C.3       1 09P         0.0690
     16 C12        20.2720   36.7480  -15.0130 C.3       1 09P        -0.0369
     17 H1         13.2781   30.4868  -15.6955 H         1 09P         0.0833
     18 H2         14.6017   29.5309  -14.9467 H         1 09P         0.0833
     19 H3         13.3529   31.0877  -13.5306 H         1 09P         0.2014
     20 H4         14.0905   32.3313  -14.3172 H         1 09P         0.2014
     21 H5         15.5925   30.2929  -12.8578 H         1 09P         0.0814
     22 H6         14.9482   31.7797  -12.0824 H         1 09P         0.0814
     23 H7         17.3239   32.0471  -12.7466 H         1 09P         0.0336
     24 H8         16.2527   33.1825  -13.6355 H         1 09P         0.0336
     25 H9         17.1032   30.5071  -14.8377 H         1 09P         0.0518
     26 H10        18.1132   31.9844  -14.9935 H         1 09P         0.0518
     27 H11        14.6625   31.4362  -17.1766 H         1 09P         0.0569
     28 H12        15.8435   30.1712  -16.6953 H         1 09P         0.0569
     29 H13        17.0648   36.5480  -18.6184 H         1 09P         0.0641
     30 H14        18.3103   33.7293  -15.5941 H         1 09P         0.0549
     31 H15        14.7117   33.1846  -17.8588 H         1 09P         0.0633
     32 H16        18.1828   36.2171  -14.9224 H         1 09P         0.0613
     33 H17        18.5214   37.7856  -15.7297 H         1 09P         0.0613
     34 H18        20.2627   37.2530  -14.0358 H         1 09P         0.0256
     35 H19        20.9536   37.2791  -15.6937 H         1 09P         0.0256
     36 H20        20.6150   35.7106  -14.8864 H         1 09P         0.0256
@<TRIPOS>BOND
     1    1    2 1  
     2    7    1 1  
     3    2    3 1  
     4    4    3 1  
     5    5    4 1  
     6    6    5 1  
     7    6    7 1  
     8   11    6 1  
     9    9    8 ar 
    10    8   13 ar 
    11   10    9 ar 
    12    9   14 1  
    13   10   11 ar 
    14   11   12 ar 
    15   12   13 ar 
    16   14   15 1  
    17   15   16 1  
    18    1   17 1  
    19    1   18 1  
    20    2   19 1  
    21    2   20 1  
    22    3   21 1  
    23    3   22 1  
    24    4   23 1  
    25    4   24 1  
    26    5   25 1  
    27    5   26 1  
    28    7   27 1  
    29    7   28 1  
    30    8   29 1  
    31   10   30 1  
    32   12   31 1  
    33   15   32 1  
    34   15   33 1  
    35   16   34 1  
    36   16   35 1  
    37   16   36 1  
@<TRIPOS>SUBSTRUCTURE
     1 09P         1

