### 
### Created by X-TOOL on Mon Sep 10 21:13:24 2018
### 

@<TRIPOS>MOLECULE
4um3_ligand
   29    30     1     0     0
SMALL
GAST_HUCK


@<TRIPOS>ATOM
      1 C1        -53.2170   64.4710  -26.4310 C.ar      1 09R         0.0285
      2 C2        -51.9880   65.1380  -26.6820 C.ar      1 09R         0.0689
      3 C3        -51.4290   65.8550  -25.5760 C.ar      1 09R        -0.0241
      4 C4        -52.1590   65.9310  -24.3850 C.ar      1 09R        -0.0341
      5 C5        -53.3460   65.1810  -24.2330 C.ar      1 09R         0.0757
      6 N1        -53.8810   64.4810  -25.2660 N.ar      1 09R        -0.2988
      7 BR1       -54.2300   65.1400  -22.7390 Br        1 09R        -0.0314
      8 N2        -51.4640   65.1200  -27.9650 N.pl3     1 09R        -0.2974
      9 C6        -51.7540   64.0150  -28.8900 C.3       1 09R         0.0681
     10 C7        -50.5130   63.6100  -29.6860 C.3       1 09R        -0.0133
     11 N3        -49.4280   63.2350  -28.7770 N.4       1 09R         0.2284
     12 C8        -48.4230   64.2840  -28.4340 C.3       1 09R        -0.0318
     13 C9        -48.9330   65.6480  -27.8910 C.3       1 09R         0.0073
     14 C10       -50.3630   66.0310  -28.3440 C.3       1 09R         0.0333
     15 H1        -53.6537   63.9080  -27.2480 H         1 09R         0.0723
     16 H2        -50.4583   66.3301  -25.6599 H         1 09R         0.0635
     17 H3        -51.8131   66.5664  -23.5777 H         1 09R         0.0678
     18 H4        -52.5402   64.3325  -29.5908 H         1 09R         0.0569
     19 H5        -52.1064   63.1481  -28.3119 H         1 09R         0.0569
     20 H6        -50.1887   64.4567  -30.3087 H         1 09R         0.0833
     21 H7        -50.7588   62.7535  -30.3309 H         1 09R         0.0833
     22 H8        -48.9307   62.4675  -29.2008 H         1 09R         0.2014
     23 H9        -49.8494   62.9271  -27.9146 H         1 09R         0.2014
     24 H10       -47.8465   64.4928  -29.3472 H         1 09R         0.0814
     25 H11       -47.7569   63.8583  -27.6691 H         1 09R         0.0814
     26 H12       -48.2431   66.4330  -28.2343 H         1 09R         0.0336
     27 H13       -48.9218   65.6050  -26.7919 H         1 09R         0.0336
     28 H14       -50.5906   67.0190  -27.9173 H         1 09R         0.0518
     29 H15       -50.3541   66.0989  -29.4419 H         1 09R         0.0518
@<TRIPOS>BOND
     1    1    2 ar 
     2    1    6 ar 
     3    2    3 ar 
     4    2    8 1  
     5    3    4 ar 
     6    4    5 ar 
     7    5    6 ar 
     8    5    7 1  
     9    8    9 1  
    10    8   14 1  
    11    9   10 1  
    12   10   11 1  
    13   11   12 1  
    14   12   13 1  
    15   13   14 1  
    16    1   15 1  
    17    3   16 1  
    18    4   17 1  
    19    9   18 1  
    20    9   19 1  
    21   10   20 1  
    22   10   21 1  
    23   11   22 1  
    24   11   23 1  
    25   12   24 1  
    26   12   25 1  
    27   13   26 1  
    28   13   27 1  
    29   14   28 1  
    30   14   29 1  
@<TRIPOS>SUBSTRUCTURE
     1 09R         1

