### 
### Created by X-TOOL on Mon Sep 10 21:13:19 2018
### 

@<TRIPOS>MOLECULE
4umq_ligand
   56    58     1     0     0
SMALL
GAST_HUCK


@<TRIPOS>ATOM
      1 C1         34.4160   20.4290   19.4130 C.3       1 B5S         0.0589
      2 O2         33.5690   19.5210   18.7170 O.3       1 B5S        -0.3269
      3 C3         32.2810   19.9140   18.4620 C.ar      1 B5S         0.0724
      4 C4         31.7770   21.1780   18.7300 C.ar      1 B5S        -0.0177
      5 C5         30.4530   21.4700   18.4320 C.ar      1 B5S         0.0692
      6 O6         29.9460   22.7110   18.6920 O.3       1 B5S        -0.3388
      7 C7         29.6350   20.4990   17.8660 C.ar      1 B5S        -0.0233
      8 C8         30.1290   19.2250   17.5920 C.ar      1 B5S         0.0411
      9 N9         29.2540   18.2700   17.0150 N.pl3     1 B5S        -0.2790
     10 C10        29.4540   17.0980   16.2500 C.ar      1 B5S         0.0538
     11 C11        30.6600   16.7930   15.6230 C.ar      1 B5S        -0.0444
     12 C12        30.7960   15.6300   14.8860 C.ar      1 B5S        -0.0593
     13 C13        29.7270   14.7420   14.7560 C.ar      1 B5S         0.0720
     14 C14        29.9360   13.4940   13.9410 C.2       1 B5S         0.2181
     15 O15        31.0200   13.2620   13.4020 O.2       1 B5S        -0.3848
     16 N16        28.8580   12.6650   13.8510 N.am      1 B5S        -0.2367
     17 C17        28.6150   11.5290   13.0380 C.ar      1 B5S         0.0654
     18 C18        27.3940   10.8900   13.2270 C.ar      1 B5S        -0.0413
     19 C19        27.0670    9.7770   12.4820 C.ar      1 B5S        -0.0755
     20 C20        27.9460    9.2900   11.5470 C.ar      1 B5S        -0.0772
     21 C21        29.1600    9.9120   11.3480 C.ar      1 B5S        -0.0755
     22 C22        29.5000   11.0290   12.0890 C.ar      1 B5S        -0.0413
     23 C23        28.5100   15.0500   15.3880 C.ar      1 B5S         0.1029
     24 O24        27.5080   14.1280   15.2130 O.3       1 B5S        -0.3155
     25 C25        26.1490   14.5160   15.4830 C.3       1 B5S         0.0766
     26 C26        25.8100   14.1530   16.9200 C.3       1 B5S         0.0154
     27 C27        25.1090   15.2670   17.6850 C.3       1 B5S        -0.0329
     28 N28        23.9670   15.8260   16.9190 N.4       1 B5S         0.2186
     29 C32        28.3860   16.2170   16.1230 C.ar      1 B5S        -0.0059
     30 C33        31.4600   18.9460   17.8960 C.ar      1 B5S        -0.0231
     31 H          35.4104   19.9769   19.5425 H         1 B5S         0.0577
     32 H          33.9831   20.6515   20.3994 H         1 B5S         0.0577
     33 H          34.5091   21.3602   18.8349 H         1 B5S         0.0577
     34 H          32.4149   21.9355   19.1708 H         1 B5S         0.0368
     35 H          30.0152   22.8916   19.6220 H         1 B5S         0.2475
     36 H          28.6025   20.7351   17.6354 H         1 B5S         0.0363
     37 H          28.2598   18.4738   17.1909 H         1 B5S         0.2093
     38 H          31.4994   17.4729   15.7133 H         1 B5S         0.0457
     39 H          31.7414   15.4064   14.4051 H         1 B5S         0.0612
     40 H          28.1058   12.8992   14.4669 H         1 B5S         0.2245
     41 H          26.6956   11.2693   13.9642 H         1 B5S         0.0502
     42 H          26.1132    9.2852   12.6350 H         1 B5S         0.0577
     43 H          27.6850    8.4143   10.9638 H         1 B5S         0.0487
     44 H          29.8506    9.5241   10.6080 H         1 B5S         0.0577
     45 H          30.4560   11.5146   11.9302 H         1 B5S         0.0502
     46 H          25.4706   13.9860   14.7983 H         1 B5S         0.0619
     47 H          26.0395   15.6012   15.3406 H         1 B5S         0.0619
     48 H          26.7444   13.9061   17.4453 H         1 B5S         0.0343
     49 H          25.1516   13.2719   16.9093 H         1 B5S         0.0343
     50 H          25.8319   16.0716   17.8848 H         1 B5S         0.0814
     51 H          24.7357   14.8645   18.6382 H         1 B5S         0.0814
     52 H          23.5290   16.5585   17.4554 H         1 B5S         0.1994
     53 H          23.2959   15.0965   16.7359 H         1 B5S         0.1994
     54 H          24.3005   16.2027   16.0456 H         1 B5S         0.1994
     55 H          27.4432   16.4468   16.6060 H         1 B5S         0.0460
     56 H          31.8605   17.9604   17.6881 H         1 B5S         0.0363
@<TRIPOS>BOND
     1    1    2 1  
     2    2    3 1  
     3    3    4 ar 
     4    3   30 ar 
     5    4    5 ar 
     6    5    6 1  
     7    5    7 ar 
     8    7    8 ar 
     9    8    9 1  
    10    8   30 ar 
    11    9   10 1  
    12   10   11 ar 
    13   10   29 ar 
    14   11   12 ar 
    15   12   13 ar 
    16   13   14 1  
    17   13   23 ar 
    18   14   15 2  
    19   14   16 am 
    20   16   17 1  
    21   17   18 ar 
    22   17   22 ar 
    23   18   19 ar 
    24   19   20 ar 
    25   20   21 ar 
    26   21   22 ar 
    27   23   24 1  
    28   23   29 ar 
    29   24   25 1  
    30   25   26 1  
    31   26   27 1  
    32   27   28 1  
    33    1   31 1  
    34    1   32 1  
    35    1   33 1  
    36    4   34 1  
    37    6   35 1  
    38    7   36 1  
    39    9   37 1  
    40   11   38 1  
    41   12   39 1  
    42   16   40 1  
    43   18   41 1  
    44   19   42 1  
    45   20   43 1  
    46   21   44 1  
    47   22   45 1  
    48   25   46 1  
    49   25   47 1  
    50   26   48 1  
    51   26   49 1  
    52   27   50 1  
    53   27   51 1  
    54   28   52 1  
    55   28   53 1  
    56   28   54 1  
    57   29   55 1  
    58   30   56 1  
@<TRIPOS>SUBSTRUCTURE
     1 B5S         1

