### 
### Created by X-TOOL on Mon Sep 10 21:13:17 2018
### 

@<TRIPOS>MOLECULE
4umr_ligand
   36    38     1     0     0
SMALL
GAST_HUCK


@<TRIPOS>ATOM
      1 F1         30.5320   17.6170   17.1050 F         1 QBB        -0.1794
      2 C2         30.4750   16.4780   16.3580 C.ar      1 QBB         0.1375
      3 C3         31.6470   15.8670   16.0090 C.ar      1 QBB        -0.0224
      4 C4         31.5950   14.7050   15.2600 C.ar      1 QBB        -0.0433
      5 C5         30.3670   14.1790   14.8700 C.ar      1 QBB         0.0514
      6 C6         29.1950   14.8350   15.2400 C.ar      1 QBB        -0.0433
      7 C7         29.2520   15.9950   15.9930 C.ar      1 QBB        -0.0224
      8 C8         30.3250   12.9250   14.0520 C.2       1 QBB         0.2275
      9 O9         31.1990   12.6820   13.2200 O.2       1 QBB        -0.3758
     10 N10        29.2810   12.0920   14.2900 N.am      1 QBB        -0.2390
     11 C11        28.8420   10.9750   13.5410 C.ar      1 QBB         0.0526
     12 C12        29.4560   10.5940   12.3550 C.ar      1 QBB        -0.0543
     13 C13        28.9890    9.5030   11.6470 C.ar      1 QBB        -0.0791
     14 C14        27.8940    8.7760   12.1080 C.ar      1 QBB        -0.0454
     15 C15        27.4060    7.5880   11.3190 C.3       1 QBB         0.0122
     16 C16        26.4950    6.6960   12.1470 C.3       1 QBB        -0.0257
     17 N17        25.4740    7.5040   12.8250 N.4       1 QBB         0.2391
     18 C20        26.0890    8.3800   13.8290 C.3       1 QBB        -0.0052
     19 C21        27.2690    9.1540   13.2980 C.ar      1 QBB        -0.0093
     20 C22        27.7500   10.2550   14.0040 C.ar      1 QBB        -0.0411
     21 H          32.5996   16.2853   16.3135 H         1 QBB         0.0616
     22 H          32.5129   14.2030   14.9762 H         1 QBB         0.0659
     23 H          28.2341   14.4352   14.9368 H         1 QBB         0.0659
     24 H          28.3440   16.5091   16.2867 H         1 QBB         0.0616
     25 H          28.7466   12.2963   15.1102 H         1 QBB         0.2228
     26 H          30.3056   11.1551   11.9829 H         1 QBB         0.0431
     27 H          29.4789    9.2106   10.7253 H         1 QBB         0.0502
     28 H          28.2743    6.9999   10.9872 H         1 QBB         0.0436
     29 H          26.8497    7.9479   10.4410 H         1 QBB         0.0436
     30 H          27.0946    6.1625   12.8992 H         1 QBB         0.0833
     31 H          26.0021    5.9672   11.4868 H         1 QBB         0.0833
     32 H          24.8150    6.8914   13.2794 H         1 QBB         0.2028
     33 H          24.9925    8.0691   12.1432 H         1 QBB         0.2028
     34 H          26.4279    7.7610   14.6728 H         1 QBB         0.0962
     35 H          25.3310    9.0955   14.1803 H         1 QBB         0.0962
     36 H          27.2649   10.5527   14.9266 H         1 QBB         0.0425
@<TRIPOS>BOND
     1    1    2 1  
     2    2    3 ar 
     3    2    7 ar 
     4    3    4 ar 
     5    4    5 ar 
     6    5    6 ar 
     7    5    8 1  
     8    6    7 ar 
     9    8    9 2  
    10    8   10 am 
    11   10   11 1  
    12   11   12 ar 
    13   11   20 ar 
    14   12   13 ar 
    15   13   14 ar 
    16   14   15 1  
    17   14   19 ar 
    18   15   16 1  
    19   16   17 1  
    20   17   18 1  
    21   18   19 1  
    22   19   20 ar 
    23    3   21 1  
    24    4   22 1  
    25    6   23 1  
    26    7   24 1  
    27   10   25 1  
    28   12   26 1  
    29   13   27 1  
    30   15   28 1  
    31   15   29 1  
    32   16   30 1  
    33   16   31 1  
    34   17   32 1  
    35   17   33 1  
    36   18   34 1  
    37   18   35 1  
    38   20   36 1  
@<TRIPOS>SUBSTRUCTURE
     1 QBB         1

