### 
### Created by X-TOOL on Mon Sep 10 21:13:19 2018
### 

@<TRIPOS>MOLECULE
4umt_ligand
   56    59     1     0     0
SMALL
GAST_HUCK


@<TRIPOS>ATOM
      1 C1         36.8120   20.0690   23.4470 C.3       1 47W         0.0576
      2 O2         36.6350   21.4770   23.2560 O.3       1 47W        -0.3273
      3 C3         35.7430   21.8990   22.2990 C.ar      1 47W         0.0893
      4 C4         35.0260   21.0630   21.4570 C.ar      1 47W        -0.0112
      5 C5         34.1420   21.5850   20.5170 C.ar      1 47W         0.0767
      6 O6         33.4550   20.7110   19.7050 O.3       1 47W        -0.3125
      7 C7         32.6060   21.2040   18.6250 C.3       1 47W         0.1298
      8 C8         32.0420   20.0130   17.9580 C.1       1 47W        -0.0627
      9 C9         31.5800   19.0460   17.4190 C.1       1 47W        -0.0610
     10 C10        31.0340   17.8850   16.7730 C.ar      1 47W         0.0314
     11 C11        29.6590   17.6740   16.7260 C.ar      1 47W        -0.0401
     12 C12        29.1430   16.5540   16.1030 C.ar      1 47W        -0.0452
     13 C13        29.9950   15.6120   15.5080 C.ar      1 47W        -0.0024
     14 C14        29.5210   14.4630   14.8660 C.ar      1 47W        -0.0314
     15 C15        30.4170   13.5820   14.3060 C.ar      1 47W         0.0075
     16 N16        31.7410   13.7650   14.3410 N.ar      1 47W        -0.2976
     17 C17        32.2120   14.8590   14.9530 C.ar      1 47W         0.0197
     18 C18        31.3860   15.8160   15.5520 C.ar      1 47W         0.0101
     19 C19        31.8850   16.9530   16.1850 C.ar      1 47W        -0.0300
     20 C20        33.9770   22.9570   20.4210 C.ar      1 47W        -0.0506
     21 C21        34.6870   23.8030   21.2570 C.ar      1 47W        -0.0720
     22 C22        35.5780   23.2920   22.2080 C.ar      1 47W         0.0198
     23 C23        36.3480   24.2420   23.1050 C.3       1 47W        -0.0040
     24 N24        36.0970   24.0990   24.5850 N.4       1 47W         0.2517
     25 C26        34.7050   24.5130   24.9410 C.3       1 47W         0.0104
     26 C27        34.4790   24.3530   26.4390 C.3       1 47W         0.0077
     27 N28        35.4460   25.1940   27.1910 N.4       1 47W         0.2345
     28 C31        36.8520   24.8280   26.8640 C.3       1 47W         0.0077
     29 C32        37.0950   24.9130   25.3590 C.3       1 47W         0.0104
     30 H          37.5529   19.8971   24.2417 H         1 47W         0.0574
     31 H          37.1665   19.6136   22.5106 H         1 47W         0.0574
     32 H          35.8527   19.6146   23.7356 H         1 47W         0.0574
     33 H          35.1554   19.9893   21.5316 H         1 47W         0.0446
     34 H          33.2017   21.7925   17.9118 H         1 47W         0.0751
     35 H          31.7981   21.8298   19.0321 H         1 47W         0.0751
     36 H          28.9882   18.3935   17.1814 H         1 47W         0.0667
     37 H          28.0701   16.4019   16.0738 H         1 47W         0.0647
     38 H          28.4561   14.2684   14.8102 H         1 47W         0.0715
     39 H          30.0311   12.6972   13.8128 H         1 47W         0.0775
     40 H          33.2849   15.0103   14.9858 H         1 47W         0.0869
     41 H          32.9563   17.1148   16.2202 H         1 47W         0.0669
     42 H          33.2908   23.3694   19.6901 H         1 47W         0.0433
     43 H          34.5508   24.8752   21.1737 H         1 47W         0.0502
     44 H          36.0816   25.2693   22.8157 H         1 47W         0.0934
     45 H          37.4211   24.0777   22.9277 H         1 47W         0.0934
     46 H          36.2125   23.1291   24.8340 H         1 47W         0.2048
     47 H          33.9871   23.8830   24.3953 H         1 47W         0.0868
     48 H          34.5556   25.5662   24.6609 H         1 47W         0.0868
     49 H          34.6194   23.2983   26.7181 H         1 47W         0.0867
     50 H          33.4540   24.6650   26.6883 H         1 47W         0.0867
     51 H          35.2946   25.0644   28.1791 H         1 47W         0.2018
     52 H          35.2947   26.1615   26.9519 H         1 47W         0.2018
     53 H          37.0460   23.7999   27.2037 H         1 47W         0.0867
     54 H          37.5346   25.5195   27.3797 H         1 47W         0.0867
     55 H          37.0171   25.9643   25.0448 H         1 47W         0.0868
     56 H          38.1059   24.5387   25.1401 H         1 47W         0.0868
@<TRIPOS>BOND
     1    1    2 1  
     2    2    3 1  
     3    3    4 ar 
     4    3   22 ar 
     5    4    5 ar 
     6    5    6 1  
     7    5   20 ar 
     8    6    7 1  
     9    7    8 1  
    10    8    9 3  
    11    9   10 1  
    12   10   11 ar 
    13   10   19 ar 
    14   11   12 ar 
    15   12   13 ar 
    16   13   14 ar 
    17   13   18 ar 
    18   14   15 ar 
    19   15   16 ar 
    20   16   17 ar 
    21   17   18 ar 
    22   18   19 ar 
    23   20   21 ar 
    24   21   22 ar 
    25   22   23 1  
    26   23   24 1  
    27   24   25 1  
    28   24   29 1  
    29   25   26 1  
    30   26   27 1  
    31   27   28 1  
    32   28   29 1  
    33    1   30 1  
    34    1   31 1  
    35    1   32 1  
    36    4   33 1  
    37    7   34 1  
    38    7   35 1  
    39   11   36 1  
    40   12   37 1  
    41   14   38 1  
    42   15   39 1  
    43   17   40 1  
    44   19   41 1  
    45   20   42 1  
    46   21   43 1  
    47   23   44 1  
    48   23   45 1  
    49   24   46 1  
    50   25   47 1  
    51   25   48 1  
    52   26   49 1  
    53   26   50 1  
    54   27   51 1  
    55   27   52 1  
    56   28   53 1  
    57   28   54 1  
    58   29   55 1  
    59   29   56 1  
@<TRIPOS>SUBSTRUCTURE
     1 47W         1

