### 
### Created by X-TOOL on Mon Sep 10 21:13:19 2018
### 

@<TRIPOS>MOLECULE
4umu_ligand
   46    48     1     0     0
SMALL
GAST_HUCK


@<TRIPOS>ATOM
      1 C1         37.5720   19.9260   24.7360 C.3       1 0V0        -0.0374
      2 C2         36.6530   20.0680   23.5420 C.3       1 0V0         0.0658
      3 O3         36.4210   21.4570   23.3060 O.3       1 0V0        -0.3244
      4 C4         35.5610   21.8360   22.2990 C.ar      1 0V0         0.0896
      5 C5         34.9130   20.9800   21.4130 C.ar      1 0V0        -0.0111
      6 C6         34.0540   21.4750   20.4230 C.ar      1 0V0         0.0767
      7 O7         33.4430   20.5630   19.5760 O.3       1 0V0        -0.3125
      8 C8         32.4450   20.9670   18.5850 C.3       1 0V0         0.1298
      9 C9         31.9380   19.7840   17.9280 C.1       1 0V0        -0.0627
     10 C10        31.5140   18.8110   17.3890 C.1       1 0V0        -0.0610
     11 C11        30.9860   17.6030   16.7190 C.ar      1 0V0         0.0314
     12 C12        29.6090   17.4120   16.6450 C.ar      1 0V0        -0.0401
     13 C13        29.0900   16.2970   16.0240 C.ar      1 0V0        -0.0452
     14 C14        29.9530   15.3400   15.4530 C.ar      1 0V0        -0.0024
     15 C15        29.4900   14.1780   14.8070 C.ar      1 0V0        -0.0314
     16 C16        30.4020   13.2920   14.2750 C.ar      1 0V0         0.0075
     17 N17        31.7260   13.4730   14.3380 N.ar      1 0V0        -0.2976
     18 C18        32.1930   14.5670   14.9490 C.ar      1 0V0         0.0197
     19 C19        31.3530   15.5390   15.5260 C.ar      1 0V0         0.0101
     20 C20        31.8490   16.6750   16.1580 C.ar      1 0V0        -0.0300
     21 C21        33.8540   22.8420   20.3330 C.ar      1 0V0        -0.0506
     22 C22        34.4940   23.7040   21.2110 C.ar      1 0V0        -0.0720
     23 C23        35.3510   23.2200   22.2000 C.ar      1 0V0         0.0196
     24 C24        36.0330   24.1880   23.1420 C.3       1 0V0        -0.0080
     25 N25        35.4610   24.1450   24.5130 N.4       1 0V0         0.2278
     26 H          37.7596   18.8595   24.9295 H         1 0V0         0.0255
     27 H          37.0993   20.3812   25.6188 H         1 0V0         0.0255
     28 H          38.5252   20.4340   24.5276 H         1 0V0         0.0255
     29 H          35.6978   19.5629   23.7479 H         1 0V0         0.0608
     30 H          37.1237   19.6157   22.6567 H         1 0V0         0.0608
     31 H          35.0759   19.9111   21.4904 H         1 0V0         0.0446
     32 H          32.9093   21.6324   17.8423 H         1 0V0         0.0751
     33 H          31.6196   21.4949   19.0850 H         1 0V0         0.0751
     34 H          28.9400   18.1461   17.0793 H         1 0V0         0.0667
     35 H          28.0164   16.1555   15.9745 H         1 0V0         0.0647
     36 H          28.4267   13.9820   14.7288 H         1 0V0         0.0715
     37 H          30.0273   12.4032   13.7803 H         1 0V0         0.0775
     38 H          33.2659   14.7121   15.0025 H         1 0V0         0.0869
     39 H          32.9197   16.8356   16.2120 H         1 0V0         0.0669
     40 H          33.1933   23.2409   19.5718 H         1 0V0         0.0433
     41 H          34.3256   24.7716   21.1275 H         1 0V0         0.0502
     42 H          35.9193   25.2071   22.7440 H         1 0V0         0.0933
     43 H          37.1016   23.9330   23.1973 H         1 0V0         0.0933
     44 H          35.9466   24.8046   25.1005 H         1 0V0         0.2004
     45 H          35.5660   23.2169   24.8919 H         1 0V0         0.2004
     46 H          34.4825   24.3844   24.4765 H         1 0V0         0.2004
@<TRIPOS>BOND
     1    1    2 1  
     2    2    3 1  
     3    3    4 1  
     4    4    5 ar 
     5    4   23 ar 
     6    5    6 ar 
     7    6    7 1  
     8    6   21 ar 
     9    7    8 1  
    10    8    9 1  
    11    9   10 3  
    12   10   11 1  
    13   11   12 ar 
    14   11   20 ar 
    15   12   13 ar 
    16   13   14 ar 
    17   14   15 ar 
    18   14   19 ar 
    19   15   16 ar 
    20   16   17 ar 
    21   17   18 ar 
    22   18   19 ar 
    23   19   20 ar 
    24   21   22 ar 
    25   22   23 ar 
    26   23   24 1  
    27   24   25 1  
    28    1   26 1  
    29    1   27 1  
    30    1   28 1  
    31    2   29 1  
    32    2   30 1  
    33    5   31 1  
    34    8   32 1  
    35    8   33 1  
    36   12   34 1  
    37   13   35 1  
    38   15   36 1  
    39   16   37 1  
    40   18   38 1  
    41   20   39 1  
    42   21   40 1  
    43   22   41 1  
    44   24   42 1  
    45   24   43 1  
    46   25   44 1  
    47   25   45 1  
    48   25   46 1  
@<TRIPOS>SUBSTRUCTURE
     1 0V0         1

