### 
### Created by X-TOOL on Mon Sep 10 21:13:25 2018
### 

@<TRIPOS>MOLECULE
4und_ligand
   42    46     1     0     0
SMALL
GAST_HUCK


@<TRIPOS>ATOM
      1 N1          0.3870   63.9150  190.4380 N.2       1 2YQ        -0.1937
      2 N3          1.1370   62.3990  186.5710 N.pl3     1 2YQ        -0.3026
      3 C4         -1.4770   62.3180  190.5570 C.2       1 2YQ         0.2296
      4 C5          1.6040   64.1070  188.5680 C.3       1 2YQ         0.1172
      5 C6          1.8630   63.5710  187.0940 C.3       1 2YQ         0.0976
      6 C7          0.0550   61.9380  187.2580 C.ar      1 2YQ         0.0552
      7 C8         -0.7730   60.9750  186.6680 C.ar      1 2YQ        -0.0069
      8 C10        -2.0450   60.9110  188.7020 C.ar      1 2YQ        -0.0233
      9 C13         4.7170   64.8910  185.4450 C.ar      1 2YQ        -0.0348
     10 C15         5.3770   64.2140  187.6550 C.ar      1 2YQ        -0.0348
     11 C17         1.0690   65.5750  188.4420 C.2       1 2YQ         0.1614
     12 F2          7.4250   65.4000  185.9850 F         1 2YQ        -0.1893
     13 C14         5.6880   64.7880  186.4150 C.ar      1 2YQ         0.1248
     14 C12         3.4570   64.4170  185.6890 C.ar      1 2YQ        -0.0595
     15 C16         4.1130   63.7510  187.9160 C.ar      1 2YQ        -0.0595
     16 C11         3.1720   63.8050  186.9000 C.ar      1 2YQ        -0.0174
     17 N6         -0.2450   65.9840  188.6520 N.2       1 2YQ        -0.2949
     18 C18        -0.4570   67.3180  188.4510 C.2       1 2YQ         0.0485
     19 N5          0.7200   67.8200  188.1200 N.2       1 2YQ        -0.2016
     20 N4          1.6890   66.7600  188.0840 N.pl3     1 2YQ        -0.1785
     21 C19         3.0590   67.2140  187.7160 C.3       1 2YQ         0.0633
     22 C3          0.6440   63.4150  189.1920 C.2       1 2YQ         0.0725
     23 C2         -0.1560   62.4070  188.5420 C.ar      1 2YQ         0.0323
     24 C9         -1.8420   60.4530  187.4130 C.ar      1 2YQ         0.1243
     25 F1         -2.7970   59.4420  186.9090 F         1 2YQ        -0.1867
     26 C1         -1.2240   61.8760  189.2500 C.ar      1 2YQ         0.0499
     27 O          -2.3870   61.8030  191.2070 O.2       1 2YQ        -0.3956
     28 N2         -0.6990   63.3440  191.1440 N.am      1 2YQ        -0.1782
     29 H1          1.4424   61.9375  185.7023 H         1 2YQ         0.1807
     30 H2          2.5368   64.0723  189.1499 H         1 2YQ         0.0759
     31 H3          1.3977   64.3479  186.4696 H         1 2YQ         0.0763
     32 H4         -0.5915   60.6385  185.6536 H         1 2YQ         0.0520
     33 H5         -2.8605   60.5064  189.2905 H         1 2YQ         0.0532
     34 H6          4.9501   65.3468  184.4895 H         1 2YQ         0.0587
     35 H7          6.1444   64.1351  188.4165 H         1 2YQ         0.0587
     36 H8          2.6830   64.5197  184.9370 H         1 2YQ         0.0548
     37 H9          3.8566   63.3533  188.8912 H         1 2YQ         0.0548
     38 H10        -1.3993   67.8560  188.5440 H         1 2YQ         0.0832
     39 H11         3.0438   68.2940  187.5080 H         1 2YQ         0.0598
     40 H12         3.3963   66.6727  186.8198 H         1 2YQ         0.0598
     41 H13         3.7487   67.0106  188.5484 H         1 2YQ         0.0598
     42 H14        -0.9180   63.6681  192.0643 H         1 2YQ         0.2533
@<TRIPOS>BOND
     1   22    1 2  
     2    1   28 1  
     3    5    2 1  
     4    2    6 1  
     5    3   26 1  
     6    3   27 2  
     7   28    3 am 
     8    5    4 1  
     9    4   11 1  
    10    4   22 1  
    11   16    5 1  
    12    6    7 ar 
    13    6   23 ar 
    14    7   24 ar 
    15   24    8 ar 
    16    8   26 ar 
    17    9   13 ar 
    18   14    9 ar 
    19   13   10 ar 
    20   10   15 ar 
    21   11   17 2  
    22   11   20 1  
    23   14   16 ar 
    24   15   16 ar 
    25   17   18 1  
    26   18   19 2  
    27   19   20 1  
    28   20   21 1  
    29   22   23 1  
    30   23   26 ar 
    31   24   25 1  
    32   13   12 1  
    33    2   29 1  
    34    4   30 1  
    35    5   31 1  
    36    7   32 1  
    37    8   33 1  
    38    9   34 1  
    39   10   35 1  
    40   14   36 1  
    41   15   37 1  
    42   18   38 1  
    43   21   39 1  
    44   21   40 1  
    45   21   41 1  
    46   28   42 1  
@<TRIPOS>SUBSTRUCTURE
     1 2YQ         1

