### 
### Created by X-TOOL on Mon Sep 10 21:13:20 2018
### 

@<TRIPOS>MOLECULE
4unn_ligand
   41    43     1     0     0
SMALL
GAST_HUCK


@<TRIPOS>ATOM
      1 C16         4.2130   21.3100   -8.2960 C.1       1 QZZ         0.1247
      2 C5          2.3610   13.7160   -7.9140 C.ar      1 QZZ        -0.0767
      3 C6          2.6110   15.0500   -8.2240 C.ar      1 QZZ        -0.0670
      4 C19         7.8010   19.1770   -7.8690 C.ar      1 QZZ        -0.0565
      5 C23         6.7430   20.9110   -6.6050 C.ar      1 QZZ        -0.0565
      6 C20         9.0500   19.6910   -7.5670 C.ar      1 QZZ        -0.0518
      7 C22         8.0130   21.4330   -6.3000 C.ar      1 QZZ        -0.0518
      8 C4          3.2500   12.9900   -7.1520 C.ar      1 QZZ        -0.0398
      9 C8          4.6700   14.9200   -7.0070 C.ar      1 QZZ        -0.0279
     10 C18         6.6260   19.7680   -7.4020 C.ar      1 QZZ        -0.0252
     11 C7          3.7750   15.6620   -7.7830 C.ar      1 QZZ        -0.0164
     12 C21         9.1750   20.8190   -6.7840 C.ar      1 QZZ         0.0056
     13 C3          4.4100   13.5930   -6.7100 C.ar      1 QZZ         0.0845
     14 C10         5.1700   17.7380   -7.6330 C.2       1 QZZ        -0.0392
     15 C12         4.2000   19.8970   -8.1990 C.3       1 QZZ         0.1971
     16 C11         5.3000   19.1450   -7.7290 C.2       1 QZZ         0.0035
     17 C9          4.0160   17.1000   -7.9900 C.3       1 QZZ         0.0970
     18 C13         2.9580   19.2610   -8.5600 C.2       1 QZZ         0.2176
     19 C24        10.5440   21.3370   -6.4610 C.2       1 QZZ         0.0599
     20 C1          6.2960   13.5160   -5.1630 C.3       1 QZZ         0.0592
     21 N17         4.1510   22.4500   -8.3130 N.1       1 QZZ        -0.2985
     22 N15         2.9430   17.8840   -8.4290 N.am      1 QZZ        -0.2593
     23 O14         1.9540   19.8390   -8.9750 O.2       1 QZZ        -0.3918
     24 O25        10.8370   22.5150   -6.3930 O.co2     1 QZZ        -0.5619
     25 O26        11.4250   20.4030   -6.2590 O.co2     1 QZZ        -0.5619
     26 O2          5.3010   12.8610   -5.9440 O.3       1 QZZ        -0.3229
     27 H1          1.4557   13.2427   -8.2766 H         1 QZZ         0.0572
     28 H2          1.8940   15.6119   -8.8116 H         1 QZZ         0.0470
     29 H3          7.7333   18.2888   -8.4867 H         1 QZZ         0.0593
     30 H4          5.8527   21.3960   -6.2213 H         1 QZZ         0.0593
     31 H5          9.9386   19.2021   -7.9497 H         1 QZZ         0.0638
     32 H6          8.0933   22.3208   -5.6832 H         1 QZZ         0.0638
     33 H7          3.0406   11.9562   -6.9023 H         1 QZZ         0.0488
     34 H8          5.5746   15.3872   -6.6349 H         1 QZZ         0.0483
     35 H9          6.0102   17.1505   -7.2657 H         1 QZZ         0.0610
     36 H10         4.5783   19.8032   -9.2276 H         1 QZZ         0.0955
     37 H11         4.3853   16.9279   -9.0118 H         1 QZZ         0.0878
     38 H12         6.8987   12.7645   -4.6319 H         1 QZZ         0.0577
     39 H13         5.8106   14.1797   -4.4324 H         1 QZZ         0.0577
     40 H14         6.9472   14.1095   -5.8216 H         1 QZZ         0.0577
     41 H15         2.0956   17.4096   -8.6676 H         1 QZZ         0.1912
@<TRIPOS>BOND
     1   15    1 1  
     2    1   21 3  
     3    3    2 ar 
     4    2    8 ar 
     5   11    3 ar 
     6    4    6 ar 
     7   10    4 ar 
     8    5    7 ar 
     9   10    5 ar 
    10    6   12 ar 
    11    7   12 ar 
    12   13    8 ar 
    13   11    9 ar 
    14    9   13 ar 
    15   16   10 1  
    16   17   11 1  
    17   12   19 1  
    18   13   26 1  
    19   16   14 2  
    20   14   17 1  
    21   15   16 1  
    22   15   18 1  
    23   17   22 1  
    24   18   22 am 
    25   18   23 2  
    26   19   24 ar 
    27   19   25 ar 
    28   26   20 1  
    29    2   27 1  
    30    3   28 1  
    31    4   29 1  
    32    5   30 1  
    33    6   31 1  
    34    7   32 1  
    35    8   33 1  
    36    9   34 1  
    37   14   35 1  
    38   15   36 1  
    39   17   37 1  
    40   20   38 1  
    41   20   39 1  
    42   20   40 1  
    43   22   41 1  
@<TRIPOS>SUBSTRUCTURE
     1 QZZ         1

