### 
### Created by X-TOOL on Mon Sep 10 21:13:23 2018
### 

@<TRIPOS>MOLECULE
4unp_ligand
   29    30     1     0     0
SMALL
GAST_HUCK


@<TRIPOS>ATOM
      1 C5         41.8050   32.3730   55.9920 C.ar      1 TXW        -0.0139
      2 C7         43.0690   31.8060   57.9360 C.ar      1 TXW         0.0348
      3 C6         42.4600   31.4280   56.7420 C.ar      1 TXW         0.0942
      4 C4         41.7690   33.6670   56.4540 C.ar      1 TXW         0.0081
      5 C13        43.0030   33.1410   58.3270 C.ar      1 TXW         0.0202
      6 C8         43.7330   30.7810   58.6950 C.2       1 TXW        -0.0456
      7 C9         43.7630   29.4990   58.2620 C.2       1 TXW         0.0040
      8 C10        43.1190   29.1040   57.0140 C.2       1 TXW         0.2060
      9 C15        43.6760   33.6680   59.5620 C.3       1 TXW        -0.0166
     10 C1         43.2760   35.7710   55.4730 C.3       1 TXW        -0.0632
     11 C3         41.0470   34.7410   55.6760 C.3       1 TXW        -0.0084
     12 C2         41.9350   35.5970   54.8220 C.3       1 TXW        -0.0441
     13 N14        42.3560   34.0450   57.5890 N.ar      1 TXW        -0.3117
     14 N12        42.4890   30.1060   56.3320 N.am      1 TXW        -0.2250
     15 O11        43.1280   27.9490   56.5600 O.2       1 TXW        -0.4038
     16 H1         41.3271   32.1048   55.0567 H         1 TXW         0.0485
     17 H2         44.2199   31.0405   59.6339 H         1 TXW         0.0719
     18 H3         44.2785   28.7469   58.8575 H         1 TXW         0.0555
     19 H4         43.4788   34.7461   59.6553 H         1 TXW         0.0434
     20 H5         44.7604   33.4986   59.4893 H         1 TXW         0.0434
     21 H6         43.2816   33.1453   60.4459 H         1 TXW         0.0434
     22 H7         43.9143   36.4001   54.8352 H         1 TXW         0.0232
     23 H8         43.7487   34.7869   55.6077 H         1 TXW         0.0232
     24 H9         43.1480   36.2536   56.4532 H         1 TXW         0.0232
     25 H10        40.5277   35.3938   56.3930 H         1 TXW         0.0456
     26 H11        40.3086   34.2536   55.0224 H         1 TXW         0.0456
     27 H12        42.0676   35.1165   53.8414 H         1 TXW         0.0288
     28 H13        41.4668   36.5832   54.6869 H         1 TXW         0.0288
     29 H14        42.0185   29.8694   55.4819 H         1 TXW         0.2405
@<TRIPOS>BOND
     1    1    3 ar 
     2    4    1 ar 
     3    3    2 ar 
     4    5    2 ar 
     5    2    6 1  
     6    3   14 1  
     7   11    4 1  
     8    4   13 ar 
     9    5    9 1  
    10   13    5 ar 
    11    6    7 2  
    12    8    7 1  
    13   14    8 am 
    14    8   15 2  
    15   12   10 1  
    16   11   12 1  
    17    1   16 1  
    18    6   17 1  
    19    7   18 1  
    20    9   19 1  
    21    9   20 1  
    22    9   21 1  
    23   10   22 1  
    24   10   23 1  
    25   10   24 1  
    26   11   25 1  
    27   11   26 1  
    28   12   27 1  
    29   12   28 1  
    30   14   29 1  
@<TRIPOS>SUBSTRUCTURE
     1 TXW         1

