### 
### Created by X-TOOL on Mon Sep 10 21:13:23 2018
### 

@<TRIPOS>MOLECULE
4unq_ligand
   33    34     1     0     0
SMALL
GAST_HUCK


@<TRIPOS>ATOM
      1 C1         22.8900   37.7350   -5.8130 C.3       1 H6D         0.0341
      2 S2         23.4600   37.7550   -7.4870 S.3       1 H6D         0.0519
      3 O3         24.8860   38.1960   -7.4170 O.3       1 H6D        -0.2958
      4 C4         23.4530   36.0090   -7.7900 C.2       1 H6D         0.1927
      5 C5         24.6710   35.3130   -7.6000 C.2       1 H6D         0.1026
      6 C6         24.7220   33.9650   -7.8210 C.2       1 H6D         0.1554
      7 N7         23.5430   33.3270   -8.2160 N.2       1 H6D        -0.1427
      8 C8         22.3160   33.9530   -8.4070 C.2       1 H6D         0.3065
      9 O9         21.3340   33.3190   -8.7540 O.2       1 H6D        -0.3192
     10 C10        22.3160   35.3650   -8.1700 C.3       1 H6D         0.2795
     11 C11        21.0730   36.0290   -8.3380 C.1       1 H6D         0.1561
     12 N12        20.0740   36.5690   -8.4330 N.1       1 H6D        -0.2937
     13 C13        25.9140   33.1140   -7.5760 C.ar      1 H6D         0.0314
     14 C14        26.0310   31.8370   -8.1370 C.ar      1 H6D        -0.0491
     15 C15        27.1390   31.0330   -7.8530 C.ar      1 H6D        -0.0597
     16 C16        28.1300   31.4720   -6.9960 C.ar      1 H6D        -0.0236
     17 C17        28.0130   32.7280   -6.4420 C.ar      1 H6D         0.1102
     18 C18        26.9120   33.5490   -6.7150 C.ar      1 H6D        -0.0102
     19 O19        28.9950   33.1810   -5.5660 O.3       1 H6D        -0.2233
     20 C20        29.8440   34.0810   -5.9400 C.3       1 H6D         0.5466
     21 F21        30.5950   34.3920   -4.8940 F         1 H6D        -0.1400
     22 F22        29.3040   35.1690   -6.4300 F         1 H6D        -0.1400
     23 F23        30.6230   33.7050   -6.9230 F         1 H6D        -0.1400
     24 H1         21.8374   37.4165   -5.7879 H         1 H6D         0.0427
     25 H2         22.9782   38.7438   -5.3835 H         1 H6D         0.0427
     26 H3         23.4998   37.0322   -5.2264 H         1 H6D         0.0427
     27 H4         25.3809   37.5810   -6.8885 H         1 H6D         0.2409
     28 H5         25.5631   35.8490   -7.2793 H         1 H6D         0.1226
     29 H6         22.5704   35.5580   -9.2226 H         1 H6D         0.1319
     30 H7         25.2552   31.4679   -8.7980 H         1 H6D         0.0614
     31 H8         27.2216   30.0537   -8.3105 H         1 H6D         0.0615
     32 H9         28.9811   30.8418   -6.7646 H         1 H6D         0.0620
     33 H10        26.8389   34.5268   -6.2527 H         1 H6D         0.0617
@<TRIPOS>BOND
     1    1    2 1  
     2    2    3 1  
     3    2    4 1  
     4    4    5 2  
     5    4   10 1  
     6    5    6 1  
     7    6    7 2  
     8    6   13 1  
     9    7    8 1  
    10    8    9 2  
    11    8   10 1  
    12   10   11 1  
    13   11   12 3  
    14   13   14 ar 
    15   13   18 ar 
    16   14   15 ar 
    17   15   16 ar 
    18   16   17 ar 
    19   17   18 ar 
    20   17   19 1  
    21   19   20 1  
    22   20   21 1  
    23   20   22 1  
    24   20   23 1  
    25    1   24 1  
    26    1   25 1  
    27    1   26 1  
    28    3   27 1  
    29    5   28 1  
    30   10   29 1  
    31   14   30 1  
    32   15   31 1  
    33   16   32 1  
    34   18   33 1  
@<TRIPOS>SUBSTRUCTURE
     1 H6D         1

