### 
### Created by X-TOOL on Mon Sep 10 21:13:23 2018
### 

@<TRIPOS>MOLECULE
4unr_ligand
   44    48     1     0     0
SMALL
GAST_HUCK


@<TRIPOS>ATOM
      1 C14        53.8870   35.9040    8.0300 C.1       1 QZE         0.0645
      2 C1         48.0670   30.7890    7.6690 C.ar      1 QZE        -0.0666
      3 C2         47.0370   31.2470    6.8890 C.ar      1 QZE        -0.0622
      4 C6         49.1680   31.5860    7.8810 C.ar      1 QZE        -0.0545
      5 C17        52.3470   37.8020    6.2120 C.ar      1 QZE        -0.0408
      6 C21        50.5950   38.0690    7.7790 C.ar      1 QZE        -0.0408
      7 C18        52.3300   39.1610    5.9430 C.ar      1 QZE        -0.0400
      8 C20        50.5690   39.4310    7.5170 C.ar      1 QZE        -0.0400
      9 C31        45.2360   33.9930    5.7810 C.2       1 QZE         0.0618
     10 C28        45.4160   32.2010    4.3570 C.2       1 QZE         0.0065
     11 C3         47.1170   32.4930    6.3230 C.ar      1 QZE        -0.0272
     12 C27        45.9790   32.9010    5.5200 C.2       1 QZE         0.0021
     13 C16        51.4890   37.2380    7.1270 C.ar      1 QZE         0.0059
     14 C5         49.2490   32.8380    7.3240 C.ar      1 QZE         0.0246
     15 C19        51.4460   39.9780    6.6020 C.ar      1 QZE         0.0165
     16 C4         48.2160   33.3010    6.5360 C.ar      1 QZE        -0.0196
     17 C10        52.6430   35.2450    7.8520 C.2       1 QZE         0.1526
     18 C9         51.4980   35.8070    7.4150 C.2       1 QZE         0.0320
     19 C7         50.4020   33.6840    7.5320 C.ar      1 QZE         0.1166
     20 C8         50.3400   34.9900    7.2530 C.ar      1 QZE         0.0353
     21 C11        52.6960   33.8000    8.1610 C.2       1 QZE         0.2329
     22 C22        51.4540   41.4280    6.2770 C.2       1 QZE         0.0668
     23 C26        48.3170   34.6540    5.9110 C.ar      1 QZE        -0.0663
     24 C25        49.0880   35.6250    6.7620 C.ar      1 QZE        -0.0597
     25 N15        54.8660   36.5170    8.1290 N.1       1 QZE        -0.3710
     26 N30        44.2440   34.2290    5.0260 N.pl3     1 QZE        -0.2162
     27 N29        44.2400   33.1740    4.1060 N.2       1 QZE        -0.2152
     28 N13        51.5520   33.1150    7.9860 N.am      1 QZE        -0.2154
     29 O12        53.7210   33.2690    8.5670 O.2       1 QZE        -0.4028
     30 O23        51.9460   41.8990    5.2540 O.co2     1 QZE        -0.5591
     31 O24        50.8610   42.1450    7.2660 O.co2     1 QZE        -0.5591
     32 H1         48.0142   29.8032    8.1167 H         1 QZE         0.0581
     33 H2         46.1638   30.6271    6.7206 H         1 QZE         0.0582
     34 H3         49.9824   31.2205    8.4960 H         1 QZE         0.0607
     35 H4         53.0536   37.1680    5.6887 H         1 QZE         0.0692
     36 H5         49.9062   37.6503    8.5038 H         1 QZE         0.0692
     37 H6         53.0141   39.5784    5.2130 H         1 QZE         0.0668
     38 H7         49.8583   40.0672    8.0320 H         1 QZE         0.0668
     39 H8         45.4786   34.6523    6.6131 H         1 QZE         0.1039
     40 H9         45.7256   31.2936    3.8405 H         1 QZE         0.0676
     41 H10        47.8828   34.9077    4.9507 H         1 QZE         0.0495
     42 H11        48.7768   36.6392    6.9849 H         1 QZE         0.0599
     43 H12        43.5875   35.0209    5.0784 H         1 QZE         0.2600
     44 H13        51.5460   32.1382    8.2003 H         1 QZE         0.2486
@<TRIPOS>BOND
     1   17    1 1  
     2    1   25 3  
     3    2    3 ar 
     4    4    2 ar 
     5   11    3 ar 
     6   14    4 ar 
     7    5    7 ar 
     8   13    5 ar 
     9    6    8 ar 
    10   13    6 ar 
    11    7   15 ar 
    12    8   15 ar 
    13   12    9 2  
    14    9   26 1  
    15   12   10 1  
    16   10   27 2  
    17   11   12 1  
    18   16   11 ar 
    19   18   13 1  
    20   14   16 ar 
    21   19   14 ar 
    22   15   22 1  
    23   16   23 ar 
    24   18   17 2  
    25   17   21 1  
    26   20   18 1  
    27   19   20 ar 
    28   19   28 1  
    29   20   24 ar 
    30   21   28 am 
    31   21   29 2  
    32   22   30 ar 
    33   22   31 ar 
    34   23   24 ar 
    35   26   27 1  
    36    2   32 1  
    37    3   33 1  
    38    4   34 1  
    39    5   35 1  
    40    6   36 1  
    41    7   37 1  
    42    8   38 1  
    43    9   39 1  
    44   10   40 1  
    45   23   41 1  
    46   24   42 1  
    47   26   43 1  
    48   28   44 1  
@<TRIPOS>SUBSTRUCTURE
     1 QZE         1

