### 
### Created by X-TOOL on Mon Sep 10 21:13:23 2018
### 

@<TRIPOS>MOLECULE
4uns_ligand
   45    47     1     0     0
SMALL
GAST_HUCK


@<TRIPOS>ATOM
      1 C15         4.1110   20.8670   -8.0070 C.1       1 QZ3         0.0564
      2 C18         7.3750   19.1320   -7.8400 C.ar      1 QZ3        -0.0560
      3 C22         6.3850   20.2820   -6.0440 C.ar      1 QZ3        -0.0560
      4 C19         8.5690   19.7720   -7.5720 C.ar      1 QZ3        -0.0328
      5 C21         7.5730   20.9300   -5.7740 C.ar      1 QZ3        -0.0328
      6 C4          3.2800   15.4250   -7.8080 C.ar      1 QZ3        -0.0094
      7 C17         6.2630   19.3780   -7.0750 C.ar      1 QZ3        -0.0095
      8 C6          4.7710   17.2500   -7.3750 C.ar      1 QZ3         0.0554
      9 C5          3.5620   16.7640   -7.8200 C.ar      1 QZ3         0.1009
     10 C20         8.6800   20.6800   -6.5410 C.ar      1 QZ3         0.0763
     11 C3          4.2290   14.5670   -7.3350 C.ar      1 QZ3         0.0122
     12 C7          5.6730   16.3080   -6.9060 C.ar      1 QZ3         0.0277
     13 C11         4.0100   19.4720   -7.8970 C.2       1 QZ3         0.1445
     14 C10         5.0060   18.6880   -7.4270 C.2       1 QZ3         0.0240
     15 C12         2.7140   18.9490   -8.3560 C.2       1 QZ3         0.2262
     16 C9          7.0360   16.6600   -6.3760 C.3       1 QZ3        -0.0140
     17 C1          4.0970   12.5200   -5.9500 C.3       1 QZ3        -0.0527
     18 C27         9.2830   23.6920   -5.1250 C.3       1 QZ3         0.0797
     19 C2          3.9140   13.0940   -7.3290 C.3       1 QZ3        -0.0090
     20 N16         4.2010   22.0160   -8.1040 N.1       1 QZ3        -0.3778
     21 N8          5.4090   14.9920   -6.8850 N.ar      1 QZ3        -0.3061
     22 N14         2.5640   17.5940   -8.2960 N.am      1 QZ3        -0.2222
     23 N23         9.9760   21.2920   -6.3840 N.am      1 QZ3        -0.1828
     24 O13         1.8630   19.7250   -8.7820 O.2       1 QZ3        -0.4031
     25 O25        11.7350   22.9530   -5.5000 O.2       1 QZ3        -0.1492
     26 O26        10.3710   21.6420   -3.8390 O.2       1 QZ3        -0.1492
     27 S24        10.4620   22.3660   -5.1080 S.o2      1 QZ3         0.0607
     28 H1          7.3158   18.4286   -8.6626 H         1 QZ3         0.0657
     29 H2          5.5204   20.4914   -5.4246 H         1 QZ3         0.0657
     30 H3          9.4366   19.5559   -8.1849 H         1 QZ3         0.0521
     31 H4          7.6302   21.6372   -4.9545 H         1 QZ3         0.0521
     32 H5          2.3258   15.0552   -8.1656 H         1 QZ3         0.0495
     33 H6          7.5576   15.7421   -6.0672 H         1 QZ3         0.0444
     34 H7          6.9309   17.3308   -5.5105 H         1 QZ3         0.0444
     35 H8          7.6163   17.1645   -7.1626 H         1 QZ3         0.0444
     36 H9          3.8626   11.4454   -5.9661 H         1 QZ3         0.0256
     37 H10         3.4229   13.0318   -5.2474 H         1 QZ3         0.0256
     38 H11         5.1392   12.6632   -5.6285 H         1 QZ3         0.0256
     39 H12         9.5332   24.4152   -4.3348 H         1 QZ3         0.0488
     40 H13         8.2751   23.2888   -4.9473 H         1 QZ3         0.0488
     41 H14         9.3099   24.1941   -6.1034 H         1 QZ3         0.0488
     42 H15         4.5877   12.5772   -8.0282 H         1 QZ3         0.0462
     43 H16         2.8715   12.9457   -7.6470 H         1 QZ3         0.0462
     44 H17         1.7043   17.1882   -8.6064 H         1 QZ3         0.2412
     45 H18        10.6629   21.0770   -7.0782 H         1 QZ3         0.2237
@<TRIPOS>BOND
     1   13    1 1  
     2    1   20 3  
     3    4    2 ar 
     4    2    7 ar 
     5    5    3 ar 
     6    3    7 ar 
     7   10    4 ar 
     8   10    5 ar 
     9    9    6 ar 
    10    6   11 ar 
    11    7   14 1  
    12    8    9 ar 
    13    8   12 ar 
    14   14    8 1  
    15    9   22 1  
    16   23   10 1  
    17   11   19 1  
    18   21   11 ar 
    19   12   16 1  
    20   12   21 ar 
    21   14   13 2  
    22   13   15 1  
    23   15   22 am 
    24   15   24 2  
    25   19   17 1  
    26   27   18 1  
    27   23   27 am 
    28   27   25 2  
    29   27   26 2  
    30    2   28 1  
    31    3   29 1  
    32    4   30 1  
    33    5   31 1  
    34    6   32 1  
    35   16   33 1  
    36   16   34 1  
    37   16   35 1  
    38   17   36 1  
    39   17   37 1  
    40   17   38 1  
    41   18   39 1  
    42   18   40 1  
    43   18   41 1  
    44   19   42 1  
    45   19   43 1  
    46   22   44 1  
    47   23   45 1  
@<TRIPOS>SUBSTRUCTURE
     1 QZ3         1

