### 
### Created by X-TOOL on Mon Sep 10 21:13:18 2018
### 

@<TRIPOS>MOLECULE
4up5_ligand
   20    21     1     0     0
SMALL
GAST_HUCK


@<TRIPOS>ATOM
      1 C01       -23.2340   11.5230   -4.6860 C.ar      1 94W         0.0789
      2 O02       -24.5870   11.7300   -4.6330 O.3       1 94W        -0.3273
      3 C03       -25.3540   10.8690   -3.7960 C.3       1 94W         0.0577
      4 C04       -22.7490   10.2270   -4.7800 C.ar      1 94W        -0.0245
      5 C05       -21.3750   10.0490   -4.8330 C.ar      1 94W         0.0412
      6 C06       -20.4920   11.1320   -4.7930 C.ar      1 94W         0.0007
      7 C07       -21.0060   12.4240   -4.6990 C.ar      1 94W        -0.0696
      8 C08       -22.3770   12.6140   -4.6460 C.ar      1 94W        -0.0450
      9 N09       -19.1390   10.7970   -4.8550 N.2       1 94W        -0.3152
     10 C10       -18.9900    9.5000   -4.9380 C.2       1 94W         0.1783
     11 N11       -17.8060    8.8820   -5.0120 N.pl3     1 94W        -0.2955
     12 S12       -20.4780    8.5610   -4.9510 S.3       1 94W         0.0231
     13 H         -26.4155   11.1518   -3.8537 H         1 94W         0.0575
     14 H         -25.0057   10.9622   -2.7568 H         1 94W         0.0575
     15 H         -25.2330    9.8284   -4.1314 H         1 94W         0.0575
     16 H         -23.4236    9.3791   -4.8111 H         1 94W         0.0476
     17 H         -20.3363   13.2758   -4.6675 H         1 94W         0.0518
     18 H         -22.7815   13.6171   -4.5731 H         1 94W         0.0485
     19 H         -16.9360    9.4333   -5.0043 H         1 94W         0.1884
     20 H         -17.7643    7.8549   -5.0767 H         1 94W         0.1884
@<TRIPOS>BOND
     1    1    2 1  
     2    1    4 ar 
     3    1    8 ar 
     4    2    3 1  
     5    4    5 ar 
     6    5    6 ar 
     7    5   12 1  
     8    6    7 ar 
     9    6    9 1  
    10    7    8 ar 
    11    9   10 2  
    12   10   11 1  
    13   10   12 1  
    14    3   13 1  
    15    3   14 1  
    16    3   15 1  
    17    4   16 1  
    18    7   17 1  
    19    8   18 1  
    20   11   19 1  
    21   11   20 1  
@<TRIPOS>SUBSTRUCTURE
     1 94W         1

