### 
### Created by X-TOOL on Mon Sep 10 21:13:24 2018
### 

@<TRIPOS>MOLECULE
4ura_ligand
   19    20     1     0     0
SMALL
GAST_HUCK


@<TRIPOS>ATOM
      1 O1        -24.4790  -22.3290  -25.9670 O.co2     1 LEL        -0.5575
      2 C5        -24.4460  -22.0310  -24.7870 C.2       1 LEL         0.0716
      3 O         -23.2830  -21.8460  -24.1130 O.co2     1 LEL        -0.5575
      4 C4        -25.5980  -21.8590  -23.9460 C.ar      1 LEL         0.0285
      5 C         -26.5860  -22.8360  -23.9930 C.ar      1 LEL        -0.0218
      6 C3        -25.6370  -20.7470  -23.0830 C.ar      1 LEL        -0.0137
      7 C2        -26.7640  -20.6870  -22.2440 C.ar      1 LEL         0.0664
      8 N7        -27.7020  -21.6690  -22.2920 N.ar      1 LEL        -0.2905
      9 C1        -27.6390  -22.6940  -23.1170 C.ar      1 LEL         0.0118
     10 C6        -27.0200  -19.6210  -21.2380 C.2       1 LEL         0.0979
     11 N3        -28.2860  -19.4080  -20.6030 N.2       1 LEL        -0.1627
     12 N2        -28.2570  -18.3660  -19.8470 N.pl3     1 LEL        -0.1372
     13 N1        -26.9990  -17.8130  -19.9100 N.2       1 LEL        -0.1732
     14 C7        -26.1900  -18.5730  -20.7800 C.2       1 LEL         0.0474
     15 H1        -26.5302  -23.6685  -24.6851 H         1 LEL         0.0727
     16 H2        -24.8573  -19.9941  -23.0666 H         1 LEL         0.0739
     17 H3        -28.4281  -23.4371  -23.1062 H         1 LEL         0.0828
     18 H4        -29.0442  -18.0066  -19.2884 H         1 LEL         0.2857
     19 H5        -25.1489  -18.3912  -21.0426 H         1 LEL         0.0756
@<TRIPOS>BOND
     1    1    2 ar 
     2    2    3 ar 
     3    2    4 1  
     4    4    5 ar 
     5    4    6 ar 
     6    5    9 ar 
     7    6    7 ar 
     8    7    8 ar 
     9    7   10 1  
    10    8    9 ar 
    11   10   11 2  
    12   10   14 1  
    13   11   12 1  
    14   12   13 1  
    15   13   14 2  
    16    5   15 1  
    17    6   16 1  
    18    9   17 1  
    19   12   18 1  
    20   14   19 1  
@<TRIPOS>SUBSTRUCTURE
     1 LEL         1

