### 
### Created by X-TOOL on Mon Sep 10 21:13:20 2018
### 

@<TRIPOS>MOLECULE
4urk_ligand
   53    56     1     0     0
SMALL
GAST_HUCK


@<TRIPOS>ATOM
      1 C1         41.5330   16.3210   33.5580 C.2       1 A82        -0.0047
      2 C2         41.2280   15.2610   32.8100 C.2       1 A82         0.1048
      3 N3         42.1820   14.6350   32.0500 N.am      1 A82        -0.1465
      4 C4         43.5040   15.0830   32.0510 C.2       1 A82         0.1722
      5 N5         44.4220   14.4990   31.3560 N.2       1 A82        -0.3112
      6 C6         44.1300   13.4110   30.5850 C.2       1 A82         0.0540
      7 C7         42.8890   12.9090   30.5120 C.2       1 A82        -0.0023
      8 C8         41.8060   13.5360   31.2910 C.2       1 A82         0.2117
      9 O9         40.6870   13.0440   31.2110 O.2       1 A82        -0.4168
     10 N10        45.1570   12.8400   29.8690 N.pl3     1 A82        -0.2962
     11 C11        44.8760   12.1650   28.6110 C.3       1 A82         0.0542
     12 C12        46.0750   11.3380   28.2230 C.3       1 A82         0.0681
     13 O13        47.2300   12.1690   28.1760 O.3       1 A82        -0.3757
     14 C14        47.5480   12.6160   29.4870 C.3       1 A82         0.0681
     15 C15        46.4400   13.5350   29.9240 C.3       1 A82         0.0542
     16 C16        43.8690   16.2760   32.8820 C.2       1 A82         0.0427
     17 C17        42.8730   16.8260   33.5900 C.2       1 A82        -0.0430
     18 C18        45.2980   16.7560   32.9050 C.3       1 A82         0.0701
     19 C19        45.6560   17.4770   31.6320 C.3       1 A82        -0.0336
     20 C20        40.5220   17.0200   34.3860 C.3       1 A82        -0.0331
     21 N21        45.5260   17.7050   33.9810 N.pl3     1 A82        -0.3073
     22 C22        46.1940   17.1890   35.1140 C.ar      1 A82         0.0549
     23 C23        47.8340   17.4510   36.8690 C.ar      1 A82        -0.0592
     24 C24        47.1860   17.9280   35.7480 C.ar      1 A82         0.0275
     25 C25        47.4800   16.2250   37.3890 C.ar      1 A82        -0.0714
     26 C26        45.8500   15.9670   35.6710 C.ar      1 A82        -0.0403
     27 C27        46.4880   15.4790   36.7910 C.ar      1 A82        -0.0709
     28 C28        47.6270   19.2430   35.2410 C.2       1 A82         0.0559
     29 O29        46.5430   20.0600   35.1510 O.co2     1 A82        -0.5650
     30 O30        48.7900   19.5180   34.9690 O.co2     1 A82        -0.5650
     31 H          40.2055   14.8864   32.8024 H         1 A82         0.1188
     32 H          42.6827   12.0449   29.8822 H         1 A82         0.0084
     33 H          44.6732   12.9112   27.8287 H         1 A82         0.0546
     34 H          43.9994   11.5113   28.7303 H         1 A82         0.0546
     35 H          45.9059   10.8891   27.2331 H         1 A82         0.0580
     36 H          46.2267   10.5412   28.9660 H         1 A82         0.0580
     37 H          48.5055   13.1573   29.4788 H         1 A82         0.0580
     38 H          47.6178   11.7577   30.1714 H         1 A82         0.0580
     39 H          46.6292   13.8674   30.9553 H         1 A82         0.0546
     40 H          46.4086   14.4091   29.2569 H         1 A82         0.0546
     41 H          43.0910   17.6912   34.2144 H         1 A82         0.0631
     42 H          45.9575   15.8853   33.0349 H         1 A82         0.0694
     43 H          46.7023   17.8126   31.6826 H         1 A82         0.0272
     44 H          44.9970   18.3488   31.5066 H         1 A82         0.0272
     45 H          45.5302   16.7962   30.7772 H         1 A82         0.0272
     46 H          39.5455   16.5282   34.2650 H         1 A82         0.0357
     47 H          40.4465   18.0692   34.0644 H         1 A82         0.0357
     48 H          40.8235   16.9813   35.4431 H         1 A82         0.0357
     49 H          45.2214   18.6872   33.9219 H         1 A82         0.1798
     50 H          48.6165   18.0369   37.3375 H         1 A82         0.0616
     51 H          47.9835   15.8464   38.2712 H         1 A82         0.0513
     52 H          45.0603   15.3812   35.2147 H         1 A82         0.0523
     53 H          46.2109   14.5137   37.1991 H         1 A82         0.0604
@<TRIPOS>BOND
     1    1    2 2  
     2    1   17 1  
     3    1   20 1  
     4    2    3 1  
     5    3    4 1  
     6    3    8 am 
     7    4    5 2  
     8    4   16 1  
     9    5    6 1  
    10    6    7 2  
    11    6   10 1  
    12    7    8 1  
    13    8    9 2  
    14   10   11 1  
    15   10   15 1  
    16   11   12 1  
    17   12   13 1  
    18   13   14 1  
    19   14   15 1  
    20   16   17 2  
    21   16   18 1  
    22   18   19 1  
    23   18   21 1  
    24   21   22 1  
    25   22   24 ar 
    26   22   26 ar 
    27   24   23 ar 
    28   23   25 ar 
    29   24   28 1  
    30   25   27 ar 
    31   26   27 ar 
    32   28   29 ar 
    33   28   30 ar 
    34    2   31 1  
    35    7   32 1  
    36   11   33 1  
    37   11   34 1  
    38   12   35 1  
    39   12   36 1  
    40   14   37 1  
    41   14   38 1  
    42   15   39 1  
    43   15   40 1  
    44   17   41 1  
    45   18   42 1  
    46   19   43 1  
    47   19   44 1  
    48   19   45 1  
    49   20   46 1  
    50   20   47 1  
    51   20   48 1  
    52   21   49 1  
    53   23   50 1  
    54   25   51 1  
    55   26   52 1  
    56   27   53 1  
@<TRIPOS>SUBSTRUCTURE
     1 A82         1

