### 
### Created by X-TOOL on Mon Sep 10 21:13:19 2018
### 

@<TRIPOS>MOLECULE
4url_ligand
  124   129     1     0     0
SMALL
GAST_HUCK


@<TRIPOS>ATOM
      1 C4         24.5240  -17.9320    1.7460 C.3       1 XAM         0.1469
      2 C5         23.1520  -18.5530    2.0230 C.3       1 XAM         0.0919
      3 C6         23.1580  -19.6300    3.0870 C.3       1 XAM        -0.0357
      4 C3         25.3340  -18.7200    0.7150 C.3       1 XAM         0.1506
      5 CLW        16.1380   -9.8250   -5.4990 Cl        1 XAM        -0.0978
      6 CAS        15.3650   -8.4090   -6.1030 C.2       1 XAM         0.0429
      7 CAT        14.7400   -7.4120   -5.2620 C.2       1 XAM         0.0381
      8 CLX        14.7080   -7.4960   -3.5390 Cl        1 XAM        -0.1132
      9 CAU        14.2360   -6.4480   -6.1350 C.2       1 XAM         0.0546
     10 CAY        13.5530   -5.1500   -5.8380 C.3       1 XAM        -0.0068
     11 NAV        14.5160   -6.8320   -7.4270 N.pl3     1 XAM        -0.2738
     12 CAR        15.2210   -8.0110   -7.4270 C.2       1 XAM         0.1288
     13 CAP        15.7040   -8.6550   -8.6660 C.2       1 XAM         0.2096
     14 OAQ        15.4300   -8.1790   -9.7610 O.2       1 XAM        -0.3967
     15 NAO        16.4330   -9.7690   -8.4890 N.am      1 XAM        -0.2832
     16 CAM        17.3640  -10.3830   -9.4850 C.3       1 XAM         0.0693
     17 CAN        18.8250   -9.8600   -9.2550 C.3       1 XAM        -0.0394
     18 CCE        17.1930  -11.9900   -9.4940 C.3       1 XAM         0.1210
     19 CCF        17.8180  -12.7150   -8.2780 C.3       1 XAM         0.0320
     20 OCK        15.7800  -12.2030   -9.3860 O.3       1 XAM        -0.3835
     21 CCD        17.8210  -12.6330  -10.8380 C.3       1 XAM         0.1120
     22 OCJ        16.9710  -12.2000  -11.8940 O.3       1 XAM        -0.3863
     23 CCC        17.9150  -14.1540  -10.8490 C.3       1 XAM         0.0875
     24 CCI        18.7980  -14.6710  -11.9590 C.3       1 XAM        -0.0361
     25 OCH        18.5190  -14.6250   -9.6270 O.3       1 XAM        -0.3456
     26 CCG        17.8860  -14.2220   -8.4200 C.3       1 XAM         0.1629
     27 OAL        18.5550  -14.7710   -7.3000 O.3       1 XAM        -0.3455
     28 CAC        18.4410  -16.2020   -7.1000 C.3       1 XAM         0.0756
     29 CAB        17.0670  -16.4420   -6.4890 C.3       1 XAM        -0.0126
     30 CAA        16.9310  -17.8670   -5.9490 C.3       1 XAM        -0.0149
     31 CAF        18.0590  -18.1860   -5.0090 C.2       1 XAM        -0.0645
     32 CAK        17.8650  -18.4310   -3.7240 C.2       1 XAM        -0.1283
     33 CAE        19.4090  -18.1070   -5.7220 C.3       1 XAM         0.0302
     34 CAD        19.6290  -16.6370   -6.1880 C.3       1 XAM         0.0202
     35 CAG        21.0030  -16.4300   -6.7880 C.2       1 XAM        -0.0898
     36 CAH        22.0320  -17.2670   -6.6680 C.2       1 XAM        -0.0915
     37 CAI        21.9750  -18.5830   -5.9410 C.3       1 XAM        -0.0015
     38 CBC        22.0980  -19.7370   -6.9420 C.3       1 XAM        -0.0522
     39 CAJ        20.7060  -18.6180   -5.0480 C.3       1 XAM         0.0688
     40 CAZ        20.5280  -20.0070   -4.3780 C.2       1 XAM         0.1317
     41 OBB        19.7300  -20.9270   -4.9560 O.3       1 XAM        -0.2974
     42 CBA        21.1090  -20.3650   -3.1800 C.2       1 XAM         0.1094
     43 CBD        21.9430  -19.5100   -2.3250 C.2       1 XAM         0.1788
     44 OBH        22.2830  -18.3380   -2.4840 O.2       1 XAM        -0.4150
     45 CBG        20.9720  -21.6660   -2.5360 C.2       1 XAM         0.1264
     46 OBI        20.4450  -22.6770   -2.9650 O.2       1 XAM        -0.4097
     47 CBF        21.6990  -21.6140   -1.1760 C.3       1 XAM         0.1120
     48 CBJ        20.8010  -21.8660    0.0600 C.3       1 XAM        -0.0091
     49 CBL        19.3490  -21.4400   -0.1660 C.3       1 XAM        -0.0586
     50 CBK        20.8830  -23.3130    0.5130 C.3       1 XAM        -0.0586
     51 NBE        22.3140  -20.2870   -1.1800 N.am      1 XAM        -0.2336
     52 C1         23.2900  -19.8820   -0.0970 C.3       1 XAM         0.1752
     53 C2         24.5490  -19.1390   -0.5210 C.3       1 XAM         0.1389
     54 O2         25.3030  -20.0600   -1.3060 O.3       1 XAM        -0.3720
     55 CCL        26.0890  -19.4710   -2.3420 C.3       1 XAM         0.0371
     56 O5         22.5460  -19.0920    0.8290 O.3       1 XAM        -0.3457
     57 O4         25.2780  -17.8570    2.9770 O.3       1 XAM        -0.2551
     58 CBZ        26.1670  -16.8300    3.3010 C.2       1 XAM         0.3173
     59 OCB        26.4880  -16.6530    4.4570 O.2       1 XAM        -0.3777
     60 NCA        26.5920  -16.1170    2.2590 N.am      1 XAM        -0.2763
     61 O3         25.9780  -19.8650    1.3180 O.3       1 XAM        -0.2679
     62 CBW        27.3190  -19.9970    1.1620 C.2       1 XAM         0.2310
     63 OBY        27.9950  -19.2230    0.5360 O.2       1 XAM        -0.3707
     64 CBX        27.8150  -21.2170    1.8580 C.3       1 XAM         0.0372
     65 H          24.3687  -16.9141    1.3591 H         1 XAM         0.0704
     66 H          22.5075  -17.7390    2.3864 H         1 XAM         0.0624
     67 H          22.1377  -20.0188    3.2209 H         1 XAM         0.0255
     68 H          23.5162  -19.2055    4.0365 H         1 XAM         0.0255
     69 H          23.8244  -20.4483    2.7767 H         1 XAM         0.0255
     70 H          26.1304  -18.0462    0.3660 H         1 XAM         0.0708
     71 H          13.2923   -4.6486   -6.7817 H         1 XAM         0.0425
     72 H          14.2274   -4.5058   -5.2547 H         1 XAM         0.0425
     73 H          12.6373   -5.3415   -5.2594 H         1 XAM         0.0425
     74 H          14.2374   -6.3111   -8.2708 H         1 XAM         0.2335
     75 H          16.3447  -10.2320   -7.6070 H         1 XAM         0.1837
     76 H          17.0605  -10.0318  -10.4822 H         1 XAM         0.0581
     77 H          19.4991  -10.3188   -9.9933 H         1 XAM         0.0253
     78 H          19.1551  -10.1283   -8.2406 H         1 XAM         0.0253
     79 H          18.8453   -8.7662   -9.3699 H         1 XAM         0.0253
     80 H          17.2150  -12.4794   -7.3887 H         1 XAM         0.0344
     81 H          18.8409  -12.3353   -8.1386 H         1 XAM         0.0344
     82 H          15.3402  -11.7768  -10.1122 H         1 XAM         0.2104
     83 H          18.8342  -12.2300  -10.9830 H         1 XAM         0.0649
     84 H          16.0880  -12.5133  -11.7370 H         1 XAM         0.2100
     85 H          16.9025  -14.5702  -10.9565 H         1 XAM         0.0621
     86 H          18.8301  -15.7699  -11.9203 H         1 XAM         0.0255
     87 H          19.8148  -14.2700  -11.8356 H         1 XAM         0.0255
     88 H          18.3925  -14.3500  -12.9298 H         1 XAM         0.0255
     89 H          16.8567  -14.6096   -8.4341 H         1 XAM         0.0911
     90 H          18.5098  -16.7352   -8.0597 H         1 XAM         0.0624
     91 H          16.2999  -16.2780   -7.2602 H         1 XAM         0.0318
     92 H          16.9146  -15.7315   -5.6632 H         1 XAM         0.0318
     93 H          16.9499  -18.5757   -6.7900 H         1 XAM         0.0461
     94 H          15.9755  -17.9605   -5.4120 H         1 XAM         0.0461
     95 H          18.7125  -18.6580   -3.0790 H         1 XAM         0.0075
     96 H          16.8577  -18.4058   -3.3109 H         1 XAM         0.0075
     97 H          19.2936  -18.7275   -6.6229 H         1 XAM         0.0560
     98 H          19.5880  -16.0011   -5.2914 H         1 XAM         0.0480
     99 H          21.1636  -15.5211   -7.3659 H         1 XAM         0.0456
    100 H          22.9772  -16.9799   -7.1264 H         1 XAM         0.0455
    101 H          22.8452  -18.6436   -5.2709 H         1 XAM         0.0463
    102 H          23.0249  -19.6212   -7.5229 H         1 XAM         0.0254
    103 H          21.2344  -19.7251   -7.6232 H         1 XAM         0.0254
    104 H          22.1231  -20.6929   -6.3983 H         1 XAM         0.0254
    105 H          20.9034  -17.9102   -4.2294 H         1 XAM         0.0665
    106 H          19.7260  -21.7172   -4.4287 H         1 XAM         0.2712
    107 H          22.4873  -22.3811   -1.1628 H         1 XAM         0.0770
    108 H          21.1958  -21.2440    0.8769 H         1 XAM         0.0341
    109 H          18.7620  -21.6422    0.7420 H         1 XAM         0.0234
    110 H          18.9274  -22.0071   -1.0090 H         1 XAM         0.0234
    111 H          19.3136  -20.3644   -0.3935 H         1 XAM         0.0234
    112 H          21.9364  -23.5898    0.6670 H         1 XAM         0.0234
    113 H          20.4416  -23.9637   -0.2563 H         1 XAM         0.0234
    114 H          20.3305  -23.4338    1.4565 H         1 XAM         0.0234
    115 H          23.6224  -20.8022    0.4057 H         1 XAM         0.0897
    116 H          24.2919  -18.2499   -1.1155 H         1 XAM         0.0674
    117 H          26.6290  -20.2599   -2.8860 H         1 XAM         0.0524
    118 H          26.8120  -18.7697   -1.9000 H         1 XAM         0.0524
    119 H          25.4316  -18.9296   -3.0383 H         1 XAM         0.0524
    120 H          27.2315  -15.3608    2.3980 H         1 XAM         0.1831
    121 H          26.2716  -16.3380    1.3379 H         1 XAM         0.1831
    122 H          28.9026  -21.3025    1.7176 H         1 XAM         0.0483
    123 H          27.3202  -22.1053    1.4384 H         1 XAM         0.0483
    124 H          27.5886  -21.1441    2.9320 H         1 XAM         0.0483
@<TRIPOS>BOND
     1    1    2 1  
     2    4    1 1  
     3    1   57 1  
     4    2    3 1  
     5    2   56 1  
     6   53    4 1  
     7    4   61 1  
     8    6    5 1  
     9    6    7 1  
    10   12    6 2  
    11    7    8 1  
    12    9    7 2  
    13    9   10 1  
    14   11    9 1  
    15   12   11 1  
    16   13   12 1  
    17   13   14 2  
    18   15   13 am 
    19   16   15 1  
    20   16   17 1  
    21   18   16 1  
    22   19   18 1  
    23   18   20 1  
    24   18   21 1  
    25   26   19 1  
    26   21   22 1  
    27   23   21 1  
    28   23   24 1  
    29   25   23 1  
    30   26   25 1  
    31   27   26 1  
    32   28   27 1  
    33   28   29 1  
    34   34   28 1  
    35   30   29 1  
    36   31   30 1  
    37   31   32 2  
    38   33   31 1  
    39   33   34 1  
    40   39   33 1  
    41   34   35 1  
    42   36   35 2  
    43   37   36 1  
    44   37   38 1  
    45   39   37 1  
    46   40   39 1  
    47   40   41 1  
    48   42   40 2  
    49   43   42 1  
    50   45   42 1  
    51   43   44 2  
    52   51   43 am 
    53   45   46 2  
    54   47   45 1  
    55   47   48 1  
    56   51   47 1  
    57   48   49 1  
    58   48   50 1  
    59   52   51 1  
    60   52   53 1  
    61   52   56 1  
    62   53   54 1  
    63   54   55 1  
    64   57   58 1  
    65   58   59 2  
    66   58   60 am 
    67   61   62 1  
    68   62   63 2  
    69   62   64 1  
    70    1   65 1  
    71    2   66 1  
    72    3   67 1  
    73    3   68 1  
    74    3   69 1  
    75    4   70 1  
    76   10   71 1  
    77   10   72 1  
    78   10   73 1  
    79   11   74 1  
    80   15   75 1  
    81   16   76 1  
    82   17   77 1  
    83   17   78 1  
    84   17   79 1  
    85   19   80 1  
    86   19   81 1  
    87   20   82 1  
    88   21   83 1  
    89   22   84 1  
    90   23   85 1  
    91   24   86 1  
    92   24   87 1  
    93   24   88 1  
    94   26   89 1  
    95   28   90 1  
    96   29   91 1  
    97   29   92 1  
    98   30   93 1  
    99   30   94 1  
   100   32   95 1  
   101   32   96 1  
   102   33   97 1  
   103   34   98 1  
   104   35   99 1  
   105   36  100 1  
   106   37  101 1  
   107   38  102 1  
   108   38  103 1  
   109   38  104 1  
   110   39  105 1  
   111   41  106 1  
   112   47  107 1  
   113   48  108 1  
   114   49  109 1  
   115   49  110 1  
   116   49  111 1  
   117   50  112 1  
   118   50  113 1  
   119   50  114 1  
   120   52  115 1  
   121   53  116 1  
   122   55  117 1  
   123   55  118 1  
   124   55  119 1  
   125   60  120 1  
   126   60  121 1  
   127   64  122 1  
   128   64  123 1  
   129   64  124 1  
@<TRIPOS>SUBSTRUCTURE
     1 XAM         1

