### 
### Created by X-TOOL on Mon Sep 10 21:13:18 2018
### 

@<TRIPOS>MOLECULE
4urm_ligand
  124   129     1     0     0
SMALL
GAST_HUCK


@<TRIPOS>ATOM
      1 C4         38.0370   -3.1510   21.4030 C.3       1 XAM         0.1469
      2 C5         37.6370   -1.6960   21.1580 C.3       1 XAM         0.0919
      3 C6         37.1570   -1.4100   19.7510 C.3       1 XAM        -0.0357
      4 C3         39.4470   -3.4410   20.8990 C.3       1 XAM         0.1506
      5 CLW        38.0940    1.2280   34.1380 Cl        1 XAM        -0.0978
      6 CAS        37.9040    1.5720   35.8150 C.2       1 XAM         0.0429
      7 CAT        36.6500    1.8840   36.4010 C.2       1 XAM         0.0381
      8 CLX        35.2070    2.0290   35.4740 Cl        1 XAM        -0.1132
      9 CAU        36.8980    2.0430   37.7730 C.2       1 XAM         0.0546
     10 CAY        35.9670    2.2790   38.9180 C.3       1 XAM        -0.0068
     11 NAV        38.2320    1.8730   37.9860 N.pl3     1 XAM        -0.2738
     12 CAR        38.8660    1.5720   36.8100 C.2       1 XAM         0.1288
     13 CAP        40.3250    1.3480   36.8210 C.2       1 XAM         0.2096
     14 OAQ        40.9610    1.5220   37.8550 O.2       1 XAM        -0.3967
     15 NAO        40.8930    0.9980   35.6590 N.am      1 XAM        -0.2832
     16 CAM        42.2540    0.3620   35.4990 C.3       1 XAM         0.0693
     17 CAN        42.0700   -1.1570   35.3140 C.3       1 XAM        -0.0394
     18 CCE        43.0570    1.1030   34.3250 C.3       1 XAM         0.1210
     19 CCF        42.3580    0.9410   32.9410 C.3       1 XAM         0.0320
     20 OCK        43.0160    2.4910   34.6970 O.3       1 XAM        -0.3835
     21 CCD        44.5870    0.6500   34.1770 C.3       1 XAM         0.1120
     22 OCJ        45.2070    1.1300   35.3580 O.3       1 XAM        -0.3863
     23 CCC        45.2200    1.3180   32.9620 C.3       1 XAM         0.0875
     24 CCI        46.6630    0.9190   32.7580 C.3       1 XAM        -0.0361
     25 OCH        44.5020    0.9460   31.7670 O.3       1 XAM        -0.3456
     26 CCG        43.1440    1.3750   31.7200 C.3       1 XAM         0.1629
     27 OAL        42.4760    0.9390   30.5390 O.3       1 XAM        -0.3455
     28 CAC        42.9370    1.5520   29.3040 C.3       1 XAM         0.0756
     29 CAB        42.4210    2.9870   29.2900 C.3       1 XAM        -0.0126
     30 CAA        42.6300    3.6580   27.9260 C.3       1 XAM        -0.0149
     31 CAF        42.1430    2.7530   26.8270 C.2       1 XAM        -0.0645
     32 CAK        41.0920    3.0400   26.0790 C.2       1 XAM        -0.1283
     33 CAE        42.9460    1.4630   26.7740 C.3       1 XAM         0.0302
     34 CAD        42.5650    0.6460   28.0440 C.3       1 XAM         0.0202
     35 CAG        43.3390   -0.6430   28.0560 C.2       1 XAM        -0.0898
     36 CAH        43.8300   -1.2560   26.9810 C.2       1 XAM        -0.0915
     37 CAI        43.7160   -0.7640   25.5630 C.3       1 XAM        -0.0015
     38 CBC        45.0890   -0.6860   24.8930 C.3       1 XAM        -0.0522
     39 CAJ        42.8860    0.5390   25.5240 C.3       1 XAM         0.0688
     40 CAZ        43.1600    1.3000   24.1790 C.2       1 XAM         0.1317
     41 OBB        44.1530    2.2220   24.0920 O.3       1 XAM        -0.2974
     42 CBA        42.4360    1.0580   23.0360 C.2       1 XAM         0.1094
     43 CBD        41.4110    0.0440   22.9450 C.2       1 XAM         0.1788
     44 OBH        41.0040   -0.7320   23.8000 O.2       1 XAM        -0.4150
     45 CBG        42.5390    1.7060   21.7290 C.2       1 XAM         0.1264
     46 OBI        43.4130    2.4480   21.3100 O.2       1 XAM        -0.4097
     47 CBF        41.3700    1.1810   20.8300 C.3       1 XAM         0.1120
     48 CBJ        40.2300    2.2250   20.6730 C.3       1 XAM        -0.0091
     49 CBL        40.7530    3.6490   20.4960 C.3       1 XAM        -0.0586
     50 CBK        39.2640    1.8620   19.5390 C.3       1 XAM        -0.0586
     51 NBE        40.8920    0.0570   21.6390 N.am      1 XAM        -0.2336
     52 C1         40.0690   -1.0750   21.0980 C.3       1 XAM         0.1752
     53 C2         40.4350   -2.4850   21.5460 C.3       1 XAM         0.1389
     54 O2         41.7960   -2.9010   21.3690 O.3       1 XAM        -0.3720
     55 CCL        42.5260   -2.3260   20.2770 C.3       1 XAM         0.0371
     56 O5         38.7230   -0.7910   21.4590 O.3       1 XAM        -0.3457
     57 O4         37.0990   -4.0310   20.7480 O.3       1 XAM        -0.2551
     58 CBZ        36.7470   -5.2980   21.2620 C.2       1 XAM         0.3173
     59 OCB        35.6310   -5.7350   21.0910 O.2       1 XAM        -0.3777
     60 NCA        37.7320   -5.9330   21.8920 N.am      1 XAM        -0.2763
     61 O3         39.5020   -3.2560   19.4650 O.3       1 XAM        -0.2679
     62 CBW        39.8300   -4.3140   18.6890 C.2       1 XAM         0.2310
     63 OBY        39.7930   -5.4560   19.0670 O.2       1 XAM        -0.3707
     64 CBX        40.2400   -3.8610   17.3300 C.3       1 XAM         0.0372
     65 H          38.0077   -3.3423   22.4858 H         1 XAM         0.0704
     66 H          36.8061   -1.4727   21.8434 H         1 XAM         0.0624
     67 H          36.8915   -0.3461   19.6633 H         1 XAM         0.0255
     68 H          36.2734   -2.0276   19.5324 H         1 XAM         0.0255
     69 H          37.9573   -1.6484   19.0350 H         1 XAM         0.0255
     70 H          39.7178   -4.4774   21.1490 H         1 XAM         0.0708
     71 H          36.5445    2.3501   39.8515 H         1 XAM         0.0425
     72 H          35.2551    1.4435   38.9900 H         1 XAM         0.0425
     73 H          35.4161    3.2171   38.7554 H         1 XAM         0.0425
     74 H          38.6977    1.9585   38.9007 H         1 XAM         0.2335
     75 H          40.3703    1.1731   34.8247 H         1 XAM         0.1837
     76 H          42.8225    0.5135   36.4284 H         1 XAM         0.0581
     77 H          43.0542   -1.6339   35.1961 H         1 XAM         0.0253
     78 H          41.4612   -1.3461   34.4176 H         1 XAM         0.0253
     79 H          41.5633   -1.5751   36.1963 H         1 XAM         0.0253
     80 H          41.4305    1.5318   32.9661 H         1 XAM         0.0344
     81 H          42.1114   -0.1237   32.8160 H         1 XAM         0.0344
     82 H          43.4392    2.6044   35.5399 H         1 XAM         0.2104
     83 H          44.6723   -0.4436   34.0956 H         1 XAM         0.0649
     84 H          44.7899    0.7369   36.1155 H         1 XAM         0.2100
     85 H          45.1671    2.4082   33.0983 H         1 XAM         0.0621
     86 H          47.0630    1.4309   31.8703 H         1 XAM         0.0255
     87 H          46.7254   -0.1696   32.6127 H         1 XAM         0.0255
     88 H          47.2511    1.2052   33.6424 H         1 XAM         0.0255
     89 H          43.1550    2.4749   31.7070 H         1 XAM         0.0911
     90 H          44.0353    1.6041   29.3349 H         1 XAM         0.0624
     91 H          42.9578    3.5652   30.0565 H         1 XAM         0.0318
     92 H          41.3457    2.9804   29.5218 H         1 XAM         0.0318
     93 H          43.7010    3.8630   27.7812 H         1 XAM         0.0461
     94 H          42.0682    4.6032   27.8952 H         1 XAM         0.0461
     95 H          40.7777    2.3527   25.2949 H         1 XAM         0.0075
     96 H          40.5402    3.9638   26.2467 H         1 XAM         0.0075
     97 H          44.0007    1.7622   26.8635 H         1 XAM         0.0560
     98 H          41.4874    0.4254   28.0464 H         1 XAM         0.0480
     99 H          43.5121   -1.1135   29.0228 H         1 XAM         0.0456
    100 H          44.3596   -2.1939   27.1413 H         1 XAM         0.0455
    101 H          43.1424   -1.5158   25.0012 H         1 XAM         0.0463
    102 H          45.5936   -1.6599   24.9765 H         1 XAM         0.0254
    103 H          45.6961    0.0852   25.3896 H         1 XAM         0.0254
    104 H          44.9647   -0.4273   23.8311 H         1 XAM         0.0254
    105 H          41.8375    0.2097   25.4765 H         1 XAM         0.0665
    106 H          44.1754    2.5795   23.2121 H         1 XAM         0.2712
    107 H          41.7284    0.8624   19.8400 H         1 XAM         0.0770
    108 H          39.6530    2.2072   21.6093 H         1 XAM         0.0341
    109 H          39.9043    4.3408   20.3903 H         1 XAM         0.0234
    110 H          41.3815    3.6994   19.5947 H         1 XAM         0.0234
    111 H          41.3497    3.9325   21.3755 H         1 XAM         0.0234
    112 H          38.8985    0.8346   19.6835 H         1 XAM         0.0234
    113 H          39.7879    1.9325   18.5744 H         1 XAM         0.0234
    114 H          38.4125    2.5584   19.5456 H         1 XAM         0.0234
    115 H          40.1592   -1.0556   20.0019 H         1 XAM         0.0897
    116 H          40.2593   -2.5189   22.6313 H         1 XAM         0.0674
    117 H          43.5475   -2.7339   20.2637 H         1 XAM         0.0524
    118 H          42.5690   -1.2337   20.3994 H         1 XAM         0.0524
    119 H          42.0217   -2.5694   19.3302 H         1 XAM         0.0524
    120 H          37.5713   -6.8372   22.2878 H         1 XAM         0.1831
    121 H          38.6330   -5.5061   21.9697 H         1 XAM         0.1831
    122 H          40.5022   -4.7351   16.7158 H         1 XAM         0.0483
    123 H          41.1123   -3.1961   17.4128 H         1 XAM         0.0483
    124 H          39.4081   -3.3176   16.8581 H         1 XAM         0.0483
@<TRIPOS>BOND
     1    1    2 1  
     2    4    1 1  
     3    1   57 1  
     4    2    3 1  
     5    2   56 1  
     6   53    4 1  
     7    4   61 1  
     8    6    5 1  
     9    6    7 1  
    10   12    6 2  
    11    7    8 1  
    12    9    7 2  
    13    9   10 1  
    14   11    9 1  
    15   12   11 1  
    16   13   12 1  
    17   13   14 2  
    18   15   13 am 
    19   16   15 1  
    20   16   17 1  
    21   18   16 1  
    22   19   18 1  
    23   18   20 1  
    24   18   21 1  
    25   26   19 1  
    26   21   22 1  
    27   23   21 1  
    28   23   24 1  
    29   25   23 1  
    30   26   25 1  
    31   27   26 1  
    32   28   27 1  
    33   28   29 1  
    34   34   28 1  
    35   30   29 1  
    36   31   30 1  
    37   31   32 2  
    38   33   31 1  
    39   33   34 1  
    40   39   33 1  
    41   34   35 1  
    42   36   35 2  
    43   37   36 1  
    44   37   38 1  
    45   39   37 1  
    46   40   39 1  
    47   40   41 1  
    48   42   40 2  
    49   43   42 1  
    50   45   42 1  
    51   43   44 2  
    52   51   43 am 
    53   45   46 2  
    54   47   45 1  
    55   47   48 1  
    56   51   47 1  
    57   48   49 1  
    58   48   50 1  
    59   52   51 1  
    60   52   53 1  
    61   52   56 1  
    62   53   54 1  
    63   54   55 1  
    64   57   58 1  
    65   58   59 2  
    66   58   60 am 
    67   61   62 1  
    68   62   63 2  
    69   62   64 1  
    70    1   65 1  
    71    2   66 1  
    72    3   67 1  
    73    3   68 1  
    74    3   69 1  
    75    4   70 1  
    76   10   71 1  
    77   10   72 1  
    78   10   73 1  
    79   11   74 1  
    80   15   75 1  
    81   16   76 1  
    82   17   77 1  
    83   17   78 1  
    84   17   79 1  
    85   19   80 1  
    86   19   81 1  
    87   20   82 1  
    88   21   83 1  
    89   22   84 1  
    90   23   85 1  
    91   24   86 1  
    92   24   87 1  
    93   24   88 1  
    94   26   89 1  
    95   28   90 1  
    96   29   91 1  
    97   29   92 1  
    98   30   93 1  
    99   30   94 1  
   100   32   95 1  
   101   32   96 1  
   102   33   97 1  
   103   34   98 1  
   104   35   99 1  
   105   36  100 1  
   106   37  101 1  
   107   38  102 1  
   108   38  103 1  
   109   38  104 1  
   110   39  105 1  
   111   41  106 1  
   112   47  107 1  
   113   48  108 1  
   114   49  109 1  
   115   49  110 1  
   116   49  111 1  
   117   50  112 1  
   118   50  113 1  
   119   50  114 1  
   120   52  115 1  
   121   53  116 1  
   122   55  117 1  
   123   55  118 1  
   124   55  119 1  
   125   60  120 1  
   126   60  121 1  
   127   64  122 1  
   128   64  123 1  
   129   64  124 1  
@<TRIPOS>SUBSTRUCTURE
     1 XAM         1

