### 
### Created by X-TOOL on Mon Sep 10 21:13:20 2018
### 

@<TRIPOS>MOLECULE
4urn_ligand
   80    83     1     0     0
SMALL
GAST_HUCK


@<TRIPOS>ATOM
      1 C1        -30.3150    2.2170    3.2210 C.3       1 NOV         0.0371
      2 O1        -30.4790    3.1370    2.1470 O.3       1 NOV        -0.3739
      3 N1        -26.4050    1.5070    0.6200 N.am      1 NOV        -0.2763
      4 C12       -27.3600    2.1960    0.0040 C.2       1 NOV         0.3173
      5 O4        -27.1760    3.0470   -0.8450 O.2       1 NOV        -0.3777
      6 O5        -28.5800    1.8320    0.4540 O.3       1 NOV        -0.2552
      7 C27       -30.8890    2.5420    0.9190 C.3       1 NOV         0.1196
      8 C28       -29.7360    2.5110   -0.0830 C.3       1 NOV         0.1476
      9 C29       -30.1870    1.9120   -1.4110 C.3       1 NOV         0.1428
     10 O6        -30.6120    0.5640   -1.2800 O.3       1 NOV        -0.3833
     11 C30       -31.2960    2.7670   -2.0130 C.3       1 NOV         0.2081
     12 O7        -32.3600    3.0380   -1.0900 O.3       1 NOV        -0.3366
     13 C31       -32.1250    3.3550    0.3120 C.3       1 NOV         0.0962
     14 C23       -31.9490    4.8680    0.3910 C.3       1 NOV        -0.0334
     15 C26       -33.3910    2.9360    1.0380 C.3       1 NOV        -0.0334
     16 O8        -30.6570    3.9260   -2.5100 O.3       1 NOV        -0.2929
     17 C3        -31.3500    4.8460   -3.2640 C.ar      1 NOV         0.0873
     18 C4        -30.5550    5.8910   -3.7550 C.ar      1 NOV         0.0162
     19 C2        -29.0590    5.9090   -3.5280 C.3       1 NOV        -0.0352
     20 C5        -31.1870    6.8660   -4.5260 C.ar      1 NOV         0.1262
     21 C9        -32.5560    6.8290   -4.8090 C.ar      1 NOV         0.0222
     22 C10       -33.3170    5.7840   -4.2800 C.ar      1 NOV        -0.0762
     23 C11       -32.7220    4.7900   -3.5210 C.ar      1 NOV        -0.0504
     24 O10       -30.3640    7.8400   -5.0600 O.3       1 NOV        -0.2217
     25 C6        -30.8200    8.8070   -5.9320 C.2       1 NOV         0.2825
     26 O11       -29.9930    9.5960   -6.3250 O.2       1 NOV        -0.3794
     27 C7        -32.3010    8.7770   -6.2980 C.2       1 NOV         0.1687
     28 C8        -33.1000    7.8330   -5.7100 C.2       1 NOV         0.1117
     29 O9        -34.4150    7.7870   -5.8840 O.3       1 NOV        -0.3460
     30 N2        -32.6060    9.7060   -7.3200 N.am      1 NOV        -0.2404
     31 C13       -32.8100    9.3560   -8.6440 C.2       1 NOV         0.2176
     32 O2        -32.8500    8.1840   -9.0210 O.2       1 NOV        -0.3812
     33 C14       -33.0030   10.4830   -9.6120 C.ar      1 NOV         0.0368
     34 C15       -33.4920   11.7250   -9.2080 C.ar      1 NOV        -0.0477
     35 C16       -33.7280   12.7510  -10.1280 C.ar      1 NOV        -0.0043
     36 C17       -33.4690   12.5020  -11.4820 C.ar      1 NOV         0.0958
     37 O3        -33.7300   13.4550  -12.4160 O.3       1 NOV        -0.3332
     38 C18       -32.9650   11.2680  -11.8880 C.ar      1 NOV        -0.0335
     39 C19       -32.7320   10.2710  -10.9610 C.ar      1 NOV        -0.0572
     40 C20       -34.2170   14.1180   -9.6780 C.3       1 NOV        -0.0144
     41 C21       -34.9910   14.1960   -8.3900 C.2       1 NOV        -0.0995
     42 C22       -36.1620   14.7820   -8.1720 C.2       1 NOV        -0.0848
     43 C24       -36.8020   14.7780   -6.8180 C.3       1 NOV        -0.0400
     44 C25       -36.9630   15.4780   -9.2360 C.3       1 NOV        -0.0400
     45 H         -29.9993    2.7601    4.1240 H         1 NOV         0.0524
     46 H         -29.5493    1.4739    2.9536 H         1 NOV         0.0524
     47 H         -31.2697    1.7063    3.4154 H         1 NOV         0.0524
     48 H         -25.4451    1.6680    0.3906 H         1 NOV         0.1831
     49 H         -26.6463    0.8276    1.3129 H         1 NOV         0.1831
     50 H         -31.2080    1.5083    1.1180 H         1 NOV         0.0655
     51 H         -29.4401    3.5526   -0.2768 H         1 NOV         0.0703
     52 H         -29.3281    1.9276   -2.0981 H         1 NOV         0.0679
     53 H         -29.8939    0.0375   -0.9488 H         1 NOV         0.2101
     54 H         -31.7373    2.2230   -2.8611 H         1 NOV         0.0990
     55 H         -32.8310    5.3628   -0.0418 H         1 NOV         0.0258
     56 H         -31.0506    5.1625   -0.1713 H         1 NOV         0.0258
     57 H         -31.8385    5.1699    1.4430 H         1 NOV         0.0258
     58 H         -34.2488    3.4895    0.6283 H         1 NOV         0.0258
     59 H         -33.2894    3.1586    2.1104 H         1 NOV         0.0258
     60 H         -33.5520    1.8565    0.9011 H         1 NOV         0.0258
     61 H         -28.7738    5.0552   -2.8958 H         1 NOV         0.0344
     62 H         -28.7753    6.8466   -3.0277 H         1 NOV         0.0344
     63 H         -28.5404    5.8381   -4.4955 H         1 NOV         0.0344
     64 H         -34.3845    5.7506   -4.4655 H         1 NOV         0.0484
     65 H         -33.3173    3.9735   -3.1287 H         1 NOV         0.0450
     66 H         -34.7735    7.0591   -5.3897 H         1 NOV         0.2418
     67 H         -32.6785   10.6720   -7.0718 H         1 NOV         0.2201
     68 H         -33.6936   11.8988   -8.1572 H         1 NOV         0.0575
     69 H         -33.4985   13.1254  -13.2763 H         1 NOV         0.2477
     70 H         -32.7548   11.0897  -12.9364 H         1 NOV         0.0535
     71 H         -32.3351    9.3162  -11.2863 H         1 NOV         0.0583
     72 H         -34.8644   14.5137  -10.4745 H         1 NOV         0.0479
     73 H         -33.3330   14.7635   -9.5693 H         1 NOV         0.0479
     74 H         -34.5333   13.7111   -7.5290 H         1 NOV         0.0258
     75 H         -37.7602   15.3164   -6.8638 H         1 NOV         0.0378
     76 H         -36.1366   15.2745   -6.0964 H         1 NOV         0.0378
     77 H         -36.9794   13.7402   -6.4993 H         1 NOV         0.0378
     78 H         -36.4205   15.4326  -10.1919 H         1 NOV         0.0378
     79 H         -37.1162   16.5293   -8.9509 H         1 NOV         0.0378
     80 H         -37.9386   14.9815   -9.3442 H         1 NOV         0.0378
@<TRIPOS>BOND
     1    2    1 1  
     2    7    2 1  
     3    4    3 am 
     4    4    5 2  
     5    6    4 1  
     6    8    6 1  
     7    7    8 1  
     8    7   13 1  
     9    8    9 1  
    10    9   10 1  
    11    9   11 1  
    12   11   12 1  
    13   11   16 1  
    14   12   13 1  
    15   13   14 1  
    16   13   15 1  
    17   16   17 1  
    18   17   18 ar 
    19   17   23 ar 
    20   18   19 1  
    21   18   20 ar 
    22   20   21 ar 
    23   20   24 1  
    24   21   22 ar 
    25   21   28 1  
    26   22   23 ar 
    27   24   25 1  
    28   25   26 2  
    29   25   27 1  
    30   27   28 2  
    31   27   30 1  
    32   28   29 1  
    33   30   31 am 
    34   31   32 2  
    35   31   33 1  
    36   33   34 ar 
    37   33   39 ar 
    38   34   35 ar 
    39   35   36 ar 
    40   35   40 1  
    41   36   37 1  
    42   36   38 ar 
    43   38   39 ar 
    44   40   41 1  
    45   41   42 2  
    46   42   43 1  
    47   42   44 1  
    48    1   45 1  
    49    1   46 1  
    50    1   47 1  
    51    3   48 1  
    52    3   49 1  
    53    7   50 1  
    54    8   51 1  
    55    9   52 1  
    56   10   53 1  
    57   11   54 1  
    58   14   55 1  
    59   14   56 1  
    60   14   57 1  
    61   15   58 1  
    62   15   59 1  
    63   15   60 1  
    64   19   61 1  
    65   19   62 1  
    66   19   63 1  
    67   22   64 1  
    68   23   65 1  
    69   29   66 1  
    70   30   67 1  
    71   34   68 1  
    72   37   69 1  
    73   38   70 1  
    74   39   71 1  
    75   40   72 1  
    76   40   73 1  
    77   41   74 1  
    78   43   75 1  
    79   43   76 1  
    80   43   77 1  
    81   44   78 1  
    82   44   79 1  
    83   44   80 1  
@<TRIPOS>SUBSTRUCTURE
     1 NOV         1

