### 
### Created by X-TOOL on Mon Sep 10 21:13:18 2018
### 

@<TRIPOS>MOLECULE
4uro_ligand
   80    83     1     0     0
SMALL
GAST_HUCK


@<TRIPOS>ATOM
      1 C1         -0.7950   -7.0430  -12.1600 C.3       1 NOV         0.0371
      2 O1         -1.1130   -5.6570  -12.1620 O.3       1 NOV        -0.3739
      3 N1         -0.6770   -5.7060   -7.4090 N.am      1 NOV        -0.2763
      4 C12        -0.8760   -4.7700   -8.3230 C.2       1 NOV         0.3173
      5 O4         -1.4090   -3.7020   -8.1220 O.2       1 NOV        -0.3777
      6 O5         -0.4000   -5.1630   -9.5240 O.3       1 NOV        -0.2552
      7 C27        -0.0020   -4.8060  -11.9010 C.3       1 NOV         0.1196
      8 C28        -0.1170   -4.1500  -10.5220 C.3       1 NOV         0.1476
      9 C29         1.1330   -3.3100  -10.2560 C.3       1 NOV         0.1428
     10 O6          2.3320   -4.0730  -10.2660 O.3       1 NOV        -0.3833
     11 C30         1.2360   -2.2190  -11.3160 C.3       1 NOV         0.2081
     12 O7          1.1710   -2.7180  -12.6630 O.3       1 NOV        -0.3366
     13 C31         0.2110   -3.7340  -13.0640 C.3       1 NOV         0.0962
     14 C23        -1.0710   -3.0370  -13.4970 C.3       1 NOV        -0.0334
     15 C26         0.8760   -4.3960  -14.2580 C.3       1 NOV        -0.0334
     16 O8          0.1510   -1.3580  -11.0680 O.3       1 NOV        -0.2929
     17 C3          0.0650   -0.1490  -11.7070 C.ar      1 NOV         0.0873
     18 C4         -1.0560    0.5930  -11.3310 C.ar      1 NOV         0.0162
     19 C2         -2.0090    0.0810  -10.2770 C.3       1 NOV        -0.0352
     20 C5         -1.2140    1.8410  -11.9250 C.ar      1 NOV         0.1262
     21 C9         -0.2800    2.3740  -12.8250 C.ar      1 NOV         0.0222
     22 C10         0.8160    1.5890  -13.1860 C.ar      1 NOV        -0.0762
     23 C11         0.9910    0.3310  -12.6400 C.ar      1 NOV        -0.0504
     24 O10        -2.3490    2.5330  -11.5530 O.3       1 NOV        -0.2217
     25 C6         -2.6330    3.7990  -12.0010 C.2       1 NOV         0.2825
     26 O11        -3.6850    4.2350  -11.6170 O.2       1 NOV        -0.3794
     27 C7         -1.6040    4.4410  -12.9560 C.2       1 NOV         0.1687
     28 C8         -0.4980    3.7300  -13.3270 C.2       1 NOV         0.1117
     29 O9          0.4280    4.2120  -14.1790 O.3       1 NOV        -0.3460
     30 N2         -2.0020    5.7150  -13.4380 N.am      1 NOV        -0.2404
     31 C13        -3.2510    6.0520  -13.9140 C.2       1 NOV         0.2176
     32 O2         -3.9100    6.9730  -13.4350 O.2       1 NOV        -0.3812
     33 C14        -3.7890    5.1980  -15.0190 C.ar      1 NOV         0.0368
     34 C15        -2.9340    4.4000  -15.7770 C.ar      1 NOV        -0.0477
     35 C16        -3.4220    3.4780  -16.7030 C.ar      1 NOV        -0.0043
     36 C17        -4.8100    3.3690  -16.8610 C.ar      1 NOV         0.0958
     37 O3         -5.3290    2.3700  -17.6210 O.3       1 NOV        -0.3332
     38 C18        -5.6700    4.2060  -16.1470 C.ar      1 NOV        -0.0335
     39 C19        -5.1620    5.1090  -15.2310 C.ar      1 NOV        -0.0572
     40 C20        -2.4110    2.6580  -17.4830 C.3       1 NOV        -0.0144
     41 C21        -2.6740    1.1910  -17.2930 C.2       1 NOV        -0.0995
     42 C22        -1.8850    0.2820  -16.7440 C.2       1 NOV        -0.0848
     43 C24        -0.4860    0.5530  -16.2760 C.3       1 NOV        -0.0400
     44 C25        -2.3670   -1.1120  -16.4900 C.3       1 NOV        -0.0400
     45 H          -1.7031   -7.6278  -12.3684 H         1 NOV         0.0524
     46 H          -0.3946   -7.3259  -11.1753 H         1 NOV         0.0524
     47 H          -0.0414   -7.2474  -12.9348 H         1 NOV         0.0524
     48 H          -0.9779   -5.5571   -6.4671 H         1 NOV         0.1831
     49 H          -0.2257   -6.5623   -7.6602 H         1 NOV         0.1831
     50 H           0.8957   -5.4414  -11.8823 H         1 NOV         0.0655
     51 H          -0.9746   -3.4613  -10.5375 H         1 NOV         0.0703
     52 H           1.0294   -2.8420   -9.2660 H         1 NOV         0.0679
     53 H           2.2861   -4.7418   -9.5928 H         1 NOV         0.2101
     54 H           2.1850   -1.6770  -11.1909 H         1 NOV         0.0990
     55 H          -0.8446   -2.3169  -14.2972 H         1 NOV         0.0258
     56 H          -1.5075   -2.5057  -12.6384 H         1 NOV         0.0258
     57 H          -1.7874   -3.7846  -13.8684 H         1 NOV         0.0258
     58 H           1.0202   -3.6528  -15.0560 H         1 NOV         0.0258
     59 H           0.2374   -5.2118  -14.6278 H         1 NOV         0.0258
     60 H           1.8521   -4.8029  -13.9552 H         1 NOV         0.0258
     61 H          -1.6920   -0.9208   -9.9516 H         1 NOV         0.0344
     62 H          -3.0244    0.0260  -10.6964 H         1 NOV         0.0344
     63 H          -2.0046    0.7648   -9.4154 H         1 NOV         0.0344
     64 H           1.5366    1.9691  -13.9010 H         1 NOV         0.0484
     65 H           1.8385   -0.2785  -12.9322 H         1 NOV         0.0450
     66 H           1.1109    3.5634  -14.3027 H         1 NOV         0.2418
     67 H          -1.3104    6.4372  -13.4317 H         1 NOV         0.2201
     68 H          -1.8627    4.4983  -15.6436 H         1 NOV         0.0575
     69 H          -6.2766    2.4368  -17.6256 H         1 NOV         0.2477
     70 H          -6.7399    4.1477  -16.3114 H         1 NOV         0.0535
     71 H          -5.8362    5.7507  -14.6754 H         1 NOV         0.0583
     72 H          -1.3980    2.8946  -17.1254 H         1 NOV         0.0479
     73 H          -2.4897    2.9056  -18.5519 H         1 NOV         0.0479
     74 H          -3.6364    0.8301  -17.6529 H         1 NOV         0.0258
     75 H          -0.0531   -0.3692  -15.8611 H         1 NOV         0.0378
     76 H          -0.5035    1.3316  -15.4992 H         1 NOV         0.0378
     77 H           0.1247    0.8953  -17.1245 H         1 NOV         0.0378
     78 H          -3.3960   -1.2180  -16.8640 H         1 NOV         0.0378
     79 H          -2.3469   -1.3157  -15.4092 H         1 NOV         0.0378
     80 H          -1.7124   -1.8268  -17.0101 H         1 NOV         0.0378
@<TRIPOS>BOND
     1    2    1 1  
     2    7    2 1  
     3    4    3 am 
     4    4    5 2  
     5    6    4 1  
     6    8    6 1  
     7    7    8 1  
     8    7   13 1  
     9    8    9 1  
    10    9   10 1  
    11    9   11 1  
    12   11   12 1  
    13   11   16 1  
    14   12   13 1  
    15   13   14 1  
    16   13   15 1  
    17   16   17 1  
    18   17   18 ar 
    19   17   23 ar 
    20   18   19 1  
    21   18   20 ar 
    22   20   21 ar 
    23   20   24 1  
    24   21   22 ar 
    25   21   28 1  
    26   22   23 ar 
    27   24   25 1  
    28   25   26 2  
    29   25   27 1  
    30   27   28 2  
    31   27   30 1  
    32   28   29 1  
    33   30   31 am 
    34   31   32 2  
    35   31   33 1  
    36   33   34 ar 
    37   33   39 ar 
    38   34   35 ar 
    39   35   36 ar 
    40   35   40 1  
    41   36   37 1  
    42   36   38 ar 
    43   38   39 ar 
    44   40   41 1  
    45   41   42 2  
    46   42   43 1  
    47   42   44 1  
    48    1   45 1  
    49    1   46 1  
    50    1   47 1  
    51    3   48 1  
    52    3   49 1  
    53    7   50 1  
    54    8   51 1  
    55    9   52 1  
    56   10   53 1  
    57   11   54 1  
    58   14   55 1  
    59   14   56 1  
    60   14   57 1  
    61   15   58 1  
    62   15   59 1  
    63   15   60 1  
    64   19   61 1  
    65   19   62 1  
    66   19   63 1  
    67   22   64 1  
    68   23   65 1  
    69   29   66 1  
    70   30   67 1  
    71   34   68 1  
    72   37   69 1  
    73   38   70 1  
    74   39   71 1  
    75   40   72 1  
    76   40   73 1  
    77   41   74 1  
    78   43   75 1  
    79   43   76 1  
    80   43   77 1  
    81   44   78 1  
    82   44   79 1  
    83   44   80 1  
@<TRIPOS>SUBSTRUCTURE
     1 NOV         1

