### 
### Created by X-TOOL on Mon Sep 10 21:13:24 2018
### 

@<TRIPOS>MOLECULE
4uru_ligand
   27    28     1     0     0
SMALL
GAST_HUCK


@<TRIPOS>ATOM
      1 O2         43.6850   39.6380   73.1780 O.2       1 6W2        -0.1443
      2 S          44.2990   39.3930   74.4430 S.o2      1 6W2         0.0933
      3 O1         43.5370   38.7840   75.4890 O.2       1 6W2        -0.1443
      4 N          44.8170   40.8880   74.9780 N.am      1 6W2        -0.1453
      5 C7         45.0220   41.2050   76.2670 C.2       1 6W2         0.2005
      6 S1         44.6900   40.1640   77.6120 S.3       1 6W2         0.0063
      7 C9         45.1800   41.3960   78.6630 C.2       1 6W2        -0.0108
      8 C8         45.5440   42.4820   77.9690 C.2       1 6W2        -0.0509
      9 N1         45.4740   42.3850   76.5970 N.2       1 6W2        -0.3304
     10 C4         45.7530   38.4390   74.1800 C.ar      1 6W2         0.1047
     11 C3         46.9900   39.0640   74.1960 C.ar      1 6W2        -0.0434
     12 C2         48.1380   38.3170   74.0060 C.ar      1 6W2        -0.0313
     13 C5         45.6520   37.0760   73.9580 C.ar      1 6W2        -0.0434
     14 C6         46.8040   36.3300   73.7720 C.ar      1 6W2        -0.0313
     15 C1         48.0480   36.9530   73.8040 C.ar      1 6W2         0.0908
     16 O          49.2900   36.3930   73.6540 O.3       1 6W2        -0.3212
     17 C          49.3760   34.9850   73.4320 C.3       1 6W2         0.0594
     18 H1         44.9861   41.5954   74.2917 H         1 6W2         0.2341
     19 H2         45.1970   41.3171   79.7490 H         1 6W2         0.0553
     20 H3         45.8776   43.3933   78.4632 H         1 6W2         0.0489
     21 H4         47.0572   40.1339   74.3568 H         1 6W2         0.0608
     22 H5         49.1079   38.8011   74.0155 H         1 6W2         0.0542
     23 H6         44.6799   36.5971   73.9300 H         1 6W2         0.0608
     24 H7         46.7367   35.2616   73.6016 H         1 6W2         0.0542
     25 H8         50.4320   34.6933   73.3330 H         1 6W2         0.0577
     26 H9         48.8359   34.7256   72.5095 H         1 6W2         0.0577
     27 H10        48.9265   34.4515   74.2825 H         1 6W2         0.0577
@<TRIPOS>BOND
     1    1    2 2  
     2    2    3 2  
     3    2    4 am 
     4    2   10 1  
     5    4    5 1  
     6    5    6 1  
     7    5    9 2  
     8    6    7 1  
     9    7    8 2  
    10    8    9 1  
    11   10   11 ar 
    12   10   13 ar 
    13   11   12 ar 
    14   12   15 ar 
    15   13   14 ar 
    16   14   15 ar 
    17   15   16 1  
    18   16   17 1  
    19    4   18 1  
    20    7   19 1  
    21    8   20 1  
    22   11   21 1  
    23   12   22 1  
    24   13   23 1  
    25   14   24 1  
    26   17   25 1  
    27   17   26 1  
    28   17   27 1  
@<TRIPOS>SUBSTRUCTURE
     1 6W2         1

