### 
### Created by X-TOOL on Mon Sep 10 21:13:24 2018
### 

@<TRIPOS>MOLECULE
4urv_ligand
   29    30     1     0     0
SMALL
GAST_HUCK


@<TRIPOS>ATOM
      1 BR         44.6850   42.2550   73.7790 Br        1 UMK        -0.0236
      2 C8         45.2670   41.4970   75.4250 C.ar      1 UMK         0.0417
      3 C7         45.8670   42.3090   76.3740 C.ar      1 UMK        -0.0235
      4 C6         46.2650   41.7550   77.5800 C.ar      1 UMK        -0.0353
      5 C9         45.0560   40.1500   75.6700 C.ar      1 UMK        -0.0235
      6 C10        45.4570   39.6170   76.8860 C.ar      1 UMK        -0.0353
      7 C5         46.0550   40.4080   77.8650 C.ar      1 UMK        -0.0194
      8 C          46.5420   39.7990   79.1790 C.3       1 UMK         0.0674
      9 O          45.7350   38.6690   79.5310 O.3       1 UMK        -0.4219
     10 C4         46.4550   40.8210   80.3210 C.3       1 UMK        -0.0063
     11 C3         47.0670   40.3010   81.6050 C.3       1 UMK        -0.0384
     12 N          48.4740   39.9270   81.3870 N.4       1 UMK         0.2260
     13 C2         48.5760   38.8720   80.3640 C.3       1 UMK        -0.0384
     14 C1         47.9880   39.3070   79.0380 C.3       1 UMK        -0.0063
     15 H1         46.0229   43.3632   76.1756 H         1 UMK         0.0719
     16 H2         46.7504   42.3836   78.3178 H         1 UMK         0.0854
     17 H3         44.5846   39.5221   74.9226 H         1 UMK         0.0719
     18 H4         45.3018   38.5617   77.0791 H         1 UMK         0.0854
     19 H5         46.0479   38.3002   80.3487 H         1 UMK         0.1964
     20 H6         45.3965   41.0577   80.5041 H         1 UMK         0.0250
     21 H7         46.9883   41.7346   80.0196 H         1 UMK         0.0250
     22 H8         46.5052   39.4177   81.9428 H         1 UMK         0.0807
     23 H9         47.0153   41.0850   82.3749 H         1 UMK         0.0807
     24 H10        48.8650   39.5886   82.2523 H         1 UMK         0.2013
     25 H11        48.9887   40.7374   81.0799 H         1 UMK         0.2013
     26 H12        48.0350   37.9817   80.7171 H         1 UMK         0.0807
     27 H13        49.6370   38.6219   80.2167 H         1 UMK         0.0807
     28 H14        48.6017   40.1232   78.6291 H         1 UMK         0.0250
     29 H15        48.0056   38.4526   78.3454 H         1 UMK         0.0250
@<TRIPOS>BOND
     1    1    2 1  
     2    2    3 ar 
     3    2    5 ar 
     4    3    4 ar 
     5    4    7 ar 
     6    5    6 ar 
     7    6    7 ar 
     8    7    8 1  
     9    8    9 1  
    10    8   10 1  
    11    8   14 1  
    12   10   11 1  
    13   11   12 1  
    14   12   13 1  
    15   13   14 1  
    16    3   15 1  
    17    4   16 1  
    18    5   17 1  
    19    6   18 1  
    20    9   19 1  
    21   10   20 1  
    22   10   21 1  
    23   11   22 1  
    24   11   23 1  
    25   12   24 1  
    26   12   25 1  
    27   13   26 1  
    28   13   27 1  
    29   14   28 1  
    30   14   29 1  
@<TRIPOS>SUBSTRUCTURE
     1 UMK         1

