### 
### Created by X-TOOL on Mon Sep 10 21:13:23 2018
### 

@<TRIPOS>MOLECULE
4urw_ligand
   44    46     1     0     0
SMALL
GAST_HUCK


@<TRIPOS>ATOM
      1 C11        45.6810   42.3410   77.6380 C.3       1 DXO        -0.0282
      2 C10        45.3120   41.5370   76.4160 C.ar      1 DXO        -0.0327
      3 C9         45.5720   42.0500   75.1410 C.ar      1 DXO        -0.0601
      4 C8         45.2320   41.3450   74.0000 C.ar      1 DXO        -0.0697
      5 C7         44.6120   40.1120   74.1130 C.ar      1 DXO        -0.0601
      6 C5         44.2980   39.5720   75.3650 C.ar      1 DXO        -0.0327
      7 C6         43.6100   38.2350   75.4490 C.3       1 DXO        -0.0282
      8 C4         44.6590   40.2890   76.5270 C.ar      1 DXO         0.0266
      9 C3         44.4250   39.7170   77.8810 C.ar      1 DXO         0.1071
     10 N2         43.1850   39.7210   78.3880 N.ar      1 DXO        -0.2476
     11 C1         43.1060   39.1930   79.6190 C.ar      1 DXO         0.1555
     12 S          41.5410   39.0640   80.4000 S.3       1 DXO        -0.0557
     13 C          40.4640   39.9160   79.2570 C.3       1 DXO         0.0034
     14 N1         45.5210   39.2460   78.4950 N.ar      1 DXO        -0.2384
     15 C2         45.3030   38.7290   79.7220 C.ar      1 DXO         0.1928
     16 N          44.1080   38.6760   80.3420 N.ar      1 DXO        -0.2218
     17 N3         46.3880   38.2950   80.4150 N.pl3     1 DXO        -0.2616
     18 C15        47.6950   38.9320   80.2170 C.3       1 DXO         0.0759
     19 C14        48.8140   37.9640   80.5060 C.3       1 DXO        -0.0120
     20 N4         48.6940   37.4610   81.8860 N.4       1 DXO         0.2299
     21 C13        47.3960   36.8030   82.0950 C.3       1 DXO        -0.0120
     22 C12        46.2560   37.7430   81.7680 C.3       1 DXO         0.0759
     23 H1         46.1774   43.2724   77.3279 H         1 DXO         0.0408
     24 H2         46.3638   41.7546   78.2703 H         1 DXO         0.0408
     25 H3         44.7709   42.5824   78.2067 H         1 DXO         0.0408
     26 H4         46.0491   43.0186   75.0449 H         1 DXO         0.0515
     27 H5         45.4502   41.7564   73.0211 H         1 DXO         0.0627
     28 H6         44.3657   39.5555   73.2160 H         1 DXO         0.0515
     29 H7         43.4215   37.8553   74.4340 H         1 DXO         0.0408
     30 H8         42.6543   38.3472   75.9819 H         1 DXO         0.0408
     31 H9         44.2517   37.5259   75.9924 H         1 DXO         0.0408
     32 H10        39.4344   39.9022   79.6438 H         1 DXO         0.0376
     33 H11        40.4951   39.4128   78.2794 H         1 DXO         0.0376
     34 H12        40.7994   40.9575   79.1442 H         1 DXO         0.0376
     35 H13        47.7814   39.7949   80.8937 H         1 DXO         0.0585
     36 H14        47.7748   39.2740   79.1746 H         1 DXO         0.0585
     37 H15        49.7801   38.4762   80.3866 H         1 DXO         0.0835
     38 H16        48.7573   37.1197   79.8032 H         1 DXO         0.0835
     39 H17        48.7789   38.2340   82.5273 H         1 DXO         0.2015
     40 H18        49.4321   36.7971   82.0604 H         1 DXO         0.2015
     41 H19        47.3153   36.4911   83.1468 H         1 DXO         0.0835
     42 H20        47.3315   35.9185   81.4443 H         1 DXO         0.0835
     43 H21        45.3066   37.1921   81.8386 H         1 DXO         0.0585
     44 H22        46.2549   38.5700   82.4933 H         1 DXO         0.0585
@<TRIPOS>BOND
     1    1    2 1  
     2    2    3 ar 
     3    2    8 ar 
     4    3    4 ar 
     5    4    5 ar 
     6    5    6 ar 
     7    6    7 1  
     8    6    8 ar 
     9    8    9 1  
    10    9   10 ar 
    11    9   14 ar 
    12   10   11 ar 
    13   11   12 1  
    14   11   16 ar 
    15   12   13 1  
    16   14   15 ar 
    17   15   16 ar 
    18   15   17 1  
    19   17   18 1  
    20   17   22 1  
    21   18   19 1  
    22   19   20 1  
    23   20   21 1  
    24   21   22 1  
    25    1   23 1  
    26    1   24 1  
    27    1   25 1  
    28    3   26 1  
    29    4   27 1  
    30    5   28 1  
    31    7   29 1  
    32    7   30 1  
    33    7   31 1  
    34   13   32 1  
    35   13   33 1  
    36   13   34 1  
    37   18   35 1  
    38   18   36 1  
    39   19   37 1  
    40   19   38 1  
    41   20   39 1  
    42   20   40 1  
    43   21   41 1  
    44   21   42 1  
    45   22   43 1  
    46   22   44 1  
@<TRIPOS>SUBSTRUCTURE
     1 DXO         1

