### 
### Created by X-TOOL on Mon Sep 10 21:13:24 2018
### 

@<TRIPOS>MOLECULE
4urx_ligand
   26    27     1     0     0
SMALL
GAST_HUCK


@<TRIPOS>ATOM
      1 C          44.2210   43.6590   80.3970 C.ar      1 HXY         0.0056
      2 N          46.9220   39.6980   78.8740 N.4       1 HXY         0.2659
      3 BR         42.9980   44.8090   81.2920 Br        1 HXY        -0.0561
      4 C1         45.3090   43.1700   81.0790 C.ar      1 HXY        -0.0588
      5 C2         46.1700   42.2990   80.4370 C.ar      1 HXY        -0.0524
      6 C3         46.0130   42.0000   79.0930 C.ar      1 HXY         0.0043
      7 C4         46.9800   41.0820   78.3900 C.3       1 HXY         0.0057
      8 C5         45.6940   39.0120   78.4600 C.3       1 HXY        -0.0120
      9 C6         46.0200   37.5480   78.6380 C.2       1 HXY        -0.0493
     10 C7         47.4970   37.4490   78.5000 C.2       1 HXY        -0.0493
     11 C8         47.9980   38.8670   78.3190 C.3       1 HXY        -0.0120
     12 C9         44.9370   42.5490   78.4150 C.ar      1 HXY        -0.0524
     13 C10        44.0200   43.3540   79.0650 C.ar      1 HXY        -0.0588
     14 H1         46.9840   39.7125   79.8800 H         1 HXY         0.2074
     15 H2         45.4900   43.4632   82.1068 H         1 HXY         0.0626
     16 H3         46.9805   41.8429   80.9938 H         1 HXY         0.0566
     17 H4         46.7467   41.0861   77.3150 H         1 HXY         0.0987
     18 H5         47.9998   41.4639   78.5454 H         1 HXY         0.0987
     19 H6         45.4558   39.2352   77.4096 H         1 HXY         0.0940
     20 H7         44.8474   39.3051   79.0983 H         1 HXY         0.0940
     21 H8         45.3201   36.7355   78.8276 H         1 HXY         0.0504
     22 H9         48.0973   36.5407   78.5242 H         1 HXY         0.0504
     23 H10        48.9367   39.0233   78.8706 H         1 HXY         0.0940
     24 H11        48.1565   39.0926   77.2541 H         1 HXY         0.0940
     25 H12        44.8120   42.3442   77.3579 H         1 HXY         0.0566
     26 H13        43.1557   43.7402   78.5369 H         1 HXY         0.0626
@<TRIPOS>BOND
     1    1    3 1  
     2    4    1 ar 
     3    1   13 ar 
     4    7    2 1  
     5    2    8 1  
     6    2   11 1  
     7    5    4 ar 
     8    6    5 ar 
     9    6    7 1  
    10    6   12 ar 
    11    8    9 1  
    12    9   10 2  
    13   10   11 1  
    14   12   13 ar 
    15    2   14 1  
    16    4   15 1  
    17    5   16 1  
    18    7   17 1  
    19    7   18 1  
    20    8   19 1  
    21    8   20 1  
    22    9   21 1  
    23   10   22 1  
    24   11   23 1  
    25   11   24 1  
    26   12   25 1  
    27   13   26 1  
@<TRIPOS>SUBSTRUCTURE
     1 HXY         1

