### 
### Created by X-TOOL on Mon Sep 10 21:13:24 2018
### 

@<TRIPOS>MOLECULE
4ury_ligand
   26    27     1     0     0
SMALL
GAST_HUCK


@<TRIPOS>ATOM
      1 C          56.8590   39.2320   63.4430 C.ar      1 RV1         0.0353
      2 N          58.0660   39.0550   62.8280 N.pl3     1 RV1        -0.3369
      3 O          52.0360   38.6630   65.2120 O.2       1 RV1        -0.1473
      4 S          52.8430   39.8100   65.4980 S.o2      1 RV1         0.0847
      5 C1         55.7170   38.5640   62.9880 C.ar      1 RV1        -0.0429
      6 N1         52.1260   41.1500   64.8860 N.am      1 RV1        -0.1556
      7 O1         53.1030   40.1870   66.8570 O.2       1 RV1        -0.1473
      8 C2         54.4950   38.7360   63.6110 C.ar      1 RV1        -0.0467
      9 O2         52.1220   40.5490   62.6710 O.2       1 RV1        -0.3987
     10 C3         54.3930   39.6120   64.6820 C.ar      1 RV1         0.0997
     11 C4         55.5150   40.2680   65.1710 C.ar      1 RV1        -0.0467
     12 C5         56.7340   40.0900   64.5420 C.ar      1 RV1        -0.0429
     13 C6         51.8590   41.3580   63.5610 C.2       1 RV1         0.2044
     14 C7         51.1470   42.6570   63.2890 C.3       1 RV1         0.0875
     15 C8         50.0370   42.6190   62.2970 C.2       1 RV1        -0.0573
     16 C9         51.2910   43.2900   61.9410 C.2       1 RV1        -0.0573
     17 H1         58.1443   38.4208   62.0202 H         1 RV1         0.1719
     18 H2         58.8977   39.5558   63.1721 H         1 RV1         0.1719
     19 H3         55.7916   37.9012   62.1335 H         1 RV1         0.0515
     20 H4         51.8641   41.8694   65.5293 H         1 RV1         0.2139
     21 H5         53.6239   38.1911   63.2657 H         1 RV1         0.0602
     22 H6         55.4362   40.9139   66.0380 H         1 RV1         0.0602
     23 H7         57.6053   40.6227   64.9054 H         1 RV1         0.0515
     24 H8         51.0873   43.2704   64.2002 H         1 RV1         0.0641
     25 H9         49.0263   42.3139   62.0297 H         1 RV1         0.0613
     26 H10        51.8903   43.8447   61.2206 H         1 RV1         0.0613
@<TRIPOS>BOND
     1    1    2 1  
     2    5    1 ar 
     3    1   12 ar 
     4    4    3 2  
     5    4    6 am 
     6    4    7 2  
     7   10    4 1  
     8    8    5 ar 
     9    6   13 am 
    10    8   10 ar 
    11   13    9 2  
    12   10   11 ar 
    13   11   12 ar 
    14   13   14 1  
    15   14   15 1  
    16   14   16 1  
    17   15   16 2  
    18    2   17 1  
    19    2   18 1  
    20    5   19 1  
    21    6   20 1  
    22    8   21 1  
    23   11   22 1  
    24   12   23 1  
    25   14   24 1  
    26   15   25 1  
    27   16   26 1  
@<TRIPOS>SUBSTRUCTURE
     1 RV1         1

