### 
### Created by X-TOOL on Mon Sep 10 21:13:24 2018
### 

@<TRIPOS>MOLECULE
4urz_ligand
   31    32     1     0     0
SMALL
GAST_HUCK


@<TRIPOS>ATOM
      1 C          57.3840   39.3920   64.0290 C.ar      1 VJP         0.0353
      2 N          58.5990   39.2930   63.4420 N.pl3     1 VJP        -0.3369
      3 O          53.5140   40.0480   67.3840 O.2       1 VJP        -0.1470
      4 S          53.2980   39.6950   66.0150 S.o2      1 VJP         0.0873
      5 C1         57.1890   40.2170   65.1450 C.ar      1 VJP        -0.0429
      6 N1         52.4900   41.0210   65.3430 N.am      1 VJP        -0.1417
      7 O1         52.5680   38.5080   65.6930 O.2       1 VJP        -0.1470
      8 C2         55.9490   40.3040   65.7570 C.ar      1 VJP        -0.0467
      9 O2         52.6500   40.2950   63.2500 O.2       1 VJP        -0.3952
     10 C3         54.8820   39.5770   65.2470 C.ar      1 VJP         0.0999
     11 C4         55.0630   38.7170   64.1710 C.ar      1 VJP        -0.0467
     12 C5         56.2960   38.6540   63.5500 C.ar      1 VJP        -0.0429
     13 C6         51.8350   42.0400   66.2090 C.3       1 VJP         0.0581
     14 C7         51.9860   43.4380   65.6600 C.3       1 VJP        -0.0286
     15 C8         51.3210   43.5640   64.3090 C.3       1 VJP        -0.0341
     16 C9         51.7750   42.4840   63.3470 C.3       1 VJP         0.0391
     17 C10        52.3290   41.2240   63.9660 C.2       1 VJP         0.1985
     18 H1         59.3921   39.8415   63.8040 H         1 VJP         0.1719
     19 H2         58.7309   38.6691   62.6331 H         1 VJP         0.1719
     20 H3         58.0194   40.7947   65.5346 H         1 VJP         0.0515
     21 H4         55.8130   40.9352   66.6277 H         1 VJP         0.0602
     22 H5         54.2432   38.1000   63.8212 H         1 VJP         0.0602
     23 H6         56.4223   38.0227   62.6779 H         1 VJP         0.0515
     24 H7         52.2916   42.0011   67.2090 H         1 VJP         0.0542
     25 H8         50.7635   41.8036   66.2857 H         1 VJP         0.0542
     26 H9         53.0562   43.6705   65.5572 H         1 VJP         0.0287
     27 H10        51.5214   44.1505   66.3574 H         1 VJP         0.0287
     28 H11        51.5693   44.5467   63.8817 H         1 VJP         0.0290
     29 H12        50.2318   43.4862   64.4412 H         1 VJP         0.0290
     30 H13        52.5585   42.9144   62.7060 H         1 VJP         0.0503
     31 H14        50.9101   42.2010   62.7291 H         1 VJP         0.0503
@<TRIPOS>BOND
     1    1    2 1  
     2    5    1 ar 
     3    1   12 ar 
     4    4    3 2  
     5    4    6 am 
     6    4    7 2  
     7   10    4 1  
     8    8    5 ar 
     9    6   13 1  
    10    6   17 am 
    11    8   10 ar 
    12   17    9 2  
    13   10   11 ar 
    14   11   12 ar 
    15   13   14 1  
    16   14   15 1  
    17   15   16 1  
    18   16   17 1  
    19    2   18 1  
    20    2   19 1  
    21    5   20 1  
    22    8   21 1  
    23   11   22 1  
    24   12   23 1  
    25   13   24 1  
    26   13   25 1  
    27   14   26 1  
    28   14   27 1  
    29   15   28 1  
    30   15   29 1  
    31   16   30 1  
    32   16   31 1  
@<TRIPOS>SUBSTRUCTURE
     1 VJP         1

