### 
### Created by X-TOOL on Mon Sep 10 21:13:18 2018
### 

@<TRIPOS>MOLECULE
4us3_ligand
   27    28     1     0     0
SMALL
GAST_HUCK


@<TRIPOS>ATOM
      1 N          40.2910   24.1330  137.0810 N.4       1 TRP         0.2336
      2 CA         39.7790   24.6300  135.8020 C.3       1 TRP         0.0324
      3 C          40.4380   25.9360  135.3780 C.2       1 TRP         0.0858
      4 O          40.0530   26.4950  134.3380 O.co2     1 TRP        -0.5642
      5 CB         38.2390   24.8030  135.8290 C.3       1 TRP         0.0190
      6 CG         37.5260   23.6780  136.5070 C.2       1 TRP        -0.0392
      7 CD1        37.3050   22.4220  136.0140 C.2       1 TRP         0.0167
      8 CD2        36.9730   23.6980  137.8330 C.ar      1 TRP        -0.0213
      9 NE1        36.6340   21.6600  136.9510 N.pl3     1 TRP        -0.2890
     10 CE2        36.4280   22.4160  138.0780 C.ar      1 TRP         0.0603
     11 CE3        36.9010   24.6730  138.8440 C.ar      1 TRP        -0.0747
     12 CZ2        35.7970   22.0860  139.2870 C.ar      1 TRP        -0.0443
     13 CZ3        36.2740   24.3490  140.0430 C.ar      1 TRP        -0.0792
     14 CH2        35.7350   23.0620  140.2540 C.ar      1 TRP        -0.0768
     15 OXT        41.3480   26.4410  136.0510 O.co2     1 TRP        -0.5642
     16 H          39.8257   23.2705  137.3169 H         1 TRP         0.2011
     17 H          40.1169   24.8165  137.8011 H         1 TRP         0.2011
     18 H          41.2828   23.9698  137.0053 H         1 TRP         0.2011
     19 H          40.0182   23.8741  135.0396 H         1 TRP         0.1040
     20 H          37.8776   24.8701  134.7922 H         1 TRP         0.0423
     21 H          38.0024   25.7363  136.3609 H         1 TRP         0.0423
     22 H          37.6123   22.0739  135.0289 H         1 TRP         0.0795
     23 H          36.3363   20.6821  136.8243 H         1 TRP         0.2216
     24 H          37.3261   25.6585  138.6919 H         1 TRP         0.0540
     25 H          35.3752   21.1012  139.4523 H         1 TRP         0.0541
     26 H          36.1985   25.0952  140.8256 H         1 TRP         0.0510
     27 H          35.2601   22.8370  141.2021 H         1 TRP         0.0530
@<TRIPOS>BOND
     1    1    2 1  
     2    2    3 1  
     3    2    5 1  
     4    3    4 ar 
     5    3   15 ar 
     6    5    6 1  
     7    6    7 2  
     8    6    8 1  
     9    7    9 1  
    10    8   10 ar 
    11    8   11 ar 
    12    9   10 1  
    13   10   12 ar 
    14   11   13 ar 
    15   12   14 ar 
    16   13   14 ar 
    17    1   16 1  
    18    1   17 1  
    19    1   18 1  
    20    2   19 1  
    21    5   20 1  
    22    5   21 1  
    23    7   22 1  
    24    9   23 1  
    25   11   24 1  
    26   12   25 1  
    27   13   26 1  
    28   14   27 1  
@<TRIPOS>SUBSTRUCTURE
     1 TRP         1

