### 
### Created by X-TOOL on Mon Sep 10 21:13:19 2018
### 

@<TRIPOS>MOLECULE
4us4_ligand
   27    28     1     0     0
SMALL
GAST_HUCK


@<TRIPOS>ATOM
      1 N         -14.0650  -16.4980   27.9150 N.4       1 TRP         0.2336
      2 CA        -14.5580  -16.1250   26.5950 C.3       1 TRP         0.0324
      3 C         -13.9160  -14.8250   26.1260 C.2       1 TRP         0.0858
      4 O         -14.1290  -14.3840   24.9970 O.co2     1 TRP        -0.5642
      5 CB        -16.0840  -15.9900   26.6070 C.3       1 TRP         0.0190
      6 CG        -16.7780  -17.1620   27.2340 C.2       1 TRP        -0.0392
      7 CD1       -16.9440  -18.4040   26.6910 C.2       1 TRP         0.0167
      8 CD2       -17.3970  -17.2030   28.5250 C.ar      1 TRP        -0.0213
      9 NE1       -17.6280  -19.2160   27.5650 N.pl3     1 TRP        -0.2890
     10 CE2       -17.9170  -18.5010   28.6980 C.ar      1 TRP         0.0603
     11 CE3       -17.5630  -16.2680   29.5510 C.ar      1 TRP        -0.0747
     12 CZ2       -18.5900  -18.8870   29.8550 C.ar      1 TRP        -0.0443
     13 CZ3       -18.2290  -16.6520   30.6980 C.ar      1 TRP        -0.0792
     14 CH2       -18.7340  -17.9500   30.8420 C.ar      1 TRP        -0.0768
     15 OXT       -13.1700  -14.1860   26.8690 O.co2     1 TRP        -0.5642
     16 H         -14.5014  -17.3588   28.2057 H         1 TRP         0.2011
     17 H         -14.2870  -15.7691   28.5749 H         1 TRP         0.2011
     18 H         -13.0656  -16.6241   27.8772 H         1 TRP         0.2011
     19 H         -14.2856  -16.9214   25.8868 H         1 TRP         0.1040
     20 H         -16.4340  -15.8915   25.5689 H         1 TRP         0.0423
     21 H         -16.3500  -15.0840   27.1712 H         1 TRP         0.0423
     22 H         -16.5865  -18.7075   25.7081 H         1 TRP         0.0795
     23 H         -17.8815  -20.1999   27.3959 H         1 TRP         0.2216
     24 H         -17.1762  -15.2606   29.4480 H         1 TRP         0.0540
     25 H         -18.9842  -19.8903   29.9691 H         1 TRP         0.0541
     26 H         -18.3632  -15.9362   31.5009 H         1 TRP         0.0510
     27 H         -19.2508  -18.2188   31.7562 H         1 TRP         0.0530
@<TRIPOS>BOND
     1    1    2 1  
     2    2    3 1  
     3    2    5 1  
     4    3    4 ar 
     5    3   15 ar 
     6    5    6 1  
     7    6    7 2  
     8    6    8 1  
     9    7    9 1  
    10    8   10 ar 
    11    8   11 ar 
    12    9   10 1  
    13   10   12 ar 
    14   11   13 ar 
    15   12   14 ar 
    16   13   14 ar 
    17    1   16 1  
    18    1   17 1  
    19    1   18 1  
    20    2   19 1  
    21    5   20 1  
    22    5   21 1  
    23    7   22 1  
    24    9   23 1  
    25   11   24 1  
    26   12   25 1  
    27   13   26 1  
    28   14   27 1  
@<TRIPOS>SUBSTRUCTURE
     1 TRP         1

