### 
### Created by X-TOOL on Mon Sep 10 21:13:18 2018
### 

@<TRIPOS>MOLECULE
4usi_ligand
   14    13     1     0     0
SMALL
GAST_HUCK


@<TRIPOS>ATOM
      1 C1          4.6670   12.4300    1.9680 C.2       1 AKG         0.1249
      2 O1          5.7690   12.6910    2.4410 O.co2     1 AKG        -0.5464
      3 O2          3.5340   12.6790    2.6530 O.co2     1 AKG        -0.5464
      4 C2          4.6280   11.8570    0.7230 C.2       1 AKG         0.1731
      5 O5          5.7300   11.5820    0.1730 O.2       1 AKG        -0.3576
      6 C3          3.2610   11.5240    0.1210 C.3       1 AKG         0.0423
      7 C4          3.3120   10.5840   -1.1200 C.3       1 AKG         0.0164
      8 C5          3.2880    9.0950   -0.7040 C.2       1 AKG         0.0371
      9 O3          3.4600    8.7140    0.4310 O.co2     1 AKG        -0.5688
     10 O4          2.9790    8.1560   -1.4840 O.co2     1 AKG        -0.5688
     11 H           2.7803   12.4660   -0.1814 H         1 AKG         0.0516
     12 H           2.6539   11.0352    0.8972 H         1 AKG         0.0516
     13 H           4.2365   10.7833   -1.6817 H         1 AKG         0.0456
     14 H           2.4420   10.7902   -1.7607 H         1 AKG         0.0456
@<TRIPOS>BOND
     1    1    2 ar 
     2    1    3 ar 
     3    1    4 1  
     4    4    5 2  
     5    4    6 1  
     6    6    7 1  
     7    7    8 1  
     8    8    9 ar 
     9    8   10 ar 
    10    6   11 1  
    11    6   12 1  
    12    7   13 1  
    13    7   14 1  
@<TRIPOS>SUBSTRUCTURE
     1 AKG         1

