### 
### Created by X-TOOL on Mon Sep 10 21:13:18 2018
### 

@<TRIPOS>MOLECULE
4usj_ligand
   27    26     1     0     0
SMALL
GAST_HUCK


@<TRIPOS>ATOM
      1 N          79.6950   45.2230   34.1220 N.4       1 ARG         0.2327
      2 CA         78.8330   44.2080   33.5190 C.3       1 ARG         0.0284
      3 C          77.7770   43.8400   34.5640 C.2       1 ARG         0.0844
      4 O          76.6800   43.4040   34.2530 O.co2     1 ARG        -0.5643
      5 CB         79.7100   43.0280   33.0780 C.3       1 ARG         0.0055
      6 CG         79.0700   41.7300   32.6280 C.3       1 ARG        -0.0131
      7 CD         79.8680   40.5330   33.1730 C.3       1 ARG         0.0628
      8 NE         80.2280   39.4670   32.2220 N.pl3     1 ARG        -0.2723
      9 CZ         80.9910   38.3960   32.5340 C.cat     1 ARG         0.2882
     10 NH1        81.5040   38.2270   33.7490 N.pl3     1 ARG        -0.2849
     11 NH2        81.2580   37.4520   31.6280 N.pl3     1 ARG        -0.2849
     12 OXT        77.9640   44.0140   35.7700 O.co2     1 ARG        -0.5643
     13 H          80.4075   45.4936   33.4624 H         1 ARG         0.2010
     14 H          80.1293   44.8462   34.9499 H         1 ARG         0.2010
     15 H          79.1426   46.0291   34.3694 H         1 ARG         0.2010
     16 H          78.3284   44.6207   32.6330 H         1 ARG         0.1024
     17 H          80.3611   42.7815   33.9297 H         1 ARG         0.0340
     18 H          80.3241   43.3860   32.2385 H         1 ARG         0.0340
     19 H          79.0599   41.6908   31.5288 H         1 ARG         0.0302
     20 H          78.0382   41.6823   33.0062 H         1 ARG         0.0302
     21 H          79.2680   40.0731   33.9720 H         1 ARG         0.0689
     22 H          80.8037   40.9262   33.5971 H         1 ARG         0.0689
     23 H          79.8755   39.5428   31.2572 H         1 ARG         0.2642
     24 H          82.0815   37.3990   33.9536 H         1 ARG         0.2615
     25 H          81.3239   38.9240   34.4856 H         1 ARG         0.2615
     26 H          80.8843   37.5355   30.6718 H         1 ARG         0.2615
     27 H          81.8376   36.6404   31.8854 H         1 ARG         0.2615
@<TRIPOS>BOND
     1    1    2 1  
     2    2    3 1  
     3    2    5 1  
     4    3    4 ar 
     5    3   12 ar 
     6    5    6 1  
     7    6    7 1  
     8    7    8 1  
     9    8    9 ar 
    10    9   10 ar 
    11    9   11 ar 
    12    1   13 1  
    13    1   14 1  
    14    1   15 1  
    15    2   16 1  
    16    5   17 1  
    17    5   18 1  
    18    6   19 1  
    19    6   20 1  
    20    7   21 1  
    21    7   22 1  
    22    8   23 1  
    23   10   24 1  
    24   10   25 1  
    25   11   26 1  
    26   11   27 1  
@<TRIPOS>SUBSTRUCTURE
     1 ARG         1

