### 
### Created by X-TOOL on Mon Sep 10 21:13:22 2018
### 

@<TRIPOS>MOLECULE
4uuh_ligand
   50    53     1     0     0
SMALL
GAST_HUCK


@<TRIPOS>ATOM
      1 O           5.0190   -2.5380   -2.6420 O.2       1 T40        -0.3842
      2 C6          4.7100   -3.2190   -3.6130 C.2       1 T40         0.1772
      3 C5          5.6940   -3.8160   -4.5360 C.ar      1 T40         0.0377
      4 C           7.0590   -3.6980   -4.2690 C.ar      1 T40        -0.0553
      5 N           3.3880   -3.4850   -3.8940 N.2       1 T40        -0.2626
      6 C7          2.9280   -4.2690   -4.9540 C.2       1 T40         0.0602
      7 C8          3.8330   -4.8110   -5.8180 C.3       1 T40         0.0473
      8 C4          5.2620   -4.5870   -5.6380 C.ar      1 T40         0.0002
      9 C3          6.2100   -5.2110   -6.4790 C.ar      1 T40        -0.0338
     10 C20         5.8190   -5.8900   -7.7660 C.3       1 T40        -0.0319
     11 C2          7.5590   -5.1240   -6.1360 C.ar      1 T40        -0.0615
     12 C1          7.9810   -4.3740   -5.0510 C.ar      1 T40        -0.0690
     13 C9          1.4670   -4.4270   -5.0850 C.ar      1 T40         0.0207
     14 C14         0.6140   -4.1960   -3.9980 C.ar      1 T40        -0.0447
     15 C13        -0.7630   -4.2990   -4.1440 C.ar      1 T40        -0.0442
     16 C12        -1.3320   -4.6080   -5.3780 C.ar      1 T40         0.0111
     17 C11        -0.4810   -4.8640   -6.4490 C.ar      1 T40        -0.0442
     18 C10         0.8950   -4.7770   -6.3110 C.ar      1 T40        -0.0447
     19 C15        -2.8170   -4.4230   -5.6130 C.3       1 T40         0.0068
     20 N1         -3.6640   -5.6300   -5.5630 N.4       1 T40         0.2561
     21 C19        -4.6900   -5.5890   -6.6160 C.3       1 T40         0.0110
     22 C18        -5.6010   -6.7950   -6.5880 C.3       1 T40         0.0077
     23 N2         -4.8080   -8.0320   -6.6800 N.4       1 T40         0.2345
     24 C17        -3.7930   -8.0950   -5.6250 C.3       1 T40         0.0077
     25 C16        -2.8950   -6.8760   -5.6830 C.3       1 T40         0.0110
     26 H1          7.3980   -3.0763   -3.4483 H         1 T40         0.0592
     27 H2          3.5791   -4.4302   -6.8183 H         1 T40         0.0709
     28 H3          3.6801   -5.9000   -5.7905 H         1 T40         0.0709
     29 H4          6.7165   -6.3021   -8.2505 H         1 T40         0.0378
     30 H5          5.3434   -5.1591   -8.4364 H         1 T40         0.0378
     31 H6          5.1118   -6.7046   -7.5507 H         1 T40         0.0378
     32 H7          8.2930   -5.6548   -6.7315 H         1 T40         0.0575
     33 H8          9.0369   -4.3157   -4.8128 H         1 T40         0.0561
     34 H9          1.0332   -3.9342   -3.0332 H         1 T40         0.0691
     35 H10        -1.4047   -4.1367   -3.2856 H         1 T40         0.0586
     36 H11        -0.9027   -5.1367   -7.4097 H         1 T40         0.0586
     37 H12         1.5339   -4.9824   -7.1623 H         1 T40         0.0691
     38 H13        -2.9407   -3.9732   -6.6092 H         1 T40         0.1003
     39 H14        -3.1888   -3.7262   -4.8473 H         1 T40         0.1003
     40 H15        -4.1286   -5.6388   -4.6685 H         1 T40         0.2054
     41 H16        -4.1891   -5.5487   -7.5945 H         1 T40         0.0868
     42 H17        -5.2997   -4.6838   -6.4786 H         1 T40         0.0868
     43 H18        -6.2966   -6.7450   -7.4386 H         1 T40         0.0867
     44 H19        -6.1714   -6.7980   -5.6475 H         1 T40         0.0867
     45 H20        -4.3505   -8.0625   -7.5777 H         1 T40         0.2018
     46 H21        -5.4244   -8.8244   -6.5899 H         1 T40         0.2018
     47 H22        -3.1839   -9.0007   -5.7616 H         1 T40         0.0867
     48 H23        -4.2908   -8.1322   -4.6448 H         1 T40         0.0867
     49 H24        -2.1692   -6.9281   -4.8581 H         1 T40         0.0868
     50 H25        -2.3589   -6.8733   -6.6435 H         1 T40         0.0868
@<TRIPOS>BOND
     1    1    2 2  
     2    2    3 1  
     3    2    5 1  
     4    3    4 ar 
     5    3    8 ar 
     6    4   12 ar 
     7    5    6 2  
     8    6    7 1  
     9    6   13 1  
    10    7    8 1  
    11    8    9 ar 
    12    9   10 1  
    13    9   11 ar 
    14   11   12 ar 
    15   13   14 ar 
    16   13   18 ar 
    17   14   15 ar 
    18   15   16 ar 
    19   16   17 ar 
    20   16   19 1  
    21   17   18 ar 
    22   19   20 1  
    23   20   21 1  
    24   20   25 1  
    25   21   22 1  
    26   22   23 1  
    27   23   24 1  
    28   24   25 1  
    29    4   26 1  
    30    7   27 1  
    31    7   28 1  
    32   10   29 1  
    33   10   30 1  
    34   10   31 1  
    35   11   32 1  
    36   12   33 1  
    37   14   34 1  
    38   15   35 1  
    39   17   36 1  
    40   18   37 1  
    41   19   38 1  
    42   19   39 1  
    43   20   40 1  
    44   21   41 1  
    45   21   42 1  
    46   22   43 1  
    47   22   44 1  
    48   23   45 1  
    49   23   46 1  
    50   24   47 1  
    51   24   48 1  
    52   25   49 1  
    53   25   50 1  
@<TRIPOS>SUBSTRUCTURE
     1 T40         1

