### 
### Created by X-TOOL on Mon Sep 10 21:13:25 2018
### 

@<TRIPOS>MOLECULE
4uuq_ligand
   37    38     1     0     0
SMALL
GAST_HUCK


@<TRIPOS>ATOM
      1 C13        28.4460   53.2410    7.3600 C.ar      1 64D        -0.0346
      2 C17        29.0870   54.3000    9.4250 C.ar      1 64D        -0.0346
      3 C14        29.0030   54.2850    6.6620 C.ar      1 64D        -0.0460
      4 C16        29.6450   55.3370    8.7170 C.ar      1 64D        -0.0460
      5 C10        28.4970   53.2730    8.7320 C.ar      1 64D         0.1083
      6 C15        29.5980   55.3220    7.3430 C.ar      1 64D         0.0405
      7 C19        20.7190   52.5670   12.1020 C.2       1 64D         0.1718
      8 C4         23.6470   53.8430   10.4050 C.3       1 64D        -0.0280
      9 C5         23.5020   51.4240   10.1070 C.3       1 64D        -0.0280
     10 C2         22.1650   53.9190   10.6810 C.3       1 64D         0.0344
     11 C3         22.0190   51.4390   10.3800 C.3       1 64D         0.0344
     12 C6         23.8810   52.7180    9.4330 C.3       1 64D        -0.0205
     13 C7         25.3020   52.6940    8.9160 C.3       1 64D         0.0295
     14 N1         21.6270   52.6390   11.0740 N.am      1 64D        -0.2748
     15 N8         26.2430   52.5600   10.0400 N.am      1 64D        -0.2471
     16 O20        20.1790   53.4910   12.6940 O.2       1 64D        -0.3829
     17 O11        27.6610   50.8290    8.7200 O.2       1 64D        -0.1503
     18 O12        28.5790   51.8320   10.8620 O.2       1 64D        -0.1503
     19 S9         27.7910   51.9340    9.6500 S.o2      1 64D         0.0683
     20 CL1        30.2970   56.6310    6.4680 Cl        1 64D        -0.0707
     21 H1         27.9779   52.4126    6.8407 H         1 64D         0.0637
     22 H2         29.1123   54.2933   10.5087 H         1 64D         0.0637
     23 H3         28.9738   54.2917    5.5784 H         1 64D         0.0624
     24 H4         30.1189   56.1610    9.2380 H         1 64D         0.0624
     25 H5         20.4467   51.5649   12.4300 H         1 64D         0.1546
     26 H6         24.1916   53.6475   11.3405 H         1 64D         0.0288
     27 H7         23.9949   54.7913    9.9694 H         1 64D         0.0288
     28 H8         23.7490   50.5776    9.4493 H         1 64D         0.0288
     29 H9         24.0521   51.3249   11.0544 H         1 64D         0.0288
     30 H10        21.6499   54.2571    9.7698 H         1 64D         0.0524
     31 H11        21.9902   54.6425   11.4909 H         1 64D         0.0524
     32 H12        21.7595   50.5667   10.9978 H         1 64D         0.0524
     33 H13        21.4780   51.3851    9.4238 H         1 64D         0.0524
     34 H14        23.2165   52.8651    8.5688 H         1 64D         0.0318
     35 H15        25.5095   53.6299    8.3765 H         1 64D         0.0478
     36 H16        25.4269   51.8413    8.2325 H         1 64D         0.0478
     37 H17        25.9947   52.8182   10.9737 H         1 64D         0.1672
@<TRIPOS>BOND
     1    1    3 ar 
     2    5    1 ar 
     3    2    4 ar 
     4    5    2 ar 
     5    3    6 ar 
     6    4    6 ar 
     7   19    5 1  
     8    6   20 1  
     9   14    7 am 
    10    7   16 2  
    11    8   10 1  
    12   12    8 1  
    13    9   11 1  
    14   12    9 1  
    15   10   14 1  
    16   11   14 1  
    17   13   12 1  
    18   15   13 1  
    19   15   19 am 
    20   19   17 2  
    21   19   18 2  
    22    1   21 1  
    23    2   22 1  
    24    3   23 1  
    25    4   24 1  
    26    7   25 1  
    27    8   26 1  
    28    8   27 1  
    29    9   28 1  
    30    9   29 1  
    31   10   30 1  
    32   10   31 1  
    33   11   32 1  
    34   11   33 1  
    35   12   34 1  
    36   13   35 1  
    37   13   36 1  
    38   15   37 1  
@<TRIPOS>SUBSTRUCTURE
     1 64D         1

