### 
### Created by X-TOOL on Mon Sep 10 21:13:22 2018
### 

@<TRIPOS>MOLECULE
4uvu_ligand
   47    50     1     0     0
SMALL
GAST_HUCK


@<TRIPOS>ATOM
      1 C13       -37.8950  -10.8990    4.4850 C.3       1 U1T        -0.0302
      2 C14       -38.7960  -10.4820    3.3520 C.3       1 U1T        -0.0077
      3 C15       -39.6690   -9.4880    4.1550 C.3       1 U1T        -0.0077
      4 C16       -39.9030  -10.1580    5.5100 C.3       1 U1T        -0.0302
      5 N2        -38.8110  -11.1070    5.5850 N.4       1 U1T         0.2478
      6 C12       -38.0220  -10.5120    6.6480 C.3       1 U1T         0.0034
      7 C9        -38.2220  -11.0260    7.9510 C.ar      1 U1T         0.0047
      8 C10       -37.7760  -10.1920    8.9670 C.ar      1 U1T        -0.0513
      9 C11       -37.8460  -10.5860   10.2840 C.ar      1 U1T        -0.0539
     10 C8        -38.7230  -12.2940    8.2910 C.ar      1 U1T        -0.0513
     11 C7        -38.7990  -12.6880    9.6440 C.ar      1 U1T        -0.0539
     12 C6        -38.3090  -11.8520   10.6600 C.ar      1 U1T         0.0101
     13 C5        -38.3740  -12.1210   12.0420 C.2       1 U1T         0.0806
     14 C4        -39.2190  -13.0960   12.5710 C.2       1 U1T        -0.0450
     15 C3        -39.2780  -13.2900   13.9480 C.ar      1 U1T        -0.0290
     16 C17       -40.1130  -14.2910   14.4890 C.ar      1 U1T        -0.0449
     17 C21       -40.9220  -15.1310   13.6710 C.3       1 U1T        -0.0328
     18 C18       -40.1800  -14.4410   15.8830 C.ar      1 U1T        -0.0656
     19 C19       -39.4360  -13.6270   16.7190 C.ar      1 U1T        -0.0728
     20 C20       -38.5770  -12.6480   16.1710 C.ar      1 U1T        -0.0590
     21 C2        -38.5030  -12.4720   14.8010 C.ar      1 U1T         0.0414
     22 C1        -37.6330  -11.4930   14.2650 C.2       1 U1T         0.2197
     23 O1        -36.8780  -10.7840   14.9370 O.2       1 U1T        -0.3956
     24 N1        -37.5770  -11.3460   12.9200 N.am      1 U1T        -0.2265
     25 H1        -37.1691  -10.1073    4.7221 H         1 U1T         0.0815
     26 H2        -37.3582  -11.8272    4.2394 H         1 U1T         0.0815
     27 H3        -39.3797  -11.3224    2.9483 H         1 U1T         0.0319
     28 H4        -38.2450   -9.9924    2.5355 H         1 U1T         0.0319
     29 H5        -40.6259   -9.3138    3.6412 H         1 U1T         0.0319
     30 H6        -39.1427   -8.5308    4.2845 H         1 U1T         0.0319
     31 H7        -40.8764  -10.6696    5.5374 H         1 U1T         0.0815
     32 H8        -39.8502   -9.4261    6.3295 H         1 U1T         0.0815
     33 H9        -39.1003  -12.0637    5.7155 H         1 U1T         0.2049
     34 H10       -38.2545   -9.4372    6.6743 H         1 U1T         0.0989
     35 H11       -36.9609  -10.6515    6.3938 H         1 U1T         0.0989
     36 H12       -37.3676   -9.2186    8.7203 H         1 U1T         0.0569
     37 H13       -37.5320   -9.8925   11.0557 H         1 U1T         0.0631
     38 H14       -39.0522  -12.9717    7.5116 H         1 U1T         0.0569
     39 H15       -39.2396  -13.6445    9.9011 H         1 U1T         0.0631
     40 H16       -39.8318  -13.7047   11.9078 H         1 U1T         0.0309
     41 H17       -41.4839  -15.8309   14.3069 H         1 U1T         0.0384
     42 H18       -40.2806  -15.6976   12.9799 H         1 U1T         0.0384
     43 H19       -41.6263  -14.5132   13.0945 H         1 U1T         0.0384
     44 H20       -40.8219  -15.2032   16.3096 H         1 U1T         0.0554
     45 H21       -39.5122  -13.7404   17.7944 H         1 U1T         0.0535
     46 H22       -37.9731  -12.0319   16.8274 H         1 U1T         0.0581
     47 H23       -36.9521  -10.6676   12.5336 H         1 U1T         0.2409
@<TRIPOS>BOND
     1    1    2 1  
     2    1    5 1  
     3    2    3 1  
     4    3    4 1  
     5    4    5 1  
     6    5    6 1  
     7    6    7 1  
     8    7    8 ar 
     9    7   10 ar 
    10    8    9 ar 
    11    9   12 ar 
    12   10   11 ar 
    13   11   12 ar 
    14   12   13 1  
    15   13   14 2  
    16   13   24 1  
    17   14   15 1  
    18   15   16 ar 
    19   15   21 ar 
    20   16   17 1  
    21   16   18 ar 
    22   18   19 ar 
    23   19   20 ar 
    24   20   21 ar 
    25   21   22 1  
    26   22   23 2  
    27   22   24 am 
    28    1   25 1  
    29    1   26 1  
    30    2   27 1  
    31    2   28 1  
    32    3   29 1  
    33    3   30 1  
    34    4   31 1  
    35    4   32 1  
    36    5   33 1  
    37    6   34 1  
    38    6   35 1  
    39    8   36 1  
    40    9   37 1  
    41   10   38 1  
    42   11   39 1  
    43   14   40 1  
    44   17   41 1  
    45   17   42 1  
    46   17   43 1  
    47   18   44 1  
    48   19   45 1  
    49   20   46 1  
    50   24   47 1  
@<TRIPOS>SUBSTRUCTURE
     1 U1T         1

