### 
### Created by X-TOOL on Mon Sep 10 21:13:21 2018
### 

@<TRIPOS>MOLECULE
4uvv_ligand
   31    33     1     0     0
SMALL
GAST_HUCK


@<TRIPOS>ATOM
      1 CAH       -39.6630  -12.6910   12.5620 C.2       1 W8L        -0.0420
      2 CAG       -39.7640  -12.8850   13.9440 C.ar      1 W8L        -0.0267
      3 CAB       -40.6190  -13.8840   14.4450 C.ar      1 W8L        -0.0438
      4 CAA       -41.3940  -14.7250   13.5780 C.3       1 W8L        -0.0325
      5 CAC       -40.7180  -14.0360   15.8350 C.ar      1 W8L        -0.0648
      6 CAD       -39.9950  -13.2150   16.7170 C.ar      1 W8L        -0.0721
      7 CAE       -39.1420  -12.2290   16.2140 C.ar      1 W8L        -0.0583
      8 CAF       -39.0260  -12.0720   14.8330 C.ar      1 W8L         0.0424
      9 CAK       -38.1360  -11.1050   14.2930 C.2       1 W8L         0.2202
     10 OAL       -37.4130  -10.3980   14.9850 O.2       1 W8L        -0.3954
     11 NAJ       -38.0730  -10.9390   12.9300 N.am      1 W8L        -0.2258
     12 CAI       -38.8280  -11.7260   12.0330 C.2       1 W8L         0.0849
     13 CAM       -38.7420  -11.4740   10.6180 C.ar      1 W8L         0.0157
     14 CAN       -38.3670  -10.1850   10.2030 C.ar      1 W8L        -0.0482
     15 CAO       -38.2920   -9.8600    8.8410 C.ar      1 W8L        -0.0453
     16 CAP       -38.6070  -10.8180    7.8740 C.ar      1 W8L         0.0423
     17 CL        -38.5000  -10.4770    6.1330 Cl        1 W8L        -0.0687
     18 CAR       -39.0180  -12.0910    8.2730 C.ar      1 W8L        -0.0453
     19 CAS       -39.0940  -12.4110    9.6280 C.ar      1 W8L        -0.0482
     20 H1        -40.2538  -13.3125   11.8907 H         1 W8L         0.0334
     21 H2        -41.9854  -15.4286   14.1823 H         1 W8L         0.0385
     22 H3        -40.7205  -15.2876   12.9147 H         1 W8L         0.0385
     23 H4        -42.0701  -14.1035   12.9725 H         1 W8L         0.0385
     24 H5        -41.3672  -14.8045   16.2388 H         1 W8L         0.0556
     25 H6        -40.0990  -13.3466   17.7880 H         1 W8L         0.0540
     26 H7        -38.5780  -11.5946   16.8882 H         1 W8L         0.0583
     27 H8        -37.4690  -10.2335   12.5592 H         1 W8L         0.2409
     28 H9        -38.1324   -9.4314   10.9460 H         1 W8L         0.0642
     29 H10       -37.9892   -8.8642    8.5380 H         1 W8L         0.0627
     30 H11       -39.2789  -12.8331    7.5271 H         1 W8L         0.0627
     31 H12       -39.4299  -13.3982    9.9242 H         1 W8L         0.0642
@<TRIPOS>BOND
     1    1    2 1  
     2    1   12 2  
     3    2    3 ar 
     4    2    8 ar 
     5    3    4 1  
     6    3    5 ar 
     7    5    6 ar 
     8    6    7 ar 
     9    7    8 ar 
    10    8    9 1  
    11    9   10 2  
    12    9   11 am 
    13   11   12 1  
    14   12   13 1  
    15   13   14 ar 
    16   13   19 ar 
    17   14   15 ar 
    18   15   16 ar 
    19   16   17 1  
    20   16   18 ar 
    21   18   19 ar 
    22    1   20 1  
    23    4   21 1  
    24    4   22 1  
    25    4   23 1  
    26    5   24 1  
    27    6   25 1  
    28    7   26 1  
    29   11   27 1  
    30   14   28 1  
    31   15   29 1  
    32   18   30 1  
    33   19   31 1  
@<TRIPOS>SUBSTRUCTURE
     1 W8L         1

