### 
### Created by X-TOOL on Mon Sep 10 21:13:22 2018
### 

@<TRIPOS>MOLECULE
4uvw_ligand
   34    36     1     0     0
SMALL
GAST_HUCK


@<TRIPOS>ATOM
      1 CAI       -41.6650  -12.8050   11.2540 C.3       1 NYJ        -0.0416
      2 CAH       -40.8920  -12.1160   12.2460 C.2       1 NYJ        -0.0218
      3 CAG       -41.0610  -12.3460   13.6420 C.ar      1 NYJ        -0.0162
      4 CAB       -41.9790  -13.3090   14.1980 C.ar      1 NYJ        -0.0417
      5 CAA       -42.8180  -14.1700   13.4250 C.3       1 NYJ        -0.0319
      6 CAC       -42.1080  -13.4560   15.5880 C.ar      1 NYJ        -0.0639
      7 CAD       -41.3320  -12.6780   16.4550 C.ar      1 NYJ        -0.0714
      8 CAE       -40.4420  -11.7500   15.9320 C.ar      1 NYJ        -0.0576
      9 CAF       -40.2850  -11.5770   14.5580 C.ar      1 NYJ         0.0431
     10 CAL       -39.3470  -10.6380   14.0920 C.2       1 NYJ         0.2156
     11 OAM       -38.6290   -9.9670   14.8500 O.2       1 NYJ        -0.3981
     12 NAK       -39.1890  -10.4350   12.7140 N.am      1 NYJ        -0.2340
     13 CAJ       -39.9600  -11.1440   11.7740 C.2       1 NYJ         0.0829
     14 CAN       -39.7090  -10.8670   10.4050 C.ar      1 NYJ         0.0059
     15 CAO       -39.5840  -11.8790    9.4430 C.ar      1 NYJ        -0.0535
     16 CAP       -39.2700  -11.5650    8.1110 C.ar      1 NYJ        -0.0628
     17 CAQ       -39.1080  -10.2310    7.7130 C.ar      1 NYJ        -0.0633
     18 CAR       -39.2040   -9.2320    8.6760 C.ar      1 NYJ        -0.0628
     19 CAS       -39.4980   -9.5570    9.9810 C.ar      1 NYJ        -0.0535
     20 H1        -42.3392  -13.5210   11.7467 H         1 NYJ         0.0336
     21 H2        -40.9904  -13.3452   10.5735 H         1 NYJ         0.0336
     22 H3        -42.2584  -12.0774   10.6809 H         1 NYJ         0.0336
     23 H4        -43.4155  -14.8015   14.0990 H         1 NYJ         0.0388
     24 H5        -42.1948  -14.8081   12.7813 H         1 NYJ         0.0388
     25 H6        -43.4895  -13.5631   12.7999 H         1 NYJ         0.0388
     26 H7        -42.8116  -14.1751   15.9917 H         1 NYJ         0.0557
     27 H8        -41.4255  -12.7994   17.5281 H         1 NYJ         0.0547
     28 H9        -39.8532  -11.1435   16.6106 H         1 NYJ         0.0585
     29 H10       -38.5135   -9.7717   12.3918 H         1 NYJ         0.2350
     30 H11       -39.7312  -12.9138    9.7302 H         1 NYJ         0.0613
     31 H12       -39.1519  -12.3609    7.3846 H         1 NYJ         0.0613
     32 H13       -38.9119   -9.9829    6.6761 H         1 NYJ         0.0604
     33 H14       -39.0471   -8.1959    8.3985 H         1 NYJ         0.0613
     34 H15       -39.5684   -8.7584   10.7107 H         1 NYJ         0.0613
@<TRIPOS>BOND
     1    1    2 1  
     2    2    3 1  
     3    2   13 2  
     4    3    4 ar 
     5    3    9 ar 
     6    4    5 1  
     7    4    6 ar 
     8    6    7 ar 
     9    7    8 ar 
    10    8    9 ar 
    11    9   10 1  
    12   10   11 2  
    13   10   12 am 
    14   12   13 1  
    15   13   14 1  
    16   14   15 ar 
    17   14   19 ar 
    18   15   16 ar 
    19   16   17 ar 
    20   17   18 ar 
    21   18   19 ar 
    22    1   20 1  
    23    1   21 1  
    24    1   22 1  
    25    5   23 1  
    26    5   24 1  
    27    5   25 1  
    28    6   26 1  
    29    7   27 1  
    30    8   28 1  
    31   12   29 1  
    32   15   30 1  
    33   16   31 1  
    34   17   32 1  
    35   18   33 1  
    36   19   34 1  
@<TRIPOS>SUBSTRUCTURE
     1 NYJ         1

