### 
### Created by X-TOOL on Mon Sep 10 21:13:22 2018
### 

@<TRIPOS>MOLECULE
4uvx_ligand
   28    30     1     0     0
SMALL
GAST_HUCK


@<TRIPOS>ATOM
      1 CAF       -39.2660  -12.9300   12.4720 C.2       1 H2W        -0.0389
      2 CAE       -39.3080  -13.1460   13.8390 C.ar      1 H2W         0.0040
      3 CAO       -40.1470  -14.1470   14.3370 C.ar      1 H2W         0.1327
      4 FAP       -40.8470  -14.9030   13.4970 F         1 H2W        -0.1873
      5 CAQ       -40.2340  -14.3670   15.7100 C.ar      1 H2W        -0.0329
      6 CAR       -39.4700  -13.6060   16.5910 C.ar      1 H2W        -0.0672
      7 CAS       -38.6120  -12.6020   16.0990 C.ar      1 H2W        -0.0554
      8 CAD       -38.5260  -12.3840   14.7270 C.ar      1 H2W         0.0468
      9 CAB       -37.6870  -11.3940   14.2020 C.2       1 H2W         0.2214
     10 OAC       -36.9180  -10.7240   14.8900 O.2       1 H2W        -0.3949
     11 NAA       -37.6490  -11.2100   12.8400 N.am      1 H2W        -0.2249
     12 CAG       -38.4380  -11.9410   11.9410 C.2       1 H2W         0.0861
     13 CAH       -38.3420  -11.6510   10.5540 C.ar      1 H2W         0.0167
     14 CAI       -37.8680  -10.3760   10.1310 C.ar      1 H2W        -0.0478
     15 CAJ       -37.7520  -10.0440    8.7970 C.ar      1 H2W        -0.0450
     16 CAK       -38.1300  -10.9700    7.8340 C.ar      1 H2W         0.0426
     17 CL        -37.9430  -10.5890    6.1370 Cl        1 H2W        -0.0684
     18 CAM       -38.6110  -12.2250    8.2220 C.ar      1 H2W        -0.0450
     19 CAN       -38.7270  -12.5630    9.5760 C.ar      1 H2W        -0.0478
     20 H1        -39.8822  -13.5349   11.8084 H         1 H2W         0.0334
     21 H2        -40.8984  -15.1328   16.0936 H         1 H2W         0.0606
     22 H3        -39.5353  -13.7863   17.6579 H         1 H2W         0.0547
     23 H4        -38.0230  -12.0035   16.7845 H         1 H2W         0.0607
     24 H5        -37.0266  -10.5193   12.4718 H         1 H2W         0.2415
     25 H6        -37.5898   -9.6440   10.8805 H         1 H2W         0.0645
     26 H7        -37.3706   -9.0724    8.5044 H         1 H2W         0.0628
     27 H8        -38.8977  -12.9454    7.4645 H         1 H2W         0.0628
     28 H9        -39.1161  -13.5336    9.8618 H         1 H2W         0.0645
@<TRIPOS>BOND
     1    1    2 1  
     2    1   12 2  
     3    2    3 ar 
     4    2    8 ar 
     5    3    4 1  
     6    3    5 ar 
     7    5    6 ar 
     8    6    7 ar 
     9    7    8 ar 
    10    8    9 1  
    11    9   10 2  
    12    9   11 am 
    13   11   12 1  
    14   12   13 1  
    15   13   14 ar 
    16   13   19 ar 
    17   14   15 ar 
    18   15   16 ar 
    19   16   17 1  
    20   16   18 ar 
    21   18   19 ar 
    22    1   20 1  
    23    5   21 1  
    24    6   22 1  
    25    7   23 1  
    26   11   24 1  
    27   14   25 1  
    28   15   26 1  
    29   18   27 1  
    30   19   28 1  
@<TRIPOS>SUBSTRUCTURE
     1 H2W         1

