### 
### Created by X-TOOL on Mon Sep 10 21:13:23 2018
### 

@<TRIPOS>MOLECULE
4uvy_ligand
   32    34     1     0     0
SMALL
GAST_HUCK


@<TRIPOS>ATOM
      1 C1        -39.9880  -13.6410   16.8730 C.ar      1 SGW        -0.0742
      2 C2        -40.7360  -14.4440   16.0140 C.ar      1 SGW        -0.0366
      3 C3        -40.6900  -14.2380   14.6290 C.ar      1 SGW         0.0949
      4 C4        -39.8890  -13.1960   14.1100 C.ar      1 SGW         0.0030
      5 C5        -39.1400  -12.3880   15.0030 C.ar      1 SGW         0.0412
      6 C6        -39.1800  -12.6090   16.3740 C.ar      1 SGW        -0.0624
      7 C11       -38.3370  -11.3690   14.5030 C.2       1 SGW         0.2185
      8 N12       -38.3080  -11.1450   13.1250 N.am      1 SGW        -0.2271
      9 O13       -37.6570  -10.6650   15.2410 O.2       1 SGW        -0.3961
     10 C14       -38.9960  -11.6400   10.7830 C.ar      1 SGW         0.0143
     11 C15       -39.6070  -12.4570    9.8110 C.ar      1 SGW        -0.0489
     12 C16       -39.5580  -12.1360    8.4410 C.ar      1 SGW        -0.0458
     13 C17       -38.9380  -10.9700    7.9920 C.ar      1 SGW         0.0418
     14 C18       -38.3480  -10.1320    8.9350 C.ar      1 SGW        -0.0458
     15 C19       -38.3800  -10.4630   10.2930 C.ar      1 SGW        -0.0489
     16 CL        -38.8840  -10.5640    6.2360 Cl        1 SGW        -0.0691
     17 CAI       -39.0430  -11.9300   12.1880 C.2       1 SGW         0.0832
     18 CAH       -39.8420  -12.9620   12.7260 C.2       1 SGW        -0.0411
     19 CAA       -41.7650  -16.3280   14.1830 C.3       1 SGW         0.0592
     20 OAB       -41.4160  -15.0050   13.7290 O.3       1 SGW        -0.3217
     21 H1        -40.0313  -13.8165   17.9418 H         1 SGW         0.0532
     22 H2        -41.3578  -15.2335   16.4203 H         1 SGW         0.0537
     23 H3        -38.5955  -11.9931   17.0479 H         1 SGW         0.0546
     24 H4        -37.7434  -10.3964   12.7775 H         1 SGW         0.2401
     25 H5        -40.1274  -13.3544   10.1257 H         1 SGW         0.0638
     26 H6        -40.0109  -12.8081    7.7211 H         1 SGW         0.0626
     27 H7        -37.8613   -9.2180    8.6143 H         1 SGW         0.0626
     28 H8        -37.9127   -9.7890   11.0018 H         1 SGW         0.0638
     29 H9        -40.4316  -13.5869   12.0569 H         1 SGW         0.0336
     30 H10       -42.3352  -16.8464   13.3981 H         1 SGW         0.0578
     31 H11       -42.3783  -16.2535   15.0931 H         1 SGW         0.0578
     32 H12       -40.8479  -16.8936   14.4041 H         1 SGW         0.0578
@<TRIPOS>BOND
     1    1    2 ar 
     2    6    1 ar 
     3    3    2 ar 
     4    4    3 ar 
     5    3   20 1  
     6    5    4 ar 
     7    4   18 1  
     8    5    6 ar 
     9    7    5 1  
    10    8    7 am 
    11    7    9 2  
    12   17    8 1  
    13   10   11 ar 
    14   10   15 ar 
    15   10   17 1  
    16   11   12 ar 
    17   12   13 ar 
    18   13   14 ar 
    19   13   16 1  
    20   14   15 ar 
    21   17   18 2  
    22   20   19 1  
    23    1   21 1  
    24    2   22 1  
    25    6   23 1  
    26    8   24 1  
    27   11   25 1  
    28   12   26 1  
    29   14   27 1  
    30   15   28 1  
    31   18   29 1  
    32   19   30 1  
    33   19   31 1  
    34   19   32 1  
@<TRIPOS>SUBSTRUCTURE
     1 SGW         1

