### 
### Created by X-TOOL on Mon Sep 10 21:13:25 2018
### 

@<TRIPOS>MOLECULE
4uw1_ligand
   35    37     1     0     0
SMALL
GAST_HUCK


@<TRIPOS>ATOM
      1 O1         18.7530  -18.8210  -20.6940 O.2       1 92R        -0.3844
      2 C9         19.3210  -18.2030  -21.5910 C.2       1 92R         0.1762
      3 C5         18.6350  -17.6880  -22.7860 C.ar      1 92R         0.0359
      4 C4         17.2650  -17.8910  -22.9420 C.ar      1 92R        -0.0596
      5 C3         16.6120  -17.4100  -24.0640 C.ar      1 92R        -0.0712
      6 C2         17.3090  -16.7230  -25.0420 C.ar      1 92R        -0.0340
      7 N          20.6700  -17.9500  -21.5280 N.2       1 92R        -0.2629
      8 C8         21.4040  -17.2650  -22.4820 C.2       1 92R         0.0596
      9 C7         20.7760  -16.7930  -23.5860 C.3       1 92R         0.0481
     10 C6         19.3640  -16.9930  -23.7680 C.ar      1 92R         0.0279
     11 C1         18.6710  -16.5180  -24.8950 C.ar      1 92R         0.1027
     12 O          19.4450  -15.8550  -25.8070 O.3       1 92R        -0.3229
     13 C          18.7990  -15.3440  -26.9700 C.3       1 92R         0.0581
     14 C10        22.8420  -17.0850  -22.2190 C.ar      1 92R         0.0206
     15 C18        23.2820  -16.5410  -21.0170 C.ar      1 92R        -0.0450
     16 C17        24.6330  -16.3740  -20.7730 C.ar      1 92R        -0.0496
     17 C13        25.5810  -16.7420  -21.7140 C.ar      1 92R        -0.0364
     18 C12        25.1410  -17.2840  -22.9110 C.ar      1 92R        -0.0496
     19 C11        23.7920  -17.4550  -23.1640 C.ar      1 92R        -0.0450
     20 C14        27.0540  -16.5580  -21.4420 C.3       1 92R        -0.0265
     21 H1         16.7086  -18.4275  -22.1820 H         1 92R         0.0555
     22 H2         15.5463  -17.5729  -24.1772 H         1 92R         0.0551
     23 H3         16.7924  -16.3475  -25.9179 H         1 92R         0.0558
     24 H4         21.2730  -17.2546  -24.4520 H         1 92R         0.0702
     25 H5         20.9443  -15.7061  -23.6029 H         1 92R         0.0702
     26 H6         19.5390  -14.8393  -27.6085 H         1 92R         0.0575
     27 H7         18.0213  -14.6255  -26.6717 H         1 92R         0.0575
     28 H8         18.3382  -16.1727  -27.5275 H         1 92R         0.0575
     29 H9         22.5596  -16.2453  -20.2648 H         1 92R         0.0691
     30 H10        24.9556  -15.9481  -19.8298 H         1 92R         0.0584
     31 H11        25.8658  -17.5787  -23.6612 H         1 92R         0.0584
     32 H12        23.4726  -17.8815  -24.1080 H         1 92R         0.0691
     33 H13        27.1901  -16.1163  -20.4438 H         1 92R         0.0412
     34 H14        27.4863  -15.8893  -22.2009 H         1 92R         0.0412
     35 H15        27.5592  -17.5343  -21.4829 H         1 92R         0.0412
@<TRIPOS>BOND
     1    1    2 2  
     2    2    3 1  
     3    2    7 1  
     4    3    4 ar 
     5    3   10 ar 
     6    4    5 ar 
     7    5    6 ar 
     8    6   11 ar 
     9    7    8 2  
    10    8    9 1  
    11    8   14 1  
    12    9   10 1  
    13   10   11 ar 
    14   11   12 1  
    15   12   13 1  
    16   14   15 ar 
    17   14   19 ar 
    18   15   16 ar 
    19   16   17 ar 
    20   17   18 ar 
    21   17   20 1  
    22   18   19 ar 
    23    4   21 1  
    24    5   22 1  
    25    6   23 1  
    26    9   24 1  
    27    9   25 1  
    28   13   26 1  
    29   13   27 1  
    30   13   28 1  
    31   15   29 1  
    32   16   30 1  
    33   18   31 1  
    34   19   32 1  
    35   20   33 1  
    36   20   34 1  
    37   20   35 1  
@<TRIPOS>SUBSTRUCTURE
     1 92R         1

