### 
### Created by X-TOOL on Mon Sep 10 21:13:19 2018
### 

@<TRIPOS>MOLECULE
4uwf_ligand
   47    50     1     0     0
SMALL
GAST_HUCK


@<TRIPOS>ATOM
      1 C1         22.1570  -14.9790  -21.1830 C.ar      1 EUT        -0.0042
      2 C2         22.0030  -13.3600  -22.9200 C.ar      1 EUT        -0.0042
      3 C3         23.0990  -12.8000  -20.8660 C.ar      1 EUT        -0.0022
      4 C4         21.7430  -14.6300  -22.4520 C.ar      1 EUT         0.0632
      5 C5         22.8320  -14.0680  -20.3990 C.ar      1 EUT         0.1258
      6 C6         22.6800  -12.4560  -22.1320 C.ar      1 EUT         0.1258
      7 C7         16.9450  -15.7160  -22.8220 C.2       1 EUT         0.1797
      8 C8         17.6430  -14.5960  -22.5890 C.2       1 EUT         0.2972
      9 C9         17.6610  -16.9310  -23.2560 C.2       1 EUT         0.2734
     10 C10        19.6670  -15.5980  -23.1170 C.cat     1 EUT         0.2263
     11 C11        21.1690  -17.9690  -23.2450 C.3       1 EUT         0.0031
     12 C12        19.7700  -17.9550  -23.8090 C.3       1 EUT         0.0353
     13 C13        15.6270  -13.1960  -22.6600 C.3       1 EUT         0.0811
     14 C14        17.7410  -12.2470  -21.9340 C.3       1 EUT         0.0811
     15 C15        14.9580  -12.2330  -21.7060 C.3       1 EUT         0.0736
     16 C16        16.9570  -11.3140  -21.0410 C.3       1 EUT         0.0736
     17 C17        21.8750  -16.6760  -23.5780 C.3       1 EUT         0.1509
     18 C18        22.2990  -16.6070  -25.0280 C.3       1 EUT         0.4170
     19 N19        19.0010  -14.5540  -22.7430 N.pl3     1 EUT        -0.1909
     20 N20        21.0390  -15.5320  -23.2640 N.pl3     1 EUT        -0.2492
     21 N21        16.9750  -13.4580  -22.1850 N.pl3     1 EUT        -0.2096
     22 N22        19.0250  -16.7950  -23.3780 N.am      1 EUT        -0.2284
     23 O23        17.0310  -17.9570  -23.4750 O.2       1 EUT        -0.3416
     24 O24        15.7160  -11.0300  -21.6730 O.3       1 EUT        -0.3747
     25 F25        23.2330  -14.4190  -19.1680 F         1 EUT        -0.1863
     26 F26        22.9290  -11.2250  -22.6030 F         1 EUT        -0.1863
     27 F27        22.7810  -17.8030  -25.4630 F         1 EUT        -0.1677
     28 F28        21.2750  -16.2410  -25.8460 F         1 EUT        -0.1677
     29 F29        23.2830  -15.6820  -25.1690 F         1 EUT        -0.1677
     30 H          21.9509  -15.9725  -20.8014 H         1 EUT         0.0518
     31 H          21.6735  -13.0717  -23.9117 H         1 EUT         0.0518
     32 H          23.6298  -12.0852  -20.2477 H         1 EUT         0.0529
     33 H          15.8638  -15.7292  -22.6928 H         1 EUT         0.1541
     34 H          21.7280  -18.8111  -23.6790 H         1 EUT         0.0315
     35 H          21.1198  -18.0858  -22.1523 H         1 EUT         0.0315
     36 H          19.2428  -18.8604  -23.4739 H         1 EUT         0.0516
     37 H          19.8298  -17.9508  -24.9074 H         1 EUT         0.0516
     38 H          15.6682  -12.7526  -23.6658 H         1 EUT         0.0615
     39 H          15.0578  -14.1366  -22.6969 H         1 EUT         0.0615
     40 H          18.6887  -12.5112  -21.4420 H         1 EUT         0.0615
     41 H          17.9516  -11.7448  -22.8898 H         1 EUT         0.0615
     42 H          14.9193  -12.6748  -20.6994 H         1 EUT         0.0585
     43 H          13.9361  -12.0181  -22.0517 H         1 EUT         0.0585
     44 H          17.5204  -10.3811  -20.8915 H         1 EUT         0.0585
     45 H          16.7775  -11.7940  -20.0677 H         1 EUT         0.0585
     46 H          22.7811  -16.6211  -22.9568 H         1 EUT         0.0707
     47 H          19.5034  -13.6741  -22.5576 H         1 EUT         0.2464
@<TRIPOS>BOND
     1    4    1 ar 
     2    1    5 ar 
     3    4    2 ar 
     4    2    6 ar 
     5    5    3 ar 
     6    6    3 ar 
     7   20    4 1  
     8    5   25 1  
     9    6   26 1  
    10    8    7 2  
    11    7    9 1  
    12    8   19 1  
    13   21    8 1  
    14    9   22 am 
    15    9   23 2  
    16   19   10 ar 
    17   10   20 ar 
    18   10   22 ar 
    19   12   11 1  
    20   11   17 1  
    21   22   12 1  
    22   13   15 1  
    23   21   13 1  
    24   14   16 1  
    25   14   21 1  
    26   15   24 1  
    27   16   24 1  
    28   17   18 1  
    29   17   20 1  
    30   18   27 1  
    31   18   28 1  
    32   18   29 1  
    33    1   30 1  
    34    2   31 1  
    35    3   32 1  
    36    7   33 1  
    37   11   34 1  
    38   11   35 1  
    39   12   36 1  
    40   12   37 1  
    41   13   38 1  
    42   13   39 1  
    43   14   40 1  
    44   14   41 1  
    45   15   42 1  
    46   15   43 1  
    47   16   44 1  
    48   16   45 1  
    49   17   46 1  
    50   19   47 1  
@<TRIPOS>SUBSTRUCTURE
     1 EUT         1

