### 
### Created by X-TOOL on Mon Sep 10 21:13:18 2018
### 

@<TRIPOS>MOLECULE
4uwg_ligand
   54    56     1     0     0
SMALL
GAST_HUCK


@<TRIPOS>ATOM
      1 C1         18.7570  -16.8840  -24.4970 C.cat     1 RBQ         0.2673
      2 N2         18.1610  -15.6910  -24.1590 N.pl3     1 RBQ        -0.1066
      3 N3         18.0100  -18.0700  -24.6350 N.am      1 RBQ        -0.2167
      4 C4         16.7440  -15.5940  -23.9340 C.2       1 RBQ         0.4439
      5 N5         20.2260  -16.8870  -24.6960 N.pl3     1 RBQ        -0.2773
      6 C6         16.5680  -18.0200  -24.4770 C.2       1 RBQ         0.2519
      7 C7         15.9680  -16.7700  -24.0980 C.3       1 RBQ         0.2451
      8 C8         20.8280  -18.1440  -25.1820 C.3       1 RBQ         0.1406
      9 C9         20.9050  -18.1820  -26.6940 C.3       1 RBQ         0.4147
     10 N10        16.2810  -14.3710  -23.7350 N.2       1 RBQ        -0.1279
     11 C11        18.6660  -19.4080  -24.8310 C.3       1 RBQ         0.0395
     12 C12        20.1690  -19.3770  -24.5410 C.3       1 RBQ         0.0016
     13 O13        15.9800  -19.0530  -24.7700 O.2       1 RBQ        -0.3648
     14 F14        21.4010  -19.3350  -27.1380 F         1 RBQ        -0.1679
     15 F15        19.7230  -18.0200  -27.2800 F         1 RBQ        -0.1679
     16 F16        21.6890  -17.2220  -27.1590 F         1 RBQ        -0.1679
     17 O17        15.3130  -11.8840  -22.8220 O.3       1 RBQ        -0.3689
     18 C18        20.9840  -16.2300  -23.6290 C.3       1 RBQ         0.0563
     19 C19        17.2050  -13.2350  -23.5340 C.3       1 RBQ         0.1707
     20 C20        14.8640  -13.9960  -23.9160 C.3       1 RBQ         0.1707
     21 C21        21.2050  -14.7550  -23.7450 C.3       1 RBQ         0.0703
     22 O22        21.4570  -14.2230  -22.4430 O.3       1 RBQ        -0.3748
     23 C23        14.4510  -13.0160  -22.8490 C.3       1 RBQ         0.1009
     24 C24        16.6440  -12.2900  -22.5020 C.3       1 RBQ         0.1009
     25 C25        21.1350  -12.8410  -22.2060 C.3       1 RBQ         0.0532
     26 C26        22.0850  -12.0050  -23.0090 C.3       1 RBQ        -0.0390
     27 C27        21.3040  -12.6120  -20.7550 C.3       1 RBQ        -0.0390
     28 H          18.7438  -14.8470  -24.0648 H         1 RBQ         0.3186
     29 H          15.2164  -16.5408  -24.8678 H         1 RBQ         0.1300
     30 H          15.4652  -16.9465  -23.1357 H         1 RBQ         0.1300
     31 H          21.8700  -18.1448  -24.8295 H         1 RBQ         0.0678
     32 H          18.5152  -19.7246  -25.8736 H         1 RBQ         0.0527
     33 H          18.1921  -20.1348  -24.1549 H         1 RBQ         0.0527
     34 H          20.3248  -19.3433  -23.4526 H         1 RBQ         0.0313
     35 H          20.6332  -20.2866  -24.9499 H         1 RBQ         0.0313
     36 H          21.9734  -16.7087  -23.5851 H         1 RBQ         0.0574
     37 H          20.4476  -16.4094  -22.6855 H         1 RBQ         0.0574
     38 H          17.3358  -12.6991  -24.4857 H         1 RBQ         0.0969
     39 H          18.1786  -13.6139  -23.1898 H         1 RBQ         0.0969
     40 H          14.2367  -14.8969  -23.8458 H         1 RBQ         0.0969
     41 H          14.7328  -13.5340  -24.9056 H         1 RBQ         0.0969
     42 H          20.3095  -14.2795  -24.1716 H         1 RBQ         0.0583
     43 H          22.0692  -14.5609  -24.3972 H         1 RBQ         0.0583
     44 H          13.4237  -12.6788  -23.0511 H         1 RBQ         0.0615
     45 H          14.4868  -13.5166  -21.8702 H         1 RBQ         0.0615
     46 H          16.6371  -12.7940  -21.5243 H         1 RBQ         0.0615
     47 H          17.2855  -11.3980  -22.4502 H         1 RBQ         0.0615
     48 H          20.0994  -12.6226  -22.5055 H         1 RBQ         0.0590
     49 H          21.8625  -10.9399  -22.8476 H         1 RBQ         0.0254
     50 H          21.9727  -12.2453  -24.0765 H         1 RBQ         0.0254
     51 H          23.1170  -12.2161  -22.6922 H         1 RBQ         0.0254
     52 H          21.0685  -11.5636  -20.5194 H         1 RBQ         0.0254
     53 H          22.3439  -12.8275  -20.4684 H         1 RBQ         0.0254
     54 H          20.6253  -13.2744  -20.1977 H         1 RBQ         0.0254
@<TRIPOS>BOND
     1    2    1 ar 
     2    1    3 ar 
     3    1    5 ar 
     4    4    2 1  
     5    6    3 am 
     6    3   11 1  
     7    4    7 1  
     8   10    4 2  
     9    5    8 1  
    10    5   18 1  
    11    7    6 1  
    12    6   13 2  
    13    8    9 1  
    14    8   12 1  
    15    9   14 1  
    16    9   15 1  
    17    9   16 1  
    18   19   10 1  
    19   10   20 1  
    20   11   12 1  
    21   17   23 1  
    22   24   17 1  
    23   18   21 1  
    24   19   24 1  
    25   20   23 1  
    26   21   22 1  
    27   22   25 1  
    28   25   26 1  
    29   25   27 1  
    30    2   28 1  
    31    7   29 1  
    32    7   30 1  
    33    8   31 1  
    34   11   32 1  
    35   11   33 1  
    36   12   34 1  
    37   12   35 1  
    38   18   36 1  
    39   18   37 1  
    40   19   38 1  
    41   19   39 1  
    42   20   40 1  
    43   20   41 1  
    44   21   42 1  
    45   21   43 1  
    46   23   44 1  
    47   23   45 1  
    48   24   46 1  
    49   24   47 1  
    50   25   48 1  
    51   26   49 1  
    52   26   50 1  
    53   26   51 1  
    54   27   52 1  
    55   27   53 1  
    56   27   54 1  
@<TRIPOS>SUBSTRUCTURE
     1 RBQ         1

