### 
### Created by X-TOOL on Mon Sep 10 21:13:18 2018
### 

@<TRIPOS>MOLECULE
4uwh_ligand
   54    57     1     0     0
SMALL
GAST_HUCK


@<TRIPOS>ATOM
      1 C1         23.0710  -10.1100  -20.9490 C.ar      1 JXM        -0.0687
      2 C2         21.8600  -10.6990  -20.5360 C.ar      1 JXM        -0.0685
      3 C3         24.0210  -10.8650  -21.6800 C.ar      1 JXM        -0.0685
      4 C4         21.6020  -12.0540  -20.8670 C.ar      1 JXM        -0.0578
      5 C5         23.7710  -12.2230  -22.0130 C.ar      1 JXM        -0.0578
      6 C6         22.5540  -12.8340  -21.6100 C.ar      1 JXM        -0.0127
      7 C7         16.7210  -15.9400  -22.6570 C.2       1 JXM         0.1847
      8 C8         17.4220  -14.7640  -22.5230 C.2       1 JXM         0.3016
      9 C9         17.4300  -17.1920  -23.0780 C.2       1 JXM         0.2773
     10 C10        19.4710  -15.8110  -23.1590 C.cat     1 JXM         0.2073
     11 C11        21.0510  -18.1650  -23.3250 C.3       1 JXM        -0.0006
     12 C12        19.5760  -18.2670  -23.7080 C.3       1 JXM         0.0350
     13 C13        17.6980  -12.3000  -22.0370 C.3       1 JXM         0.0824
     14 C14        15.3840  -13.2410  -22.3810 C.3       1 JXM         0.0824
     15 C15        17.0860  -11.2850  -21.0890 C.3       1 JXM         0.0739
     16 C16        14.8830  -12.1010  -21.4930 C.3       1 JXM         0.0739
     17 C17        21.6610  -16.8540  -23.8650 C.3       1 JXM         0.1353
     18 C18        21.5590  -14.4070  -23.3010 C.3       1 JXM         0.0631
     19 C19        22.3010  -14.2870  -21.9670 C.3       1 JXM         0.1099
     20 C20        21.7480  -16.8460  -25.3860 C.3       1 JXM         0.4133
     21 N21        18.7870  -14.7590  -22.7710 N.pl3     1 JXM        -0.1922
     22 N22        16.8230  -13.5260  -22.1430 N.pl3     1 JXM        -0.2070
     23 N23        18.8170  -17.0610  -23.3040 N.am      1 JXM        -0.2304
     24 N24        20.8520  -15.6990  -23.4310 N.pl3     1 JXM        -0.2927
     25 O25        16.8010  -18.2320  -23.1940 O.2       1 JXM        -0.3388
     26 O26        15.7800  -10.9860  -21.5740 O.3       1 JXM        -0.3747
     27 O27        21.5730  -14.9000  -20.9150 O.3       1 JXM        -0.3771
     28 F28        22.3840  -17.9520  -25.8030 F         1 JXM        -0.1681
     29 F29        20.5420  -16.8330  -26.0050 F         1 JXM        -0.1681
     30 F30        22.4570  -15.7690  -25.8180 F         1 JXM        -0.1681
     31 H          23.2771   -9.0738  -20.7063 H         1 JXM         0.0559
     32 H          21.1343  -10.1240  -19.9723 H         1 JXM         0.0599
     33 H          24.9504  -10.4005  -21.9891 H         1 JXM         0.0599
     34 H          20.6697  -12.5098  -20.5539 H         1 JXM         0.0557
     35 H          24.5059  -12.7905  -22.5723 H         1 JXM         0.0557
     36 H          15.6507  -15.9615  -22.4572 H         1 JXM         0.1586
     37 H          21.5957  -19.0202  -23.7517 H         1 JXM         0.0311
     38 H          21.1423  -18.1820  -22.2289 H         1 JXM         0.0311
     39 H          19.1391  -19.1455  -23.2107 H         1 JXM         0.0516
     40 H          19.4990  -18.3870  -24.7987 H         1 JXM         0.0516
     41 H          18.6885  -12.5948  -21.6602 H         1 JXM         0.0618
     42 H          17.8049  -11.8454  -23.0329 H         1 JXM         0.0618
     43 H          15.2451  -12.9600  -23.4354 H         1 JXM         0.0618
     44 H          14.7996  -14.1470  -22.1629 H         1 JXM         0.0618
     45 H          17.6984  -10.3715  -21.0691 H         1 JXM         0.0586
     46 H          17.0235  -11.7068  -20.0750 H         1 JXM         0.0586
     47 H          14.8272  -12.4486  -20.4509 H         1 JXM         0.0586
     48 H          13.8832  -11.7894  -21.8297 H         1 JXM         0.0586
     49 H          22.6769  -16.7522  -23.4557 H         1 JXM         0.0660
     50 H          22.2868  -14.3172  -24.1209 H         1 JXM         0.0582
     51 H          20.8238  -13.5919  -23.3723 H         1 JXM         0.0582
     52 H          23.2700  -14.7979  -22.0667 H         1 JXM         0.0779
     53 H          19.2968  -13.8733  -22.6426 H         1 JXM         0.2453
     54 H          22.0566  -14.8099  -20.1023 H         1 JXM         0.2131
@<TRIPOS>BOND
     1    2    1 ar 
     2    3    1 ar 
     3    4    2 ar 
     4    5    3 ar 
     5    6    4 ar 
     6    6    5 ar 
     7   19    6 1  
     8    8    7 2  
     9    9    7 1  
    10   21    8 1  
    11    8   22 1  
    12   23    9 am 
    13    9   25 2  
    14   10   21 ar 
    15   10   23 ar 
    16   24   10 ar 
    17   11   12 1  
    18   17   11 1  
    19   23   12 1  
    20   13   15 1  
    21   22   13 1  
    22   14   16 1  
    23   22   14 1  
    24   15   26 1  
    25   16   26 1  
    26   17   20 1  
    27   24   17 1  
    28   18   19 1  
    29   18   24 1  
    30   19   27 1  
    31   20   28 1  
    32   20   29 1  
    33   20   30 1  
    34    1   31 1  
    35    2   32 1  
    36    3   33 1  
    37    4   34 1  
    38    5   35 1  
    39    7   36 1  
    40   11   37 1  
    41   11   38 1  
    42   12   39 1  
    43   12   40 1  
    44   13   41 1  
    45   13   42 1  
    46   14   43 1  
    47   14   44 1  
    48   15   45 1  
    49   15   46 1  
    50   16   47 1  
    51   16   48 1  
    52   17   49 1  
    53   18   50 1  
    54   18   51 1  
    55   19   52 1  
    56   21   53 1  
    57   27   54 1  
@<TRIPOS>SUBSTRUCTURE
     1 JXM         1

