### 
### Created by X-TOOL on Mon Sep 10 21:13:17 2018
### 

@<TRIPOS>MOLECULE
4uwk_ligand
   54    57     1     0     0
SMALL
GAST_HUCK


@<TRIPOS>ATOM
      1 C1         20.6730  -18.3380  -25.4760 C.3       1 UJB         0.1426
      2 C2         18.8020  -17.0550  -24.4420 C.cat     1 UJB         0.2694
      3 N3         18.0450  -18.2130  -24.3920 N.am      1 UJB        -0.2166
      4 N4         20.2220  -17.1360  -24.7560 N.pl3     1 UJB        -0.2659
      5 N5         18.2810  -15.8370  -24.1500 N.pl3     1 UJB        -0.1064
      6 C6         16.6500  -18.1220  -24.0680 C.2       1 UJB         0.2519
      7 C7         18.5760  -19.5550  -24.7550 C.3       1 UJB         0.0395
      8 C8         16.9360  -15.6820  -23.6890 C.2       1 UJB         0.4443
      9 C9         16.1290  -16.8230  -23.6970 C.3       1 UJB         0.2452
     10 O10        16.0330  -19.1720  -24.1220 O.2       1 UJB        -0.3648
     11 C11        20.1010  -19.6290  -24.8650 C.3       1 UJB         0.0018
     12 C12        15.0870  -14.0590  -23.6480 C.3       1 UJB         0.1783
     13 C13        14.6770  -12.9030  -22.7710 C.3       1 UJB         0.1035
     14 O14        15.5550  -11.7830  -22.9190 O.3       1 UJB        -0.3683
     15 C15        16.8970  -12.0770  -22.4940 C.3       1 UJB         0.1035
     16 C16        17.4780  -13.4010  -22.9790 C.3       1 UJB         0.1783
     17 N17        16.5100  -14.4570  -23.4180 N.2       1 UJB        -0.1231
     18 C18        20.4510  -18.2000  -26.9700 C.3       1 UJB         0.4149
     19 F19        19.2360  -17.7650  -27.2810 F         1 UJB        -0.1679
     20 F20        20.6210  -19.3540  -27.6080 F         1 UJB        -0.1679
     21 F21        21.3060  -17.3370  -27.5030 F         1 UJB        -0.1679
     22 S22        22.1450  -15.1980  -21.8220 S.3       1 UJB        -0.0293
     23 C23        21.4610  -15.6510  -23.2790 C.2       1 UJB         0.0374
     24 C24        21.3410  -14.6520  -24.1830 C.2       1 UJB        -0.0779
     25 C25        21.8150  -13.4250  -23.6770 C.2       1 UJB        -0.0787
     26 C26        22.2950  -13.5700  -22.4210 C.2       1 UJB         0.0802
     27 CL         22.9490  -12.2770  -21.5710 Cl        1 UJB        -0.0722
     28 C28        21.0360  -16.9910  -23.5060 C.3       1 UJB         0.0787
     29 C29        14.7640  -13.8190  -25.1170 C.3       1 UJB        -0.0062
     30 C30        18.4450  -13.8680  -21.9060 C.3       1 UJB        -0.0062
     31 H          21.7624  -18.3957  -25.3349 H         1 UJB         0.0680
     32 H          18.8707  -15.0002  -24.2635 H         1 UJB         0.3186
     33 H          18.1477  -19.8420  -25.7267 H         1 UJB         0.0527
     34 H          18.2525  -20.2715  -23.9856 H         1 UJB         0.0527
     35 H          15.7331  -16.9287  -22.6762 H         1 UJB         0.1300
     36 H          15.3021  -16.6119  -24.3910 H         1 UJB         0.1300
     37 H          20.5275  -19.7716  -23.8611 H         1 UJB         0.0313
     38 H          20.3746  -20.4814  -25.5041 H         1 UJB         0.0313
     39 H          14.4733  -14.9171  -23.3365 H         1 UJB         0.1003
     40 H          14.6923  -13.2304  -21.7210 H         1 UJB         0.0618
     41 H          13.6572  -12.5938  -23.0439 H         1 UJB         0.0618
     42 H          16.9066  -12.0883  -21.3941 H         1 UJB         0.0618
     43 H          17.5496  -11.2699  -22.8582 H         1 UJB         0.0618
     44 H          18.0739  -13.1696  -23.8742 H         1 UJB         0.1003
     45 H          20.9276  -14.7804  -25.1823 H         1 UJB         0.0282
     46 H          21.7971  -12.4842  -24.2251 H         1 UJB         0.0385
     47 H          21.9254  -17.6329  -23.5888 H         1 UJB         0.0745
     48 H          20.4271  -17.3168  -22.6498 H         1 UJB         0.0745
     49 H          15.0825  -14.6894  -25.7094 H         1 UJB         0.0286
     50 H          15.2960  -12.9223  -25.4677 H         1 UJB         0.0286
     51 H          13.6803  -13.6720  -25.2349 H         1 UJB         0.0286
     52 H          18.8943  -14.8253  -22.2089 H         1 UJB         0.0286
     53 H          17.9040  -14.0007  -20.9575 H         1 UJB         0.0286
     54 H          19.2374  -13.1165  -21.7742 H         1 UJB         0.0286
@<TRIPOS>BOND
     1    4    1 1  
     2    1   11 1  
     3    1   18 1  
     4    2    3 ar 
     5    4    2 ar 
     6    2    5 ar 
     7    3    6 am 
     8    3    7 1  
     9   28    4 1  
    10    5    8 1  
    11    6    9 1  
    12    6   10 2  
    13   11    7 1  
    14    8    9 1  
    15    8   17 2  
    16   12   13 1  
    17   17   12 1  
    18   12   29 1  
    19   13   14 1  
    20   15   14 1  
    21   16   15 1  
    22   17   16 1  
    23   16   30 1  
    24   18   19 1  
    25   18   20 1  
    26   18   21 1  
    27   23   22 1  
    28   22   26 1  
    29   23   24 2  
    30   23   28 1  
    31   24   25 1  
    32   25   26 2  
    33   26   27 1  
    34    1   31 1  
    35    5   32 1  
    36    7   33 1  
    37    7   34 1  
    38    9   35 1  
    39    9   36 1  
    40   11   37 1  
    41   11   38 1  
    42   12   39 1  
    43   13   40 1  
    44   13   41 1  
    45   15   42 1  
    46   15   43 1  
    47   16   44 1  
    48   24   45 1  
    49   25   46 1  
    50   28   47 1  
    51   28   48 1  
    52   29   49 1  
    53   29   50 1  
    54   29   51 1  
    55   30   52 1  
    56   30   53 1  
    57   30   54 1  
@<TRIPOS>SUBSTRUCTURE
     1 UJB         1

