### 
### Created by X-TOOL on Mon Sep 10 21:13:18 2018
### 

@<TRIPOS>MOLECULE
4uwl_ligand
   54    56     1     0     0
SMALL
GAST_HUCK


@<TRIPOS>ATOM
      1 C1        -30.5910   16.8560   -7.0370 C.3       1 7A5         0.1197
      2 C2        -29.7620   15.7320   -7.1110 C.2       1 7A5         0.1211
      3 N3        -28.4270   15.8450   -6.8820 N.2       1 7A5        -0.2738
      4 C4        -30.0580   18.1380   -6.6640 C.2       1 7A5         0.2075
      5 O5        -30.7170   19.1700   -6.5340 O.2       1 7A5        -0.3916
      6 N6        -28.6760   18.1740   -6.4280 N.am      1 7A5        -0.1950
      7 C7        -27.8930   16.9850   -6.5270 C.cat     1 7A5         0.3116
      8 N8        -26.4520   17.0200   -6.2720 N.pl3     1 7A5        -0.1630
      9 C9        -25.8660   18.2690   -5.7560 C.3       1 7A5         0.2565
     10 C10       -26.5650   19.5040   -6.3360 C.3       1 7A5         0.0425
     11 C11       -28.0760   19.4770   -6.0730 C.3       1 7A5         0.0483
     12 N12       -30.3180   14.4060   -7.4980 N.pl3     1 7A5        -0.2663
     13 C13       -25.8830   18.2900   -4.1650 C.3       1 7A5         0.4565
     14 F14       -27.0980   18.1440   -3.6480 F         1 7A5        -0.1641
     15 F15       -25.1470   17.2910   -3.6970 F         1 7A5        -0.1641
     16 F16       -25.3820   19.4090   -3.6570 F         1 7A5        -0.1641
     17 C17       -29.3560   13.2950   -7.4460 C.3       1 7A5         0.0618
     18 C18       -29.8110   12.1620   -8.3290 C.3       1 7A5         0.0692
     19 O19       -31.1360   11.7380   -8.0030 O.3       1 7A5        -0.3753
     20 C20       -32.1010   12.8140   -8.1190 C.3       1 7A5         0.0717
     21 C21       -31.7540   13.9960   -7.2580 C.3       1 7A5         0.0696
     22 C22       -32.0420   13.7800   -5.7800 C.3       1 7A5        -0.0385
     23 C23       -25.6590   15.8070   -6.3840 C.3       1 7A5         0.2202
     24 C24       -25.3080   15.4640   -7.8170 C.2       1 7A5         0.1757
     25 O25       -25.4940   16.2800   -8.6940 O.2       1 7A5        -0.3841
     26 C26       -24.7400   14.0820   -8.0600 C.3       1 7A5         0.0337
     27 C27       -25.7630   13.2190   -8.7750 C.3       1 7A5        -0.0464
     28 C28       -23.4410   14.1790   -8.8450 C.3       1 7A5        -0.0464
     29 H         -31.3780   16.6184   -6.3062 H         1 7A5         0.0794
     30 H         -31.0410   16.9806   -8.0330 H         1 7A5         0.0794
     31 H         -24.8150   18.3012   -6.0789 H         1 7A5         0.1207
     32 H         -26.3928   19.5339   -7.4220 H         1 7A5         0.0357
     33 H         -26.1386   20.4057   -5.8721 H         1 7A5         0.0357
     34 H         -28.2541   19.6710   -5.0050 H         1 7A5         0.0528
     35 H         -28.5552   20.2642   -6.6736 H         1 7A5         0.0528
     36 H         -29.2735   12.9357   -6.4096 H         1 7A5         0.0559
     37 H         -28.3735   13.6503   -7.7903 H         1 7A5         0.0559
     38 H         -29.1235   11.3127   -8.2021 H         1 7A5         0.0581
     39 H         -29.7913   12.4964   -9.3768 H         1 7A5         0.0581
     40 H         -33.0887   12.4357   -7.8167 H         1 7A5         0.0584
     41 H         -32.1392   13.1416   -9.1684 H         1 7A5         0.0584
     42 H         -32.3924   14.8302   -7.5845 H         1 7A5         0.0592
     43 H         -33.0936   13.4841   -5.6508 H         1 7A5         0.0254
     44 H         -31.8535   14.7134   -5.2294 H         1 7A5         0.0254
     45 H         -31.3873   12.9862   -5.3910 H         1 7A5         0.0254
     46 H         -26.2312   14.9722   -5.9532 H         1 7A5         0.1320
     47 H         -24.7263   15.9435   -5.8170 H         1 7A5         0.1320
     48 H         -24.5192   13.6190   -7.0869 H         1 7A5         0.0526
     49 H         -25.3417   12.2176   -8.9471 H         1 7A5         0.0257
     50 H         -26.0205   13.6793   -9.7403 H         1 7A5         0.0257
     51 H         -26.6683   13.1345   -8.1559 H         1 7A5         0.0257
     52 H         -22.7272   14.8107   -8.2960 H         1 7A5         0.0257
     53 H         -23.6408   14.6234   -9.8312 H         1 7A5         0.0257
     54 H         -23.0154   13.1731   -8.9755 H         1 7A5         0.0257
@<TRIPOS>BOND
     1    1    2 1  
     2    1    4 1  
     3    2    3 2  
     4    2   12 1  
     5    3    7 ar 
     6    4    5 2  
     7    4    6 am 
     8    6    7 ar 
     9    6   11 1  
    10    7    8 ar 
    11    8    9 1  
    12    8   23 1  
    13    9   10 1  
    14    9   13 1  
    15   10   11 1  
    16   12   17 1  
    17   12   21 1  
    18   13   14 1  
    19   13   15 1  
    20   13   16 1  
    21   17   18 1  
    22   18   19 1  
    23   19   20 1  
    24   20   21 1  
    25   21   22 1  
    26   23   24 1  
    27   24   25 2  
    28   24   26 1  
    29   26   27 1  
    30   26   28 1  
    31    1   29 1  
    32    1   30 1  
    33    9   31 1  
    34   10   32 1  
    35   10   33 1  
    36   11   34 1  
    37   11   35 1  
    38   17   36 1  
    39   17   37 1  
    40   18   38 1  
    41   18   39 1  
    42   20   40 1  
    43   20   41 1  
    44   21   42 1  
    45   22   43 1  
    46   22   44 1  
    47   22   45 1  
    48   23   46 1  
    49   23   47 1  
    50   26   48 1  
    51   27   49 1  
    52   27   50 1  
    53   27   51 1  
    54   28   52 1  
    55   28   53 1  
    56   28   54 1  
@<TRIPOS>SUBSTRUCTURE
     1 7A5         1

