### 
### Created by X-TOOL on Mon Sep 10 21:13:21 2018
### 

@<TRIPOS>MOLECULE
4ux4_ligand
   35    37     1     0     0
SMALL
GAST_HUCK


@<TRIPOS>ATOM
      1 C01       -39.0360  -10.4270    6.3270 C.3       1 E9L        -0.0289
      2 C02       -39.0120  -10.7140    7.8100 C.ar      1 E9L        -0.0415
      3 C03       -38.5370   -9.7740    8.7610 C.ar      1 E9L        -0.0553
      4 C04       -38.5170  -10.0920   10.1150 C.ar      1 E9L        -0.0520
      5 C05       -38.9600  -11.3390   10.5560 C.ar      1 E9L         0.0161
      6 C06       -39.4740  -12.2910    9.5790 C.ar      1 E9L        -0.0520
      7 C07       -39.4730  -11.9770    8.2660 C.ar      1 E9L        -0.0553
      8 C08       -39.0060  -11.6470   12.0600 C.2       1 E9L         0.0925
      9 C09       -39.9150  -12.6740   12.5750 C.2       1 E9L        -0.0140
     10 C10       -39.9870  -12.9360   14.0640 C.2       1 E9L         0.0365
     11 C11       -39.2090  -12.1600   14.9410 C.2       1 E9L         0.0277
     12 C12       -39.2760  -12.3670   16.3510 C.2       1 E9L        -0.0942
     13 C13       -40.1560  -13.3370   16.7960 C.2       1 E9L        -0.0846
     14 C14       -40.9080  -14.1050   15.9010 C.3       1 E9L         0.0438
     15 N15       -40.8020  -13.8850   14.5320 N.pl3     1 E9L        -0.3027
     16 C16       -41.6680  -14.7060   13.6470 C.3       1 E9L         0.0198
     17 C17       -38.2700  -11.1140   14.3880 C.2       1 E9L         0.1913
     18 O18       -37.5230  -10.4440   15.1070 O.2       1 E9L        -0.4220
     19 N19       -38.2520  -10.8740   12.9500 N.am      1 E9L        -0.2267
     20 H1        -38.6492   -9.4138    6.1433 H         1 E9L         0.0402
     21 H2        -40.0693  -10.4977    5.9565 H         1 E9L         0.0402
     22 H3        -38.4070  -11.1605    5.8013 H         1 E9L         0.0402
     23 H4        -38.1877   -8.8025    8.4304 H         1 E9L         0.0570
     24 H5        -38.1544   -9.3652   10.8329 H         1 E9L         0.0642
     25 H6        -39.8569  -13.2507    9.9067 H         1 E9L         0.0642
     26 H7        -39.8313  -12.7035    7.5457 H         1 E9L         0.0570
     27 H8        -40.5368  -13.2470   11.8888 H         1 E9L         0.0361
     28 H9        -38.6644  -11.7897   17.0429 H         1 E9L         0.0372
     29 H10       -40.2657  -13.5064   17.8662 H         1 E9L         0.0427
     30 H11       -41.9652  -13.9548   16.1651 H         1 E9L         0.0649
     31 H12       -40.6322  -15.1555   16.0754 H         1 E9L         0.0649
     32 H13       -41.4844  -14.4319   12.5976 H         1 E9L         0.0487
     33 H14       -42.7240  -14.5225   13.8945 H         1 E9L         0.0487
     34 H15       -41.4368  -15.7714   13.7935 H         1 E9L         0.0487
     35 H16       -37.6837  -10.1347   12.5888 H         1 E9L         0.2468
@<TRIPOS>BOND
     1    1    2 1  
     2    2    3 ar 
     3    2    7 ar 
     4    3    4 ar 
     5    4    5 ar 
     6    5    6 ar 
     7    5    8 1  
     8    6    7 ar 
     9    8    9 2  
    10    8   19 1  
    11    9   10 1  
    12   10   11 2  
    13   10   15 1  
    14   11   12 1  
    15   11   17 1  
    16   12   13 2  
    17   13   14 1  
    18   14   15 1  
    19   15   16 1  
    20   17   18 2  
    21   17   19 am 
    22    1   20 1  
    23    1   21 1  
    24    1   22 1  
    25    3   23 1  
    26    4   24 1  
    27    6   25 1  
    28    7   26 1  
    29    9   27 1  
    30   12   28 1  
    31   13   29 1  
    32   14   30 1  
    33   14   31 1  
    34   16   32 1  
    35   16   33 1  
    36   16   34 1  
    37   19   35 1  
@<TRIPOS>SUBSTRUCTURE
     1 E9L         1

