### 
### Created by X-TOOL on Mon Sep 10 21:13:20 2018
### 

@<TRIPOS>MOLECULE
4ux6_ligand
   44    45     1     0     0
SMALL
GAST_HUCK


@<TRIPOS>ATOM
      1 C1         19.1080   69.8170   21.1080 C.ar      1 YWO         0.0275
      2 N1         20.1800   67.7170   22.0680 N.2       1 YWO        -0.1837
      3 O1         21.0980   69.3640   24.1530 O.3       1 YWO        -0.0906
      4 C2         19.8730   69.2130   22.1150 C.ar      1 YWO         0.1982
      5 N2         22.2090   70.7240   30.3550 N.4       1 YWO         0.2307
      6 O2         19.8200   67.1220   21.0140 O.2       1 YWO        -0.4777
      7 C3         20.3700   70.0020   23.1960 C.ar      1 YWO         0.2918
      8 N3         24.7000   73.4100   30.6720 N.4       1 YWO         0.2453
      9 O3         20.7820   67.1470   23.0450 O.2       1 YWO        -0.4777
     10 C4         20.0930   71.4240   23.2520 C.ar      1 YWO         0.0589
     11 O4         24.7520   71.2280   31.3150 O.3       1 YWO        -0.3475
     12 C5         19.3390   72.0130   22.2450 C.ar      1 YWO         0.0142
     13 C6         18.8430   71.2360   21.1840 C.ar      1 YWO         0.0019
     14 C7         21.8010   69.9440   25.1880 C.ar      1 YWO         0.2974
     15 C8         21.3020   69.6690   26.4300 C.ar      1 YWO         0.0908
     16 C9         21.9860   70.1710   27.6020 C.ar      1 YWO         0.0410
     17 C10        23.1840   70.9540   27.4280 C.ar      1 YWO         0.0655
     18 C11        23.6870   71.2540   26.1130 C.ar      1 YWO         0.0410
     19 C12        22.9940   70.7540   24.9750 C.ar      1 YWO         0.0908
     20 C13        19.0570   73.4260   22.2860 C.3       1 YWO        -0.0154
     21 C14        23.9500   71.4470   28.6600 C.3       1 YWO         0.0824
     22 C15        23.1030   71.8410   29.8970 C.3       1 YWO         0.0722
     23 C16        24.0450   72.2380   31.0190 C.3       1 YWO         0.1273
     24 H          18.7206   69.2286   20.2841 H         1 YWO         0.0846
     25 H          21.5857   70.4642   29.6066 H         1 YWO         0.2004
     26 H          21.6702   71.0294   31.1503 H         1 YWO         0.2004
     27 H          22.7712   69.9289   30.6153 H         1 YWO         0.2004
     28 H          24.0210   74.1251   30.4629 H         1 YWO         0.2023
     29 H          25.2756   73.2458   29.8610 H         1 YWO         0.2023
     30 H          25.2794   73.7111   31.4399 H         1 YWO         0.2023
     31 H          20.4711   72.0226   24.0729 H         1 YWO         0.0838
     32 H          24.1842   70.4979   31.5315 H         1 YWO         0.2156
     33 H          18.2512   71.7093   20.4089 H         1 YWO         0.1046
     34 H          20.3993   69.0784   26.5365 H         1 YWO         0.1116
     35 H          21.6040   69.9618   28.5946 H         1 YWO         0.0933
     36 H          24.5822   71.8531   25.9911 H         1 YWO         0.0933
     37 H          23.3453   70.9706   23.9726 H         1 YWO         0.1116
     38 H          19.5217   73.8668   23.1803 H         1 YWO         0.0435
     39 H          17.9688   73.5818   22.3237 H         1 YWO         0.0435
     40 H          19.4654   73.9077   21.3854 H         1 YWO         0.0435
     41 H          24.5310   72.3312   28.3590 H         1 YWO         0.0769
     42 H          24.6364   70.6447   28.9684 H         1 YWO         0.0769
     43 H          22.4735   72.7033   29.6322 H         1 YWO         0.0999
     44 H          23.4431   72.4715   31.9096 H         1 YWO         0.1247
@<TRIPOS>BOND
     1    4    1 ar 
     2    1   13 ar 
     3    4    2 1  
     4    2    6 2  
     5    2    9 2  
     6    3    7 1  
     7   14    3 1  
     8    7    4 ar 
     9   22    5 1  
    10    7   10 ar 
    11   23    8 1  
    12   10   12 ar 
    13   23   11 1  
    14   12   13 ar 
    15   12   20 1  
    16   15   14 ar 
    17   19   14 ar 
    18   16   15 ar 
    19   17   16 ar 
    20   17   18 ar 
    21   21   17 1  
    22   18   19 ar 
    23   22   21 1  
    24   22   23 1  
    25    1   24 1  
    26    5   25 1  
    27    5   26 1  
    28    5   27 1  
    29    8   28 1  
    30    8   29 1  
    31    8   30 1  
    32   10   31 1  
    33   11   32 1  
    34   13   33 1  
    35   15   34 1  
    36   16   35 1  
    37   18   36 1  
    38   19   37 1  
    39   20   38 1  
    40   20   39 1  
    41   20   40 1  
    42   21   41 1  
    43   21   42 1  
    44   22   43 1  
    45   23   44 1  
@<TRIPOS>SUBSTRUCTURE
     1 YWO         1

