### 
### Created by X-TOOL on Mon Sep 10 21:13:25 2018
### 

@<TRIPOS>MOLECULE
4uxb_ligand
   40    42     1     0     0
SMALL
GAST_HUCK


@<TRIPOS>ATOM
      1 CAA        14.0910   22.3580   28.5250 C.3       1 P34        -0.0415
      2 N          13.6630   21.4210   27.4910 N.4       1 P34         0.2481
      3 CAB        13.4510   20.0270   27.8500 C.3       1 P34        -0.0415
      4 CA         13.4510   21.8720   26.1150 C.3       1 P34         0.0626
      5 C          12.1600   22.6600   25.9700 C.2       1 P34         0.2455
      6 O          12.1280   23.6850   25.3010 O.2       1 P34        -0.3808
      7 NAM        11.0820   22.1450   26.5700 N.am      1 P34        -0.2372
      8 CAP        10.3060   22.7750   27.4900 C.ar      1 P34         0.0545
      9 CAK        10.3620   22.3610   28.8280 C.ar      1 P34        -0.0434
     10 CAU         9.4810   22.9110   29.7670 C.ar      1 P34        -0.0020
     11 CAT         9.5190   22.5700   31.2240 C.ar      1 P34        -0.0079
     12 CAI        10.4800   21.7090   31.7640 C.ar      1 P34        -0.0530
     13 CAF        10.4430   21.3890   33.1230 C.ar      1 P34        -0.0599
     14 CAE         9.4920   21.9810   33.9580 C.ar      1 P34        -0.0588
     15 CAH         8.5530   22.8690   33.4320 C.ar      1 P34        -0.0442
     16 CAS         8.5630   23.1590   32.0630 C.ar      1 P34         0.0572
     17 CAQ         7.5650   24.1150   31.4830 C.2       1 P34         0.2237
     18 OAD         6.7160   24.6450   32.2300 O.2       1 P34        -0.3870
     19 NAN         7.5590   24.4110   30.1680 N.am      1 P34        -0.2368
     20 CAR         8.4450   23.8910   29.3030 C.ar      1 P34         0.0685
     21 CAJ         8.3870   24.2360   27.9530 C.ar      1 P34        -0.0471
     22 CAG         9.3000   23.6590   27.0600 C.ar      1 P34        -0.0498
     23 H1         14.1926   21.8261   29.4825 H         1 P34         0.0778
     24 H2         13.3428   23.1578   28.6275 H         1 P34         0.0778
     25 H3         15.0601   22.7962   28.2444 H         1 P34         0.0778
     26 H4         12.6988   21.6251   27.7025 H         1 P34         0.2047
     27 H5         13.1336   19.4634   26.9602 H         1 P34         0.0778
     28 H6         12.6709   19.9619   28.6228 H         1 P34         0.0778
     29 H7         14.3882   19.6017   28.2383 H         1 P34         0.0778
     30 H8         13.4071   20.9929   25.4553 H         1 P34         0.1067
     31 H9         14.2940   22.5125   25.8167 H         1 P34         0.1067
     32 H10        10.8236   21.2121   26.3190 H         1 P34         0.2212
     33 H11        11.0867   21.6158   29.1354 H         1 P34         0.0468
     34 H12        11.2523   21.2907   31.1287 H         1 P34         0.0613
     35 H13        11.1539   20.6796   33.5309 H         1 P34         0.0643
     36 H14         9.4836   21.7499   35.0170 H         1 P34         0.0608
     37 H15         7.8188   23.3323   34.0811 H         1 P34         0.0661
     38 H16         6.8663   25.0439   29.8222 H         1 P34         0.2277
     39 H17         7.6446   24.9420   27.5987 H         1 P34         0.0486
     40 H18         9.2287   23.9013   26.0058 H         1 P34         0.0494
@<TRIPOS>BOND
     1    1    2 1  
     2    2    3 1  
     3    2    4 1  
     4    4    5 1  
     5    5    6 2  
     6    5    7 am 
     7    7    8 1  
     8    8    9 ar 
     9    8   22 ar 
    10    9   10 ar 
    11   10   11 1  
    12   10   20 ar 
    13   11   12 ar 
    14   11   16 ar 
    15   12   13 ar 
    16   13   14 ar 
    17   14   15 ar 
    18   15   16 ar 
    19   16   17 1  
    20   17   18 2  
    21   17   19 am 
    22   19   20 1  
    23   20   21 ar 
    24   21   22 ar 
    25    1   23 1  
    26    1   24 1  
    27    1   25 1  
    28    2   26 1  
    29    3   27 1  
    30    3   28 1  
    31    3   29 1  
    32    4   30 1  
    33    4   31 1  
    34    7   32 1  
    35    9   33 1  
    36   12   34 1  
    37   13   35 1  
    38   14   36 1  
    39   15   37 1  
    40   19   38 1  
    41   21   39 1  
    42   22   40 1  
@<TRIPOS>SUBSTRUCTURE
     1 P34         1

