### 
### Created by X-TOOL on Mon Sep 10 21:13:25 2018
### 

@<TRIPOS>MOLECULE
4uxl_ligand
   49    52     1     0     0
SMALL
GAST_HUCK


@<TRIPOS>ATOM
      1 C23        47.0900  -19.0200   -5.8250 C.1       1 5P8         0.1148
      2 C12        39.6680  -19.3730   -2.3630 C.ar      1 5P8        -0.0500
      3 C13        38.7270  -18.3180   -2.5260 C.ar      1 5P8        -0.0292
      4 C6         42.5860  -19.6380   -5.9930 C.ar      1 5P8        -0.0203
      5 C15        38.5090  -18.8770   -4.9030 C.ar      1 5P8        -0.0180
      6 C4         44.0990  -18.0200   -6.9560 C.ar      1 5P8        -0.0103
      7 C19        46.1990  -19.3000   -4.7610 C.2       1 5P8         0.2054
      8 C5         43.8320  -18.9690   -5.9170 C.ar      1 5P8        -0.0168
      9 C18        44.7910  -19.2860   -4.7630 C.2       1 5P8         0.0434
     10 C11        40.0550  -20.2110   -3.4660 C.ar      1 5P8         0.0502
     11 C10        39.4610  -19.9590   -4.7770 C.ar      1 5P8         0.0084
     12 C1         41.6380  -19.3800   -7.0450 C.ar      1 5P8         0.1397
     13 C14        38.1390  -18.0630   -3.7960 C.ar      1 5P8         0.1312
     14 C22        44.4500  -19.6560   -3.3590 C.2       1 5P8         0.0649
     15 C2         42.0350  -18.4160   -8.0110 C.ar      1 5P8         0.1407
     16 C27        41.0410  -21.3210   -3.2130 C.2       1 5P8         0.2011
     17 C28        43.0670  -19.8090   -2.7030 C.3       1 5P8         0.0758
     18 C8         39.7790  -20.8070   -6.0520 C.3       1 5P8         0.1138
     19 C9         38.4740  -21.3880   -6.6120 C.3       1 5P8        -0.0234
     20 C25        47.9240  -19.7900   -2.9680 C.3       1 5P8         0.0605
     21 C29        43.2410  -22.3140   -2.6420 C.3       1 5P8         0.0239
     22 N24        47.8180  -18.7620   -6.6960 N.1       1 5P8        -0.3433
     23 N3         43.2290  -17.7530   -7.9740 N.ar      1 5P8        -0.2959
     24 N21        45.5310  -19.8450   -2.6920 N.2       1 5P8        -0.1979
     25 N20        46.5490  -19.6540   -3.4450 N.pl3     1 5P8        -0.1869
     26 N26        42.3790  -21.1320   -2.8740 N.am      1 5P8        -0.2661
     27 N17        41.1630  -18.1170   -9.0750 N.pl3     1 5P8        -0.3246
     28 O30        40.5840  -22.4760   -3.3230 O.2       1 5P8        -0.3901
     29 O7         40.3990  -20.0190   -7.1580 O.3       1 5P8        -0.2995
     30 F16        37.2500  -17.0780   -3.9480 F         1 5P8        -0.1813
     31 H1         40.1028  -19.5490   -1.3857 H         1 5P8         0.0642
     32 H2         38.4560  -17.7034   -1.6752 H         1 5P8         0.0560
     33 H3         42.3377  -20.3696   -5.2327 H         1 5P8         0.0593
     34 H4         38.0634  -18.6801   -5.8714 H         1 5P8         0.0555
     35 H5         45.0417  -17.4854   -6.9330 H         1 5P8         0.0676
     36 H6         42.4102  -19.0352   -3.1271 H         1 5P8         0.0679
     37 H7         43.1895  -19.6348   -1.6238 H         1 5P8         0.0679
     38 H8         40.4604  -21.6222   -5.7672 H         1 5P8         0.0823
     39 H9         38.6938  -21.9853   -7.5092 H         1 5P8         0.0282
     40 H10        37.7909  -20.5673   -6.8762 H         1 5P8         0.0282
     41 H11        38.0017  -22.0280   -5.8522 H         1 5P8         0.0282
     42 H12        47.9170  -20.0741   -1.9053 H         1 5P8         0.0601
     43 H13        48.4502  -18.8315   -3.0878 H         1 5P8         0.0601
     44 H14        48.4395  -20.5668   -3.5518 H         1 5P8         0.0601
     45 H15        42.6525  -23.2316   -2.7896 H         1 5P8         0.0487
     46 H16        43.6288  -22.2887   -1.6130 H         1 5P8         0.0487
     47 H17        44.0817  -22.2996   -3.3512 H         1 5P8         0.0487
     48 H18        41.4351  -17.4209   -9.7838 H         1 5P8         0.1741
     49 H19        40.2529  -18.5943   -9.1447 H         1 5P8         0.1741
@<TRIPOS>BOND
     1    7    1 1  
     2    1   22 3  
     3    2    3 ar 
     4   10    2 ar 
     5    3   13 ar 
     6    8    4 ar 
     7    4   12 ar 
     8   11    5 ar 
     9    5   13 ar 
    10    8    6 ar 
    11    6   23 ar 
    12    9    7 2  
    13    7   25 1  
    14    9    8 1  
    15   14    9 1  
    16   10   11 ar 
    17   16   10 1  
    18   11   18 1  
    19   12   15 ar 
    20   12   29 1  
    21   13   30 1  
    22   17   14 1  
    23   14   24 2  
    24   23   15 ar 
    25   15   27 1  
    26   26   16 am 
    27   16   28 2  
    28   17   26 1  
    29   18   19 1  
    30   18   29 1  
    31   25   20 1  
    32   26   21 1  
    33   24   25 1  
    34    2   31 1  
    35    3   32 1  
    36    4   33 1  
    37    5   34 1  
    38    6   35 1  
    39   17   36 1  
    40   17   37 1  
    41   18   38 1  
    42   19   39 1  
    43   19   40 1  
    44   19   41 1  
    45   20   42 1  
    46   20   43 1  
    47   20   44 1  
    48   21   45 1  
    49   21   46 1  
    50   21   47 1  
    51   27   48 1  
    52   27   49 1  
@<TRIPOS>SUBSTRUCTURE
     1 5P8         1

