### 
### Created by X-TOOL on Mon Sep 10 21:13:19 2018
### 

@<TRIPOS>MOLECULE
4uxq_ligand
   68    72     1     0     0
SMALL
GAST_HUCK


@<TRIPOS>ATOM
      1 N1          2.9280   -0.9870    6.5170 N.2       1 0LI        -0.3247
      2 N3         -1.1290   -3.2240   21.9190 N.4       1 0LI         0.2588
      3 C4          1.3100   -3.7980   10.0600 C.1       1 0LI        -0.0766
      4 C5          0.5840   -4.4930   11.0730 C.ar      1 0LI         0.0257
      5 C6         -0.1620   -5.6410   10.8280 C.ar      1 0LI        -0.0273
      6 C7         -0.8450   -6.2510   11.8660 C.ar      1 0LI        -0.0547
      7 C8         -0.7580   -5.7500   13.1510 C.ar      1 0LI        -0.0494
      8 C10         0.6510   -3.9710   12.3460 C.ar      1 0LI        -0.0347
      9 C13        -0.9380   -3.8660   16.9090 C.ar      1 0LI         0.0879
     10 C15        -1.3280   -4.2080   19.2150 C.ar      1 0LI        -0.0316
     11 C17        -1.1570   -1.9670   18.3820 C.ar      1 0LI         0.0386
     12 C20        -1.5710   -2.3360   20.8320 C.3       1 0LI         0.0130
     13 C21         0.3010   -3.0080   22.2200 C.3       1 0LI         0.0114
     14 C22         0.6500   -4.0100   23.2870 C.3       1 0LI         0.0092
     15 C24        -2.1180   -3.1550   23.0330 C.3       1 0LI         0.0114
     16 C81         5.3440   -1.4890    6.3130 C.2       1 0LI         0.0052
     17 C82         6.3430   -2.2080    6.8350 C.2       1 0LI        -0.0245
     18 C83         5.9620   -3.0930    7.9470 C.2       1 0LI         0.0552
     19 N81         4.7760   -3.2550    8.4480 N.2       1 0LI        -0.1413
     20 N82         3.8590   -2.4990    7.8560 N.pl3     1 0LI        -0.1187
     21 C84         4.0460   -1.6050    6.8380 C.2       1 0LI         0.1691
     22 C1          1.9840   -1.5000    7.3660 C.2       1 0LI        -0.0017
     23 C2          2.5460   -2.4440    8.1990 C.2       1 0LI         0.1589
     24 C3          1.9040   -3.2000    9.2090 C.1       1 0LI        -0.0467
     25 C9         -0.0100   -4.6100   13.3690 C.ar      1 0LI         0.0483
     26 C11        -0.2300   -6.2350    9.4570 C.3       1 0LI        -0.0278
     27 C12         0.0990   -3.9680   14.6820 C.2       1 0LI         0.2262
     28 O1          0.9150   -3.0650   14.7990 O.2       1 0LI        -0.3767
     29 N2         -0.7730   -4.4400   15.6350 N.am      1 0LI        -0.2315
     30 C14        -1.1070   -4.7320   17.9640 C.ar      1 0LI        -0.0148
     31 C16        -1.3510   -2.8420   19.4390 C.ar      1 0LI         0.0246
     32 C18        -0.9660   -2.4990   17.1180 C.ar      1 0LI        -0.0202
     33 C19        -1.1670   -0.4690   18.5630 C.3       1 0LI         0.3645
     34 F1         -0.9870    0.1800   17.3880 F         1 0LI        -0.2292
     35 F2         -2.2980    0.0510   19.1430 F         1 0LI        -0.2292
     36 F3         -0.1470   -0.0270   19.3390 F         1 0LI        -0.2292
     37 C23        -1.6400   -3.9270   24.2580 C.3       1 0LI         0.0092
     38 C25         0.3200   -4.3240   25.6810 C.3       1 0LI        -0.0427
     39 N4         -0.1920   -3.6560   24.4640 N.4       1 0LI         0.2405
     40 H          -1.1840   -4.1681   21.5703 H         1 0LI         0.2058
     41 H          -1.4520   -7.1274   11.6697 H         1 0LI         0.0565
     42 H          -1.2670   -6.2423   13.9717 H         1 0LI         0.0639
     43 H           1.2179   -3.0675   12.5392 H         1 0LI         0.0649
     44 H          -1.4886   -4.8821   20.0486 H         1 0LI         0.0616
     45 H          -1.0289   -1.3843   20.9337 H         1 0LI         0.1043
     46 H          -2.6492   -2.1593   20.9593 H         1 0LI         0.1043
     47 H           0.4650   -1.9842   22.5874 H         1 0LI         0.0868
     48 H           0.9117   -3.1772   21.3209 H         1 0LI         0.0868
     49 H           1.7172   -3.9403   23.5442 H         1 0LI         0.0868
     50 H           0.4211   -5.0300   22.9448 H         1 0LI         0.0868
     51 H          -3.0714   -3.5838   22.6908 H         1 0LI         0.0868
     52 H          -2.2687   -2.1016   23.3116 H         1 0LI         0.0868
     53 H           5.5364   -0.8134    5.4808 H         1 0LI         0.0752
     54 H           7.3648   -2.1433    6.4640 H         1 0LI         0.0701
     55 H           6.7631   -3.6759    8.3991 H         1 0LI         0.0937
     56 H           0.9362   -1.2038    7.3811 H         1 0LI         0.0575
     57 H           0.3668   -5.6249    8.7631 H         1 0LI         0.0404
     58 H          -1.2764   -6.2574    9.1185 H         1 0LI         0.0404
     59 H           0.1696   -7.2596    9.4810 H         1 0LI         0.0404
     60 H          -1.3250   -5.2424   15.4080 H         1 0LI         0.2238
     61 H          -1.0667   -5.8045   17.8120 H         1 0LI         0.0763
     62 H          -0.8357   -1.8303   16.2748 H         1 0LI         0.0655
     63 H          -1.7949   -5.0044   24.0991 H         1 0LI         0.0868
     64 H          -2.2060   -3.6018   25.1434 H         1 0LI         0.0868
     65 H           1.3906   -4.1007   25.7989 H         1 0LI         0.0778
     66 H           0.1802   -5.4112   25.5889 H         1 0LI         0.0778
     67 H          -0.2301   -3.9567   26.5599 H         1 0LI         0.0778
     68 H          -0.0994   -2.6622   24.6047 H         1 0LI         0.2035
@<TRIPOS>BOND
     1    1   21 2  
     2   22    1 1  
     3   12    2 1  
     4    2   13 1  
     5    2   15 1  
     6    4    3 1  
     7    3   24 3  
     8    4    5 ar 
     9    8    4 ar 
    10    6    5 ar 
    11    5   26 1  
    12    7    6 ar 
    13   25    7 ar 
    14   25    8 ar 
    15   29    9 1  
    16    9   30 ar 
    17    9   32 ar 
    18   30   10 ar 
    19   10   31 ar 
    20   11   31 ar 
    21   32   11 ar 
    22   11   33 1  
    23   31   12 1  
    24   13   14 1  
    25   14   39 1  
    26   15   37 1  
    27   16   17 2  
    28   21   16 1  
    29   18   17 1  
    30   19   18 2  
    31   20   19 1  
    32   20   21 1  
    33   23   20 1  
    34   23   22 2  
    35   24   23 1  
    36   27   25 1  
    37   27   28 2  
    38   27   29 am 
    39   33   34 1  
    40   33   35 1  
    41   33   36 1  
    42   37   39 1  
    43   39   38 1  
    44    2   40 1  
    45    6   41 1  
    46    7   42 1  
    47    8   43 1  
    48   10   44 1  
    49   12   45 1  
    50   12   46 1  
    51   13   47 1  
    52   13   48 1  
    53   14   49 1  
    54   14   50 1  
    55   15   51 1  
    56   15   52 1  
    57   16   53 1  
    58   17   54 1  
    59   18   55 1  
    60   22   56 1  
    61   26   57 1  
    62   26   58 1  
    63   26   59 1  
    64   29   60 1  
    65   30   61 1  
    66   32   62 1  
    67   37   63 1  
    68   37   64 1  
    69   38   65 1  
    70   38   66 1  
    71   38   67 1  
    72   39   68 1  
@<TRIPOS>SUBSTRUCTURE
     1 0LI         1

