### 
### Created by X-TOOL on Mon Sep 10 21:13:18 2018
### 

@<TRIPOS>MOLECULE
4uy1_ligand
   26    27     1     0     0
SMALL
GAST_HUCK


@<TRIPOS>ATOM
      1 C1          0.0720   -4.5100   -3.6340 C.3       1 TJM        -0.0243
      2 C2          0.4990   -3.9360   -2.3460 C.2       1 TJM         0.0031
      3 C3         -0.3070   -3.4180   -1.3600 C.2       1 TJM        -0.0809
      4 C4          0.4200   -2.9370   -0.2360 C.2       1 TJM        -0.0142
      5 C5          1.7860   -3.0950   -0.3630 C.2       1 TJM         0.0217
      6 C6          2.8280   -2.7160    0.5940 C.3       1 TJM        -0.0185
      7 S7          2.1600   -3.8190   -1.8920 S.3       1 TJM        -0.0305
      8 C8         -0.3080   -2.3550    0.8660 C.2       1 TJM         0.0661
      9 C9          0.0830   -1.2250    1.6350 C.2       1 TJM        -0.0345
     10 C10        -0.9630   -1.0610    2.5220 C.2       1 TJM         0.0984
     11 N11        -1.8540   -2.0550    2.2280 N.2       1 TJM        -0.2046
     12 N12        -1.4910   -2.8590    1.2210 N.pl3     1 TJM        -0.2194
     13 C13        -1.2300   -0.1270    3.5650 C.2       1 TJM         0.2057
     14 O14        -2.1280   -0.3330    4.3550 O.2       1 TJM        -0.3856
     15 N15        -0.4300    0.9960    3.6120 N.am      1 TJM        -0.3001
     16 H          -1.0254   -4.4800   -3.7029 H         1 TJM         0.0396
     17 H           0.4153   -5.5528   -3.7026 H         1 TJM         0.0396
     18 H           0.5072   -3.9257   -4.4581 H         1 TJM         0.0396
     19 H          -1.3929   -3.3798   -1.4323 H         1 TJM         0.0247
     20 H           3.8146   -2.9802    0.1856 H         1 TJM         0.0423
     21 H           2.6681   -3.2515    1.5414 H         1 TJM         0.0423
     22 H           2.7840   -1.6317    0.7737 H         1 TJM         0.0423
     23 H           0.9910   -0.6303    1.5459 H         1 TJM         0.0314
     24 H          -1.9967   -3.6626    0.8217 H         1 TJM         0.2540
     25 H          -0.5746    1.6834    4.3237 H         1 TJM         0.1809
     26 H           0.2944    1.1226    2.9344 H         1 TJM         0.1809
@<TRIPOS>BOND
     1    1    2 1  
     2    2    3 2  
     3    2    7 1  
     4    3    4 1  
     5    4    5 2  
     6    4    8 1  
     7    5    6 1  
     8    5    7 1  
     9    8    9 2  
    10    8   12 1  
    11    9   10 1  
    12   10   11 2  
    13   10   13 1  
    14   11   12 1  
    15   13   14 2  
    16   13   15 am 
    17    1   16 1  
    18    1   17 1  
    19    1   18 1  
    20    3   19 1  
    21    6   20 1  
    22    6   21 1  
    23    6   22 1  
    24    9   23 1  
    25   12   24 1  
    26   15   25 1  
    27   15   26 1  
@<TRIPOS>SUBSTRUCTURE
     1 TJM         1

