### 
### Created by X-TOOL on Mon Sep 10 21:13:17 2018
### 

@<TRIPOS>MOLECULE
4uyd_ligand
   26    27     1     0     0
SMALL
GAST_HUCK


@<TRIPOS>ATOM
      1 C01        22.8660   50.8540   -1.9700 C.3       1 V1T         0.0454
      2 N05        23.7930   50.2860   -0.9990 N.am      1 V1T        -0.2056
      3 C06        25.1080   50.6870   -0.7900 C.ar      1 V1T         0.0998
      4 C07        25.8740   51.6750   -1.3870 C.ar      1 V1T        -0.0465
      5 C09        27.1790   51.8510   -0.9560 C.ar      1 V1T        -0.0699
      6 C11        27.7280   51.0480    0.0490 C.ar      1 V1T         0.0208
      7 C12        26.9460   50.0560    0.6540 C.ar      1 V1T        -0.0334
      8 C14        25.6390   49.8860    0.2120 C.ar      1 V1T         0.0999
      9 N15        24.6240   49.0000    0.5950 N.am      1 V1T        -0.2077
     10 C16        24.7280   47.9630    1.6210 C.3       1 V1T         0.0441
     11 C20        23.4910   49.2380   -0.1570 C.2       1 V1T         0.3136
     12 O21        22.4210   48.6550   -0.0740 O.2       1 V1T        -0.3941
     13 C22        29.1450   51.2630    0.5130 C.2       1 V1T         0.1878
     14 N23        29.9240   52.0770   -0.1960 N.am      1 V1T        -0.3025
     15 O26        29.5400   50.7120    1.5480 O.2       1 V1T        -0.3920
     16 H          23.3587   51.6761   -2.5098 H         1 V1T         0.0553
     17 H          21.9778   51.2388   -1.4475 H         1 V1T         0.0553
     18 H          22.5620   50.0758   -2.6855 H         1 V1T         0.0553
     19 H          25.4616   52.2964   -2.1737 H         1 V1T         0.0476
     20 H          27.7869   52.6270   -1.4070 H         1 V1T         0.0508
     21 H          27.3496   49.4366    1.4467 H         1 V1T         0.0508
     22 H          25.7335   47.9874    2.0663 H         1 V1T         0.0549
     23 H          24.5527   46.9773    1.1652 H         1 V1T         0.0549
     24 H          23.9761   48.1443    2.4032 H         1 V1T         0.0549
     25 H          30.8690   52.2383    0.0886 H         1 V1T         0.1804
     26 H          29.5642   52.5272   -1.0132 H         1 V1T         0.1804
@<TRIPOS>BOND
     1    1    2 1  
     2    2    3 1  
     3    2   11 am 
     4    3    4 ar 
     5    3    8 ar 
     6    4    5 ar 
     7    5    6 ar 
     8    6    7 ar 
     9    6   13 1  
    10    7    8 ar 
    11    8    9 1  
    12    9   10 1  
    13    9   11 am 
    14   11   12 2  
    15   13   14 am 
    16   13   15 2  
    17    1   16 1  
    18    1   17 1  
    19    1   18 1  
    20    4   19 1  
    21    5   20 1  
    22    7   21 1  
    23   10   22 1  
    24   10   23 1  
    25   10   24 1  
    26   14   25 1  
    27   14   26 1  
@<TRIPOS>SUBSTRUCTURE
     1 V1T         1

