### 
### Created by X-TOOL on Mon Sep 10 21:13:17 2018
### 

@<TRIPOS>MOLECULE
4uye_ligand
   55    58     1     0     0
SMALL
GAST_HUCK


@<TRIPOS>ATOM
      1 C01        10.2030   44.6420   22.1400 C.3       1 9F9         0.0611
      2 O05         9.1160   43.8890   21.5880 O.3       1 9F9        -0.3158
      3 C06         9.1220   42.5390   21.7890 C.ar      1 9F9         0.1126
      4 C07        10.0840   41.9210   22.5760 C.ar      1 9F9        -0.0269
      5 C09        10.0400   40.5500   22.7520 C.ar      1 9F9        -0.0662
      6 C11         9.0500   39.8070   22.1510 C.ar      1 9F9        -0.0672
      7 C13         8.0920   40.4110   21.3620 C.ar      1 9F9        -0.0500
      8 C15         8.1070   41.7950   21.1600 C.ar      1 9F9         0.0830
      9 C16         6.9940   42.3110   20.2830 C.2       1 9F9         0.2199
     10 O17         6.3110   41.5670   19.5970 O.2       1 9F9        -0.3829
     11 N18         6.8050   43.6480   20.2820 N.am      1 9F9        -0.2501
     12 C20         5.8630   44.4800   19.6150 C.ar      1 9F9         0.0592
     13 C21         5.1660   44.0360   18.4820 C.ar      1 9F9        -0.0414
     14 C23         4.2530   44.8830   17.8760 C.ar      1 9F9         0.0688
     15 N24         3.4230   44.7520   16.7640 N.am      1 9F9        -0.2197
     16 C25         3.2630   43.5540   15.9250 C.3       1 9F9         0.0413
     17 C29         2.7180   45.9260   16.5710 C.2       1 9F9         0.3044
     18 O30         1.9200   46.1540   15.6860 O.2       1 9F9        -0.3981
     19 N31         3.1290   46.7940   17.5530 N.am      1 9F9        -0.2201
     20 C32         2.6280   48.1690   17.7090 C.3       1 9F9         0.0411
     21 C36         4.0810   46.1700   18.3560 C.ar      1 9F9         0.0688
     22 C37         4.7650   46.5820   19.4510 C.ar      1 9F9        -0.0457
     23 C39         5.7070   45.7760   20.1360 C.ar      1 9F9         0.0373
     24 N40         6.3730   46.2250   21.2600 N.pl3     1 9F9        -0.3236
     25 C41         5.7910   45.7010   22.4980 C.3       1 9F9         0.0216
     26 C44         6.7330   45.8310   23.6660 C.3       1 9F9        -0.0341
     27 C47         7.2380   47.2520   23.8010 C.3       1 9F9        -0.0496
     28 C50         7.8120   47.7630   22.4950 C.3       1 9F9        -0.0341
     29 C53         6.8340   47.6050   21.3550 C.3       1 9F9         0.0216
     30 H          10.0688   45.7076   21.9025 H         1 9F9         0.0581
     31 H          11.1509   44.2870   21.7095 H         1 9F9         0.0581
     32 H          10.2237   44.5095   23.2318 H         1 9F9         0.0581
     33 H          10.8631   42.5080   23.0486 H         1 9F9         0.0555
     34 H          10.7874   40.0594   23.3650 H         1 9F9         0.0624
     35 H           9.0221   38.7335   22.2991 H         1 9F9         0.0536
     36 H           7.3217   39.8079   20.8951 H         1 9F9         0.0639
     37 H           7.4496   44.1485   20.8599 H         1 9F9         0.2165
     38 H           5.3397   43.0422   18.0854 H         1 9F9         0.0318
     39 H           3.9348   42.7613   16.2859 H         1 9F9         0.0544
     40 H           3.5133   43.8003   14.8826 H         1 9F9         0.0544
     41 H           2.2213   43.2047   15.9793 H         1 9F9         0.0544
     42 H           1.8833   48.3788   16.9270 H         1 9F9         0.0543
     43 H           3.4650   48.8768   17.6176 H         1 9F9         0.0543
     44 H           2.1611   48.2791   18.6989 H         1 9F9         0.0543
     45 H           4.5811   47.5834   19.8231 H         1 9F9         0.0328
     46 H           5.5492   44.6376   22.3540 H         1 9F9         0.0503
     47 H           4.8700   46.2595   22.7212 H         1 9F9         0.0503
     48 H           7.5896   45.1579   23.5138 H         1 9F9         0.0284
     49 H           6.2038   45.5484   24.5880 H         1 9F9         0.0284
     50 H           8.0222   47.2811   24.5719 H         1 9F9         0.0266
     51 H           6.4028   47.9012   24.1028 H         1 9F9         0.0266
     52 H           8.7259   47.1970   22.2616 H         1 9F9         0.0284
     53 H           8.0594   48.8289   22.6072 H         1 9F9         0.0284
     54 H           5.9698   48.2636   21.5266 H         1 9F9         0.0503
     55 H           7.3283   47.8864   20.4135 H         1 9F9         0.0503
@<TRIPOS>BOND
     1    1    2 1  
     2    2    3 1  
     3    3    4 ar 
     4    3    8 ar 
     5    4    5 ar 
     6    5    6 ar 
     7    6    7 ar 
     8    7    8 ar 
     9    8    9 1  
    10    9   10 2  
    11    9   11 am 
    12   11   12 1  
    13   12   13 ar 
    14   12   23 ar 
    15   13   14 ar 
    16   14   15 1  
    17   14   21 ar 
    18   15   16 1  
    19   15   17 am 
    20   17   18 2  
    21   17   19 am 
    22   19   20 1  
    23   19   21 1  
    24   21   22 ar 
    25   22   23 ar 
    26   23   24 1  
    27   24   25 1  
    28   24   29 1  
    29   25   26 1  
    30   26   27 1  
    31   27   28 1  
    32   28   29 1  
    33    1   30 1  
    34    1   31 1  
    35    1   32 1  
    36    4   33 1  
    37    5   34 1  
    38    6   35 1  
    39    7   36 1  
    40   11   37 1  
    41   13   38 1  
    42   16   39 1  
    43   16   40 1  
    44   16   41 1  
    45   20   42 1  
    46   20   43 1  
    47   20   44 1  
    48   22   45 1  
    49   25   46 1  
    50   25   47 1  
    51   26   48 1  
    52   26   49 1  
    53   27   50 1  
    54   27   51 1  
    55   28   52 1  
    56   28   53 1  
    57   29   54 1  
    58   29   55 1  
@<TRIPOS>SUBSTRUCTURE
     1 9F9         1

