### 
### Created by X-TOOL on Mon Sep 10 21:13:17 2018
### 

@<TRIPOS>MOLECULE
4uyf_ligand
   53    56     1     0     0
SMALL
GAST_HUCK


@<TRIPOS>ATOM
      1 C1         22.0920    7.8530  -10.7900 C.3       1 73B        -0.0364
      2 C2         21.9220    9.2770  -10.2520 C.3       1 73B         0.0668
      3 C3         21.8220   10.2850  -11.4160 C.3       1 73B         0.0055
      4 C4         20.8850   11.4330  -11.0920 C.3       1 73B         0.0682
      5 N1         20.7390   12.3300  -12.2230 N.pl3     1 73B        -0.3106
      6 C5         20.3240   13.6540  -12.1240 C.ar      1 73B         0.0399
      7 C6         19.9680   14.2530  -10.9130 C.ar      1 73B        -0.0436
      8 C7         19.5480   15.5820  -10.8930 C.ar      1 73B        -0.0597
      9 C8         19.4850   16.2920  -12.0850 C.ar      1 73B         0.0261
     10 CL1        18.9620   17.9510  -12.0980 Cl        1 73B        -0.0830
     11 C9         19.8360   15.7010  -13.2870 C.ar      1 73B        -0.0597
     12 C10        20.2560   14.3790  -13.3090 C.ar      1 73B        -0.0436
     13 C11        19.5650   10.8170  -10.6990 C.ar      1 73B         0.0061
     14 C12        18.3530   11.2650  -11.2540 C.ar      1 73B        -0.0618
     15 C13        17.1210   10.6760  -10.9250 C.ar      1 73B        -0.0374
     16 C14        17.1140    9.6170  -10.0160 C.ar      1 73B        -0.0723
     17 C15        18.3040    9.1420   -9.4700 C.ar      1 73B        -0.0440
     18 C16        19.5150    9.7450   -9.8120 C.ar      1 73B         0.0773
     19 N2         20.7710    9.3140   -9.3110 N.am      1 73B        -0.2181
     20 C17        21.0370    8.9500   -8.0440 C.2       1 73B         0.2028
     21 C18        20.0050    9.1380   -6.9680 C.3       1 73B         0.0318
     22 O1         22.1400    8.4860   -7.7650 O.2       1 73B        -0.3851
     23 C19        15.8180   11.1500  -11.5220 C.ar      1 73B        -0.0269
     24 C20        15.8070   11.9420  -12.6810 C.ar      1 73B        -0.0547
     25 C21        14.6090   12.4340  -13.2020 C.ar      1 73B        -0.0498
     26 C22        13.3960   12.1340  -12.5860 C.ar      1 73B         0.0076
     27 C23        13.3920   11.3320  -11.4500 C.ar      1 73B        -0.0498
     28 C24        14.5880   10.8370  -10.9280 C.ar      1 73B        -0.0547
     29 C25        12.0910   12.6510  -13.1340 C.2       1 73B         0.0612
     30 O2         11.0240   12.3330  -12.6330 O.co2     1 73B        -0.5614
     31 O3         12.1850   13.4510  -14.1860 O.co2     1 73B        -0.5614
     32 H          22.9430    7.8233  -11.4864 H         1 73B         0.0257
     33 H          21.1760    7.5484  -11.3173 H         1 73B         0.0257
     34 H          22.2792    7.1646   -9.9527 H         1 73B         0.0257
     35 H          22.8236    9.5348   -9.6770 H         1 73B         0.0622
     36 H          21.4478    9.7617  -12.3083 H         1 73B         0.0333
     37 H          22.8234   10.6908  -11.6219 H         1 73B         0.0333
     38 H          21.2876   12.0053  -10.2433 H         1 73B         0.0683
     39 H          20.9568   11.9625  -13.1602 H         1 73B         0.1783
     40 H          20.0183   13.6854   -9.9909 H         1 73B         0.0516
     41 H          19.2736   16.0561   -9.9576 H         1 73B         0.0589
     42 H          19.7828   16.2697  -14.2083 H         1 73B         0.0589
     43 H          20.5306   13.9120  -14.2479 H         1 73B         0.0516
     44 H          18.3701   12.0899  -11.9570 H         1 73B         0.0525
     45 H          16.1731    9.1596   -9.7321 H         1 73B         0.0539
     46 H          18.2894    8.3055   -8.7807 H         1 73B         0.0491
     47 H          20.4075    8.7828   -6.0079 H         1 73B         0.0472
     48 H          19.1018    8.5638   -7.2219 H         1 73B         0.0472
     49 H          19.7504   10.2050   -6.8865 H         1 73B         0.0472
     50 H          16.7417   12.1747  -13.1783 H         1 73B         0.0608
     51 H          14.6226   13.0534  -14.0915 H         1 73B         0.0644
     52 H          12.4528   11.0894  -10.9662 H         1 73B         0.0644
     53 H          14.5651   10.2012  -10.0503 H         1 73B         0.0608
@<TRIPOS>BOND
     1    1    2 1  
     2    2    3 1  
     3    2   19 1  
     4    3    4 1  
     5    4    5 1  
     6    4   13 1  
     7    5    6 1  
     8    6    7 ar 
     9    6   12 ar 
    10    7    8 ar 
    11    8    9 ar 
    12    9   10 1  
    13    9   11 ar 
    14   11   12 ar 
    15   13   14 ar 
    16   13   18 ar 
    17   14   15 ar 
    18   15   16 ar 
    19   15   23 1  
    20   16   17 ar 
    21   17   18 ar 
    22   18   19 1  
    23   19   20 am 
    24   20   21 1  
    25   20   22 2  
    26   23   24 ar 
    27   23   28 ar 
    28   24   25 ar 
    29   25   26 ar 
    30   26   27 ar 
    31   26   29 1  
    32   27   28 ar 
    33   29   30 ar 
    34   29   31 ar 
    35    1   32 1  
    36    1   33 1  
    37    1   34 1  
    38    2   35 1  
    39    3   36 1  
    40    3   37 1  
    41    4   38 1  
    42    5   39 1  
    43    7   40 1  
    44    8   41 1  
    45   11   42 1  
    46   12   43 1  
    47   14   44 1  
    48   16   45 1  
    49   17   46 1  
    50   21   47 1  
    51   21   48 1  
    52   21   49 1  
    53   24   50 1  
    54   25   51 1  
    55   27   52 1  
    56   28   53 1  
@<TRIPOS>SUBSTRUCTURE
     1 73B         1

