### 
### Created by X-TOOL on Mon Sep 10 21:13:18 2018
### 

@<TRIPOS>MOLECULE
4uyg_ligand
   53    56     1     0     0
SMALL
GAST_HUCK


@<TRIPOS>ATOM
      1 C1          3.1010  -27.5500   14.5380 C.3       1 73B        -0.0364
      2 C2          4.0960  -26.4420   14.8150 C.3       1 73B         0.0668
      3 C3          5.1410  -26.8400   15.8900 C.3       1 73B         0.0055
      4 C4          6.6060  -26.6570   15.4670 C.3       1 73B         0.0682
      5 N1          7.5680  -27.3220   16.3430 N.pl3     1 73B        -0.3106
      6 C5          8.8030  -26.7390   16.6760 C.ar      1 73B         0.0399
      7 C6          9.2650  -25.6040   16.0050 C.ar      1 73B        -0.0436
      8 C7         10.4740  -25.0150   16.3650 C.ar      1 73B        -0.0597
      9 C8         11.2170  -25.5360   17.3940 C.ar      1 73B         0.0261
     10 CL1        12.7260  -24.7520   17.8020 Cl        1 73B        -0.0830
     11 C9         10.7890  -26.6550   18.0900 C.ar      1 73B        -0.0597
     12 C10         9.5810  -27.2560   17.7390 C.ar      1 73B        -0.0436
     13 C11         6.7700  -27.1280   14.0660 C.ar      1 73B         0.0061
     14 C12         7.8370  -27.9610   13.7150 C.ar      1 73B        -0.0618
     15 C13         7.9700  -28.4400   12.4060 C.ar      1 73B        -0.0374
     16 C14         7.0200  -28.0560   11.4650 C.ar      1 73B        -0.0723
     17 C15         5.9340  -27.2730   11.8110 C.ar      1 73B        -0.0440
     18 C16         5.8260  -26.8090   13.1030 C.ar      1 73B         0.0773
     19 N2          4.7490  -25.9930   13.5610 N.am      1 73B        -0.2181
     20 C17         4.2790  -24.8840   12.9450 C.2       1 73B         0.2028
     21 C18         4.6950  -24.6160   11.5300 C.3       1 73B         0.0318
     22 O1          3.5470  -24.1080   13.5320 O.2       1 73B        -0.3851
     23 C19         9.1010  -29.3350   12.0170 C.ar      1 73B        -0.0269
     24 C20         9.6430  -29.2950   10.7230 C.ar      1 73B        -0.0547
     25 C21        10.8040  -29.9950   10.4030 C.ar      1 73B        -0.0498
     26 C22        11.4420  -30.7970   11.3580 C.ar      1 73B         0.0076
     27 C23        10.8940  -30.8680   12.6340 C.ar      1 73B        -0.0498
     28 C24         9.7320  -30.1630   12.9520 C.ar      1 73B        -0.0547
     29 C25        12.6830  -31.5610   11.0190 C.2       1 73B         0.0612
     30 O2         13.3350  -32.1290   11.9790 O.co2     1 73B        -0.5614
     31 O3         13.0500  -31.6700    9.8570 O.co2     1 73B        -0.5614
     32 H           2.6311  -27.8651   15.4814 H         1 73B         0.0257
     33 H           3.6221  -28.4058   14.0842 H         1 73B         0.0257
     34 H           2.3271  -27.1837   13.8474 H         1 73B         0.0257
     35 H           3.5297  -25.5881   15.2151 H         1 73B         0.0622
     36 H           4.9874  -27.9002   16.1398 H         1 73B         0.0333
     37 H           4.9639  -26.2234   16.7835 H         1 73B         0.0333
     38 H           6.8273  -25.5799   15.4969 H         1 73B         0.0683
     39 H           7.3337  -28.2478   16.7289 H         1 73B         0.1783
     40 H           8.6782  -25.1791   15.1987 H         1 73B         0.0516
     41 H          10.8296  -24.1416   15.8304 H         1 73B         0.0589
     42 H          11.3871  -27.0589   18.8989 H         1 73B         0.0589
     43 H           9.2349  -28.1263   18.2847 H         1 73B         0.0516
     44 H           8.5692  -28.2389   14.4645 H         1 73B         0.0525
     45 H           7.1338  -28.3782   10.4363 H         1 73B         0.0539
     46 H           5.1774  -27.0276   11.0746 H         1 73B         0.0491
     47 H           4.2286  -23.6828   11.1812 H         1 73B         0.0472
     48 H           4.3720  -25.4493   10.8887 H         1 73B         0.0472
     49 H           5.7896  -24.5191   11.4817 H         1 73B         0.0472
     50 H           9.1485  -28.7079    9.9576 H         1 73B         0.0608
     51 H          11.2182  -29.9183    9.4042 H         1 73B         0.0644
     52 H          11.3747  -31.4778   13.3904 H         1 73B         0.0644
     53 H           9.3090  -30.2591   13.9454 H         1 73B         0.0608
@<TRIPOS>BOND
     1    1    2 1  
     2    2    3 1  
     3    2   19 1  
     4    3    4 1  
     5    4    5 1  
     6    4   13 1  
     7    5    6 1  
     8    6    7 ar 
     9    6   12 ar 
    10    7    8 ar 
    11    8    9 ar 
    12    9   10 1  
    13    9   11 ar 
    14   11   12 ar 
    15   13   14 ar 
    16   13   18 ar 
    17   14   15 ar 
    18   15   16 ar 
    19   15   23 1  
    20   16   17 ar 
    21   17   18 ar 
    22   18   19 1  
    23   19   20 am 
    24   20   21 1  
    25   20   22 2  
    26   23   24 ar 
    27   23   28 ar 
    28   24   25 ar 
    29   25   26 ar 
    30   26   27 ar 
    31   26   29 1  
    32   27   28 ar 
    33   29   30 ar 
    34   29   31 ar 
    35    1   32 1  
    36    1   33 1  
    37    1   34 1  
    38    2   35 1  
    39    3   36 1  
    40    3   37 1  
    41    4   38 1  
    42    5   39 1  
    43    7   40 1  
    44    8   41 1  
    45   11   42 1  
    46   12   43 1  
    47   14   44 1  
    48   16   45 1  
    49   17   46 1  
    50   21   47 1  
    51   21   48 1  
    52   21   49 1  
    53   24   50 1  
    54   25   51 1  
    55   27   52 1  
    56   28   53 1  
@<TRIPOS>SUBSTRUCTURE
     1 73B         1

