### 
### Created by X-TOOL on Mon Sep 10 21:13:17 2018
### 

@<TRIPOS>MOLECULE
4uyh_ligand
   70    74     1     0     0
SMALL
GAST_HUCK


@<TRIPOS>ATOM
      1 O          21.4990    8.4690   -8.0190 O.2       1 9S3        -0.3853
      2 C17        20.3860    8.9080   -8.2690 C.2       1 9S3         0.2024
      3 C18        19.3060    8.9610   -7.2210 C.3       1 9S3         0.0317
      4 N2         20.0990    9.3580   -9.5280 N.am      1 9S3        -0.2190
      5 C2         21.2150    9.3300  -10.5200 C.3       1 9S3         0.0665
      6 C1         21.2310    8.0140  -11.2870 C.3       1 9S3        -0.0365
      7 C16        18.8120    9.7850   -9.9860 C.ar      1 9S3         0.0758
      8 C11        18.8320   10.9190  -10.7350 C.ar      1 9S3         0.0046
      9 C4         20.1260   11.6110  -11.0650 C.3       1 9S3         0.0678
     10 N1         19.9270   12.5740  -12.1400 N.pl3     1 9S3        -0.3109
     11 C5         19.6410   13.8900  -11.9090 C.ar      1 9S3         0.0395
     12 C10        19.6720   14.7730  -12.9930 C.ar      1 9S3        -0.0444
     13 C9         19.4100   16.1290  -12.8080 C.ar      1 9S3        -0.0737
     14 C8         19.1190   16.6150  -11.5350 C.ar      1 9S3        -0.0751
     15 C7         19.0900   15.7490  -10.4440 C.ar      1 9S3        -0.0737
     16 C6         19.3470   14.3920  -10.6320 C.ar      1 9S3        -0.0444
     17 C3         21.1810   10.5700  -11.4200 C.3       1 9S3         0.0054
     18 C15        17.6280    9.1010   -9.6850 C.ar      1 9S3        -0.0455
     19 C14        16.4300    9.5970  -10.1890 C.ar      1 9S3        -0.0745
     20 C13        16.4200   10.7570  -10.9830 C.ar      1 9S3        -0.0430
     21 C12        17.6340   11.4100  -11.2640 C.ar      1 9S3        -0.0640
     22 C19        15.1430   11.2750  -11.5570 C.ar      1 9S3        -0.0354
     23 C30        13.9080   11.0600  -10.9360 C.ar      1 9S3        -0.0637
     24 C29        12.7330   11.5390  -11.5120 C.ar      1 9S3        -0.0563
     25 C22        12.7880   12.2180  -12.7280 C.ar      1 9S3         0.0002
     26 C21        14.0060   12.4260  -13.3630 C.ar      1 9S3        -0.0563
     27 C20        15.1740   11.9500  -12.7850 C.ar      1 9S3        -0.0637
     28 C23        11.5330   12.7610  -13.3540 C.3       1 9S3         0.0014
     29 N3         11.2160   14.1010  -12.8650 N.4       1 9S3         0.2471
     30 C28        11.9470   15.1260  -13.5980 C.3       1 9S3        -0.0305
     31 C27        11.7740   16.4230  -12.8100 C.3       1 9S3        -0.0123
     32 C26        10.3040   16.8240  -12.7500 C.3       1 9S3        -0.0434
     33 C25         9.4500   15.6710  -12.2380 C.3       1 9S3        -0.0123
     34 C24         9.8160   14.3710  -12.9440 C.3       1 9S3        -0.0305
     35 H          18.3916    9.3886   -7.6581 H         1 9S3         0.0472
     36 H          19.6397    9.5892   -6.3820 H         1 9S3         0.0472
     37 H          19.0976    7.9440   -6.8574 H         1 9S3         0.0472
     38 H          22.1565    9.3768   -9.9531 H         1 9S3         0.0621
     39 H          22.0609    8.0205  -12.0090 H         1 9S3         0.0257
     40 H          20.2789    7.8909  -11.8239 H         1 9S3         0.0257
     41 H          21.3649    7.1803  -10.5820 H         1 9S3         0.0257
     42 H          20.4679   12.1589  -10.1746 H         1 9S3         0.0682
     43 H          20.0051   12.2494  -13.1144 H         1 9S3         0.1781
     44 H          19.9016   14.3998  -13.9845 H         1 9S3         0.0515
     45 H          19.4326   16.8058  -13.6545 H         1 9S3         0.0583
     46 H          18.9146   17.6700  -11.3931 H         1 9S3         0.0505
     47 H          18.8685   16.1289   -9.4532 H         1 9S3         0.0583
     48 H          19.3195   13.7179   -9.7835 H         1 9S3         0.0515
     49 H          20.9930   10.2353  -12.4508 H         1 9S3         0.0333
     50 H          22.1669   11.0549  -11.3659 H         1 9S3         0.0333
     51 H          17.6444    8.2060   -9.0736 H         1 9S3         0.0487
     52 H          15.4996    9.0865   -9.9684 H         1 9S3         0.0527
     53 H          17.6409   12.2943  -11.8909 H         1 9S3         0.0514
     54 H          13.8647   10.5164   -9.9992 H         1 9S3         0.0588
     55 H          11.7811   11.3843  -11.0169 H         1 9S3         0.0556
     56 H          14.0437   12.9582  -14.3066 H         1 9S3         0.0556
     57 H          16.1216   12.1019  -13.2890 H         1 9S3         0.0588
     58 H          10.6964   12.0881  -13.1149 H         1 9S3         0.0979
     59 H          11.6692   12.8035  -14.4447 H         1 9S3         0.0979
     60 H          11.4920   14.1486  -11.8967 H         1 9S3         0.2048
     61 H          11.5332   15.2379  -14.6110 H         1 9S3         0.0814
     62 H          13.0123   14.8600  -13.6644 H         1 9S3         0.0814
     63 H          12.3470   17.2233  -13.3011 H         1 9S3         0.0317
     64 H          12.1507   16.2771  -11.7869 H         1 9S3         0.0317
     65 H           9.9650   17.1040  -13.7583 H         1 9S3         0.0269
     66 H          10.1920   17.6840  -12.0734 H         1 9S3         0.0269
     67 H           8.3898   15.8967  -12.4251 H         1 9S3         0.0317
     68 H           9.6145   15.5528  -11.1568 H         1 9S3         0.0317
     69 H           9.2664   13.5429  -12.4726 H         1 9S3         0.0814
     70 H           9.5272   14.4472  -14.0027 H         1 9S3         0.0814
@<TRIPOS>BOND
     1    1    2 2  
     2    2    3 1  
     3    2    4 am 
     4    4    5 1  
     5    4    7 1  
     6    5    6 1  
     7    5   17 1  
     8    7    8 ar 
     9    7   18 ar 
    10    8    9 1  
    11    8   21 ar 
    12    9   10 1  
    13    9   17 1  
    14   10   11 1  
    15   11   12 ar 
    16   11   16 ar 
    17   12   13 ar 
    18   13   14 ar 
    19   14   15 ar 
    20   15   16 ar 
    21   18   19 ar 
    22   19   20 ar 
    23   20   21 ar 
    24   20   22 1  
    25   22   23 ar 
    26   22   27 ar 
    27   23   24 ar 
    28   24   25 ar 
    29   25   26 ar 
    30   25   28 1  
    31   26   27 ar 
    32   28   29 1  
    33   29   30 1  
    34   29   34 1  
    35   30   31 1  
    36   31   32 1  
    37   32   33 1  
    38   33   34 1  
    39    3   35 1  
    40    3   36 1  
    41    3   37 1  
    42    5   38 1  
    43    6   39 1  
    44    6   40 1  
    45    6   41 1  
    46    9   42 1  
    47   10   43 1  
    48   12   44 1  
    49   13   45 1  
    50   14   46 1  
    51   15   47 1  
    52   16   48 1  
    53   17   49 1  
    54   17   50 1  
    55   18   51 1  
    56   19   52 1  
    57   21   53 1  
    58   23   54 1  
    59   24   55 1  
    60   26   56 1  
    61   27   57 1  
    62   28   58 1  
    63   28   59 1  
    64   29   60 1  
    65   30   61 1  
    66   30   62 1  
    67   31   63 1  
    68   31   64 1  
    69   32   65 1  
    70   32   66 1  
    71   33   67 1  
    72   33   68 1  
    73   34   69 1  
    74   34   70 1  
@<TRIPOS>SUBSTRUCTURE
     1 9S3         1

