### 
### Created by X-TOOL on Mon Sep 10 21:13:19 2018
### 

@<TRIPOS>MOLECULE
4uyn_ligand
   56    61     1     0     0
SMALL
GAST_HUCK


@<TRIPOS>ATOM
      1 O17        25.4110   -9.6610   10.6710 O.2       1 Y3M        -0.3713
      2 C16        25.9580   -8.5840   10.8560 C.2       1 Y3M         0.2660
      3 O18        26.4170   -7.8300    9.7000 O.3       1 Y3M        -0.2812
      4 C19        26.2070   -8.3370    8.3840 C.3       1 Y3M         0.0720
      5 C20        24.9280   -7.7550    7.8170 C.3       1 Y3M        -0.0374
      6 C7         26.1730   -8.0290   12.2290 C.2       1 Y3M         0.1387
      7 C3         26.8620   -6.7120   12.3820 C.2       1 Y3M         0.0155
      8 N6         25.8380   -8.5320   13.4480 N.pl3     1 Y3M        -0.2889
      9 C5         26.2500   -7.6750   14.4320 C.2       1 Y3M         0.0210
     10 C4         26.8890   -6.5600   13.8250 C.2       1 Y3M        -0.0224
     11 C2         27.4950   -5.4250   14.4970 C.3       1 Y3M         0.0702
     12 C8         28.0630   -4.4790   13.5240 C.3       1 Y3M         0.1110
     13 C13        28.7410   -3.2480   14.0530 C.2       1 Y3M         0.1319
     14 O14        28.7940   -3.0500   15.2560 O.2       1 Y3M        -0.3860
     15 C12        29.3300   -2.2580   13.0900 C.3       1 Y3M         0.0276
     16 C11        29.7560   -2.9510   11.7940 C.3       1 Y3M        -0.0192
     17 C10        28.5790   -3.6740   11.1070 C.3       1 Y3M         0.0144
     18 C9         27.9780   -4.7060   12.0460 C.2       1 Y3M         0.0397
     19 N1         27.3880   -5.8080   11.5340 N.2       1 Y3M        -0.3324
     20 C15        26.4440   -4.8210   15.3340 C.2       1 Y3M         0.1020
     21 O24        26.0710   -5.4190   16.4910 O.3       1 Y3M        -0.2488
     22 C23        25.0660   -4.6130   16.8840 C.2       1 Y3M         0.1691
     23 C22        24.8140   -3.5230   16.0440 C.2       1 Y3M        -0.0673
     24 C21        25.7340   -3.6670   15.0070 C.2       1 Y3M        -0.0786
     25 S25        24.2070   -5.0090   18.3470 S.3       1 Y3M         0.0489
     26 C26        25.0490   -4.4760   19.7740 C.2       1 Y3M         0.2004
     27 N28        24.6620   -4.7490   21.0210 N.pl3     1 Y3M        -0.2359
     28 C29        25.5660   -4.0870   21.7780 C.ar      1 Y3M         0.0792
     29 C34        25.6930   -3.9470   23.1530 C.ar      1 Y3M        -0.0422
     30 C33        26.7150   -3.1530   23.6690 C.ar      1 Y3M        -0.0766
     31 C32        27.6210   -2.5160   22.8220 C.ar      1 Y3M        -0.0786
     32 C31        27.5180   -2.6720   21.4510 C.ar      1 Y3M        -0.0655
     33 C30        26.4810   -3.4460   20.9280 C.ar      1 Y3M         0.0219
     34 N27        26.1360   -3.7110   19.6590 N.2       1 Y3M        -0.3063
     35 H          26.1257   -9.4333    8.4220 H         1 Y3M         0.0607
     36 H          27.0545   -8.0541    7.7424 H         1 Y3M         0.0607
     37 H          24.7658   -8.1460    6.8017 H         1 Y3M         0.0255
     38 H          25.0093   -6.6587    7.7790 H         1 Y3M         0.0255
     39 H          24.0804   -8.0379    8.4586 H         1 Y3M         0.0255
     40 H          25.3479   -9.4240   13.6064 H         1 Y3M         0.2289
     41 H          26.1114   -7.8227   15.5020 H         1 Y3M         0.0785
     42 H          28.3097   -5.7784   15.1461 H         1 Y3M         0.0621
     43 H          29.0167   -5.0267   13.5467 H         1 Y3M         0.0837
     44 H          30.2088   -1.7842   13.5517 H         1 Y3M         0.0499
     45 H          28.5784   -1.4891   12.8579 H         1 Y3M         0.0499
     46 H          30.5378   -3.6889   12.0270 H         1 Y3M         0.0325
     47 H          30.1591   -2.1952   11.1039 H         1 Y3M         0.0325
     48 H          28.9418   -4.1769   10.1985 H         1 Y3M         0.0542
     49 H          27.8085   -2.9374   10.8355 H         1 Y3M         0.0542
     50 H          24.0682   -2.7397   16.1715 H         1 Y3M         0.0208
     51 H          25.8678   -3.0239   14.1384 H         1 Y3M         0.0193
     52 H          23.8667   -5.3249   21.3321 H         1 Y3M         0.2330
     53 H          25.0029   -4.4512   23.8198 H         1 Y3M         0.0541
     54 H          26.8069   -3.0290   24.7420 H         1 Y3M         0.0528
     55 H          28.4077   -1.8973   23.2384 H         1 Y3M         0.0516
     56 H          28.2350   -2.1982   20.7903 H         1 Y3M         0.0535
@<TRIPOS>BOND
     1    1    2 2  
     2    2    3 1  
     3    2    6 1  
     4    3    4 1  
     5    4    5 1  
     6    6    7 2  
     7    6    8 1  
     8    7   10 1  
     9    7   19 1  
    10    8    9 1  
    11    9   10 2  
    12   10   11 1  
    13   11   12 1  
    14   11   20 1  
    15   12   13 1  
    16   12   18 1  
    17   13   14 2  
    18   13   15 1  
    19   15   16 1  
    20   16   17 1  
    21   17   18 1  
    22   18   19 2  
    23   20   21 1  
    24   20   24 2  
    25   21   22 1  
    26   22   23 2  
    27   22   25 1  
    28   23   24 1  
    29   25   26 1  
    30   26   27 1  
    31   26   34 2  
    32   27   28 1  
    33   28   29 ar 
    34   28   33 ar 
    35   29   30 ar 
    36   30   31 ar 
    37   31   32 ar 
    38   32   33 ar 
    39   33   34 1  
    40    4   35 1  
    41    4   36 1  
    42    5   37 1  
    43    5   38 1  
    44    5   39 1  
    45    8   40 1  
    46    9   41 1  
    47   11   42 1  
    48   12   43 1  
    49   15   44 1  
    50   15   45 1  
    51   16   46 1  
    52   16   47 1  
    53   17   48 1  
    54   17   49 1  
    55   23   50 1  
    56   24   51 1  
    57   27   52 1  
    58   29   53 1  
    59   30   54 1  
    60   31   55 1  
    61   32   56 1  
@<TRIPOS>SUBSTRUCTURE
     1 Y3M         1

