### 
### Created by X-TOOL on Mon Sep 10 21:13:19 2018
### 

@<TRIPOS>MOLECULE
4uzd_ligand
   59    64     1     0     0
SMALL
GAST_HUCK


@<TRIPOS>ATOM
      1 C1         58.2740  -10.1280   44.4100 C.3       1 QMN         0.0220
      2 N2         58.2770  -11.4630   41.8630 N.pl3     1 QMN        -0.2810
      3 C3         57.4840  -11.9840   42.8500 C.2       1 QMN         0.0728
      4 C4         57.4960  -11.4070   44.1580 C.2       1 QMN        -0.0108
      5 C5         56.6470  -12.1780   44.9210 C.2       1 QMN         0.0180
      6 N6         56.1330  -13.1600   44.1370 N.pl3     1 QMN        -0.2955
      7 C7         56.6450  -13.0630   42.8680 C.2       1 QMN         0.1479
      8 C8         59.0910   -9.6710   43.2050 C.2       1 QMN         0.0183
      9 C9         59.1060  -10.3810   42.0390 C.2       1 QMN         0.0533
     10 C10        59.9350  -10.0000   40.8530 C.3       1 QMN         0.0114
     11 C11        60.4040   -8.5500   40.8280 C.3       1 QMN        -0.0242
     12 C12        60.8030   -8.0300   42.1960 C.3       1 QMN         0.0134
     13 C13        59.8580   -8.4200   43.3030 C.2       1 QMN         0.0885
     14 O14        59.7800   -7.7060   44.2910 O.2       1 QMN        -0.4156
     15 C15        56.2560  -14.0180   41.8430 C.2       1 QMN         0.2586
     16 O16        55.4370  -14.8980   42.0380 O.2       1 QMN        -0.3773
     17 O17        56.8930  -13.7780   40.6740 O.3       1 QMN        -0.2829
     18 C18        56.6850  -14.7260   39.5790 C.3       1 QMN         0.0718
     19 C19        55.6820  -14.2060   38.6450 C.3       1 QMN        -0.0374
     20 C20        57.3420   -9.0420   44.9580 C.ar      1 QMN        -0.0420
     21 C21        56.9560   -9.0710   46.2930 C.ar      1 QMN        -0.0247
     22 C22        55.7600   -8.4810   46.6930 C.ar      1 QMN         0.1222
     23 C23        54.9860   -7.7760   45.7900 C.ar      1 QMN        -0.0341
     24 C24        55.4310   -7.6440   44.4890 C.ar      1 QMN        -0.0760
     25 C25        56.6010   -8.2620   44.0790 C.ar      1 QMN        -0.0692
     26 C26        58.0480   -6.1040   52.4430 C.ar      1 QMN        -0.0778
     27 C27        58.9450   -5.7130   51.4420 C.ar      1 QMN        -0.0799
     28 C28        58.7780   -6.1400   50.1310 C.ar      1 QMN        -0.0677
     29 C29        56.9710   -6.9370   52.1590 C.ar      1 QMN        -0.0437
     30 C30        56.7830   -7.3500   50.8410 C.ar      1 QMN         0.0782
     31 C31        57.6840   -6.9480   49.8490 C.ar      1 QMN         0.0171
     32 N32        57.1670   -7.4150   48.6540 N.2       1 QMN        -0.2946
     33 C33        56.0080   -8.0640   48.9890 C.2       1 QMN         0.2934
     34 N34        55.7250   -8.0590   50.2730 N.pl3     1 QMN        -0.2179
     35 O35        55.2550   -8.6540   48.0100 O.3       1 QMN        -0.2011
     36 H          59.0011  -10.3513   45.2046 H         1 QMN         0.0572
     37 H          58.2508  -11.9079   40.9344 H         1 QMN         0.2092
     38 H          56.4253  -12.0254   45.9762 H         1 QMN         0.0772
     39 H          55.4581  -13.8728   44.4490 H         1 QMN         0.2230
     40 H          59.3367  -10.1798   39.9476 H         1 QMN         0.0497
     41 H          60.8253  -10.6459   40.8384 H         1 QMN         0.0497
     42 H          59.5866   -7.9243   40.4404 H         1 QMN         0.0317
     43 H          61.2729   -8.4746   40.1578 H         1 QMN         0.0317
     44 H          60.8453   -6.9318   42.1491 H         1 QMN         0.0470
     45 H          61.8005   -8.4254   42.4383 H         1 QMN         0.0470
     46 H          56.3367  -15.6852   39.9896 H         1 QMN         0.0607
     47 H          57.6344  -14.8788   39.0450 H         1 QMN         0.0607
     48 H          55.5343  -14.9265   37.8270 H         1 QMN         0.0255
     49 H          56.0284  -13.2475   38.2312 H         1 QMN         0.0255
     50 H          54.7306  -14.0539   39.1758 H         1 QMN         0.0255
     51 H          57.5897   -9.5557   47.0268 H         1 QMN         0.0491
     52 H          54.0453   -7.3341   46.0979 H         1 QMN         0.0496
     53 H          54.8599   -7.0519   43.7830 H         1 QMN         0.0573
     54 H          56.9431   -8.1353   43.0582 H         1 QMN         0.0472
     55 H          58.1954   -5.7513   53.4574 H         1 QMN         0.0519
     56 H          59.7801   -5.0691   51.6931 H         1 QMN         0.0511
     57 H          59.4775   -5.8525   49.3544 H         1 QMN         0.0524
     58 H          56.2945   -7.2571   52.9432 H         1 QMN         0.0536
     59 H          54.9133   -8.4796   50.7474 H         1 QMN         0.2333
@<TRIPOS>BOND
     1    1    4 1  
     2    1    8 1  
     3   20    1 1  
     4    3    2 1  
     5    9    2 1  
     6    4    3 1  
     7    3    7 2  
     8    4    5 2  
     9    5    6 1  
    10    6    7 1  
    11    7   15 1  
    12    8    9 2  
    13    8   13 1  
    14    9   10 1  
    15   10   11 1  
    16   12   11 1  
    17   13   12 1  
    18   13   14 2  
    19   15   16 2  
    20   15   17 1  
    21   17   18 1  
    22   18   19 1  
    23   21   20 ar 
    24   20   25 ar 
    25   22   21 ar 
    26   22   23 ar 
    27   35   22 1  
    28   23   24 ar 
    29   24   25 ar 
    30   26   27 ar 
    31   29   26 ar 
    32   28   27 ar 
    33   31   28 ar 
    34   30   29 ar 
    35   30   31 ar 
    36   34   30 1  
    37   32   31 1  
    38   33   32 2  
    39   33   34 1  
    40   33   35 1  
    41    1   36 1  
    42    2   37 1  
    43    5   38 1  
    44    6   39 1  
    45   10   40 1  
    46   10   41 1  
    47   11   42 1  
    48   11   43 1  
    49   12   44 1  
    50   12   45 1  
    51   18   46 1  
    52   18   47 1  
    53   19   48 1  
    54   19   49 1  
    55   19   50 1  
    56   21   51 1  
    57   23   52 1  
    58   24   53 1  
    59   25   54 1  
    60   26   55 1  
    61   27   56 1  
    62   28   57 1  
    63   29   58 1  
    64   34   59 1  
@<TRIPOS>SUBSTRUCTURE
     1 QMN         1

