### 
### Created by X-TOOL on Mon Sep 10 21:13:19 2018
### 

@<TRIPOS>MOLECULE
4uzh_ligand
   35    38     1     0     0
SMALL
GAST_HUCK


@<TRIPOS>ATOM
      1 C8         26.7620   -5.7270    7.7610 C.3       1 JVE         0.0303
      2 N9         26.9500   -4.2600    7.7620 N.4       1 JVE         0.2583
      3 C10        27.9860   -3.7950    8.7070 C.3       1 JVE         0.0320
      4 C11        27.7050   -4.2720   10.1430 C.2       1 JVE         0.1335
      5 C12        26.4680   -6.2330    9.1710 C.2       1 JVE         0.1012
      6 C13        26.8980   -5.5640   10.3150 C.2       1 JVE         0.0294
      7 C14        26.5880   -6.0850   11.7670 C.3       1 JVE         0.0286
      8 O15        28.1090   -3.6520   11.0810 O.2       1 JVE        -0.4095
      9 C16        25.8280   -5.0710   12.6700 C.ar      1 JVE        -0.0007
     10 C17        26.0370   -5.0140   14.0820 C.ar      1 JVE         0.1342
     11 C18        24.8780   -4.1480   12.1200 C.ar      1 JVE        -0.0609
     12 C19        25.3510   -4.0980   14.9140 C.ar      1 JVE        -0.0354
     13 F20        26.9100   -5.8460   14.6760 F         1 JVE        -0.1892
     14 C21        24.1840   -3.2230   12.9430 C.ar      1 JVE        -0.0731
     15 C22        24.4200   -3.2000   14.3380 C.ar      1 JVE        -0.0712
     16 C23        25.3940   -8.0120   10.4910 C.2       1 JVE         0.1187
     17 C24        25.7810   -7.4020   11.7430 C.2       1 JVE         0.0101
     18 N25        24.7140   -9.1320   10.6950 N.2       1 JVE        -0.2178
     19 N26        25.6900   -7.5020    9.2820 N.pl3     1 JVE        -0.2619
     20 C27        25.2990   -8.2090   12.7040 C.2       1 JVE         0.0396
     21 N28        24.5870   -9.3670   12.1070 N.pl3     1 JVE        -0.2433
     22 H          27.6780   -6.2084    7.3881 H         1 JVE         0.1053
     23 H          25.9190   -5.9828    7.1023 H         1 JVE         0.1053
     24 H          26.0745   -3.8271    8.0113 H         1 JVE         0.2051
     25 H          27.2146   -3.9724    6.8329 H         1 JVE         0.2051
     26 H          28.0107   -2.6953    8.6955 H         1 JVE         0.1027
     27 H          28.9624   -4.1871    8.3862 H         1 JVE         0.1027
     28 H          27.5580   -6.2890   12.2440 H         1 JVE         0.0569
     29 H          24.6859   -4.1570   11.0532 H         1 JVE         0.0543
     30 H          25.5363   -4.0838   15.9819 H         1 JVE         0.0583
     31 H          23.4727   -2.5337   12.5026 H         1 JVE         0.0563
     32 H          23.8878   -2.4946   14.9660 H         1 JVE         0.0544
     33 H          25.3786   -7.9891    8.4295 H         1 JVE         0.2122
     34 H          25.4148   -8.0371   13.7731 H         1 JVE         0.0851
     35 H          24.1171  -10.1477   12.5873 H         1 JVE         0.2431
@<TRIPOS>BOND
     1    1    2 1  
     2    1    5 1  
     3    2    3 1  
     4    3    4 1  
     5    4    6 1  
     6    4    8 2  
     7    5    6 2  
     8    5   19 1  
     9    6    7 1  
    10    7    9 1  
    11    7   17 1  
    12    9   10 ar 
    13    9   11 ar 
    14   10   12 ar 
    15   10   13 1  
    16   11   14 ar 
    17   12   15 ar 
    18   14   15 ar 
    19   17   16 1  
    20   16   18 2  
    21   16   19 1  
    22   17   20 2  
    23   18   21 1  
    24   20   21 1  
    25    1   22 1  
    26    1   23 1  
    27    2   24 1  
    28    2   25 1  
    29    3   26 1  
    30    3   27 1  
    31    7   28 1  
    32   11   29 1  
    33   12   30 1  
    34   14   31 1  
    35   15   32 1  
    36   19   33 1  
    37   20   34 1  
    38   21   35 1  
@<TRIPOS>SUBSTRUCTURE
     1 JVE         1

