### 
### Created by X-TOOL on Mon Sep 10 21:13:18 2018
### 

@<TRIPOS>MOLECULE
4v01_ligand
   68    72     1     0     0
SMALL
GAST_HUCK


@<TRIPOS>ATOM
      1 N1         87.5270   -1.0350    9.3780 N.2       1 0LI        -0.3247
      2 N3         86.1450    0.6980   25.2140 N.4       1 0LI         0.2588
      3 C4         88.6280    1.5950   13.2710 C.1       1 0LI        -0.0766
      4 C5         89.0850    2.0320   14.5640 C.ar      1 0LI         0.0257
      5 C6         90.1840    2.8590   14.7050 C.ar      1 0LI        -0.0273
      6 C7         90.6160    3.2310   15.9590 C.ar      1 0LI        -0.0547
      7 C8         89.9700    2.7710   17.0890 C.ar      1 0LI        -0.0494
      8 C10        88.4420    1.5710   15.6940 C.ar      1 0LI        -0.0347
      9 C13        88.1410    1.2030   20.5500 C.ar      1 0LI         0.0879
     10 C15        87.7200    1.4630   22.8920 C.ar      1 0LI        -0.0316
     11 C17        87.1200   -0.5710   21.8060 C.ar      1 0LI         0.0386
     12 C20        86.6770   -0.3210   24.2720 C.3       1 0LI         0.0130
     13 C21        84.8130    1.2230   24.8390 C.3       1 0LI         0.0114
     14 C22        84.6190    2.4880   25.6440 C.3       1 0LI         0.0092
     15 C24        86.1980    0.2840   26.6470 C.3       1 0LI         0.0114
     16 C81        85.8320    0.2520    8.1240 C.2       1 0LI         0.0052
     17 C82        85.1300    1.3880    8.0900 C.2       1 0LI        -0.0245
     18 C83        85.3960    2.3170    9.2090 C.2       1 0LI         0.0552
     19 N81        86.2230    2.1310   10.1880 N.2       1 0LI        -0.1413
     20 N82        86.8770    0.9500   10.1180 N.pl3     1 0LI        -0.1187
     21 C84        86.7410   -0.0030    9.1550 C.2       1 0LI         0.1691
     22 C1         88.1870   -0.7320   10.5420 C.2       1 0LI        -0.0017
     23 C2         87.8060    0.4990   11.0150 C.2       1 0LI         0.1589
     24 C3         88.2520    1.1390   12.2180 C.1       1 0LI        -0.0467
     25 C9         88.8810    1.9390   16.9460 C.ar      1 0LI         0.0483
     26 C11        90.8980    3.3380   13.4960 C.3       1 0LI        -0.0278
     27 C12        88.1480    1.4090   18.1140 C.2       1 0LI         0.2262
     28 O1         87.1850    0.6870   17.9100 O.2       1 0LI        -0.3767
     29 N2         88.6400    1.7560   19.3560 N.am      1 0LI        -0.2315
     30 C14        88.1960    1.9660   21.6990 C.ar      1 0LI        -0.0148
     31 C16        87.1790    0.1930   22.9590 C.ar      1 0LI         0.0246
     32 C18        87.6020   -0.0650   20.6150 C.ar      1 0LI        -0.0202
     33 C19        86.5530   -1.9500   21.8310 C.3       1 0LI         0.3645
     34 F1         87.2060   -2.7300   22.7220 F         1 0LI        -0.2292
     35 F2         85.2390   -2.0060   22.1320 F         1 0LI        -0.2292
     36 F3         86.6350   -2.6340   20.6690 F         1 0LI        -0.2292
     37 C23        85.8220    1.4380   27.5690 C.3       1 0LI         0.0092
     38 C25        84.0810    3.1610   27.9440 C.3       1 0LI        -0.0427
     39 N4         84.5730    2.0690   27.0750 N.4       1 0LI         0.2405
     40 H          86.7747    1.4813   25.1368 H         1 0LI         0.2058
     41 H          91.4704    3.8905   16.0594 H         1 0LI         0.0565
     42 H          90.3147    3.0603   18.0752 H         1 0LI         0.0639
     43 H          87.5851    0.9144   15.5956 H         1 0LI         0.0649
     44 H          87.7709    2.0712   23.7878 H         1 0LI         0.0616
     45 H          85.8710   -1.0404   24.0650 H         1 0LI         0.1043
     46 H          87.5101   -0.8374   24.7712 H         1 0LI         0.1043
     47 H          84.0306    0.4901   25.0853 H         1 0LI         0.0868
     48 H          84.7801    1.4468   23.7625 H         1 0LI         0.0868
     49 H          83.6767    2.9795   25.3604 H         1 0LI         0.0868
     50 H          85.4581    3.1791   25.4761 H         1 0LI         0.0868
     51 H          87.2187   -0.0487   26.8868 H         1 0LI         0.0868
     52 H          85.4946   -0.5465   26.8067 H         1 0LI         0.0868
     53 H          85.6940   -0.4871    7.3362 H         1 0LI         0.0752
     54 H          84.4164    1.6126    7.2986 H         1 0LI         0.0701
     55 H          84.8397    3.2532    9.2100 H         1 0LI         0.0937
     56 H          88.9154   -1.3810   11.0258 H         1 0LI         0.0575
     57 H          90.4069    2.9369   12.5972 H         1 0LI         0.0404
     58 H          91.9426    2.9949   13.5270 H         1 0LI         0.0404
     59 H          90.8738    4.4373   13.4673 H         1 0LI         0.0404
     60 H          89.3799    2.4265   19.4095 H         1 0LI         0.2238
     61 H          88.6152    2.9651   21.6637 H         1 0LI         0.0763
     62 H          87.5561   -0.6728   19.7186 H         1 0LI         0.0655
     63 H          86.6321    2.1820   27.5766 H         1 0LI         0.0868
     64 H          85.6637    1.0577   28.5890 H         1 0LI         0.0868
     65 H          83.1572    3.5801   27.5186 H         1 0LI         0.0778
     66 H          84.8450    3.9496   28.0100 H         1 0LI         0.0778
     67 H          83.8750    2.7650   28.9494 H         1 0LI         0.0778
     68 H          83.8738    1.3445   27.1229 H         1 0LI         0.2035
@<TRIPOS>BOND
     1    1   21 2  
     2   22    1 1  
     3   12    2 1  
     4    2   13 1  
     5    2   15 1  
     6    4    3 1  
     7    3   24 3  
     8    4    5 ar 
     9    8    4 ar 
    10    6    5 ar 
    11    5   26 1  
    12    7    6 ar 
    13   25    7 ar 
    14   25    8 ar 
    15   29    9 1  
    16    9   30 ar 
    17    9   32 ar 
    18   30   10 ar 
    19   10   31 ar 
    20   11   31 ar 
    21   32   11 ar 
    22   11   33 1  
    23   31   12 1  
    24   13   14 1  
    25   14   39 1  
    26   15   37 1  
    27   16   17 2  
    28   21   16 1  
    29   18   17 1  
    30   19   18 2  
    31   20   19 1  
    32   20   21 1  
    33   23   20 1  
    34   23   22 2  
    35   24   23 1  
    36   27   25 1  
    37   27   28 2  
    38   27   29 am 
    39   33   34 1  
    40   33   35 1  
    41   33   36 1  
    42   37   39 1  
    43   39   38 1  
    44    2   40 1  
    45    6   41 1  
    46    7   42 1  
    47    8   43 1  
    48   10   44 1  
    49   12   45 1  
    50   12   46 1  
    51   13   47 1  
    52   13   48 1  
    53   14   49 1  
    54   14   50 1  
    55   15   51 1  
    56   15   52 1  
    57   16   53 1  
    58   17   54 1  
    59   18   55 1  
    60   22   56 1  
    61   26   57 1  
    62   26   58 1  
    63   26   59 1  
    64   29   60 1  
    65   30   61 1  
    66   32   62 1  
    67   37   63 1  
    68   37   64 1  
    69   38   65 1  
    70   38   66 1  
    71   38   67 1  
    72   39   68 1  
@<TRIPOS>SUBSTRUCTURE
     1 0LI         1

