### 
### Created by X-TOOL on Mon Sep 10 21:13:18 2018
### 

@<TRIPOS>MOLECULE
4v04_ligand
   68    72     1     0     0
SMALL
GAST_HUCK


@<TRIPOS>ATOM
      1 N1         87.3620   -0.8800    9.4030 N.2       1 0LI        -0.3247
      2 N3         85.9390    0.6900   25.2760 N.4       1 0LI         0.2588
      3 C4         88.3420    1.6940   13.3250 C.1       1 0LI        -0.0766
      4 C5         88.8380    2.0420   14.6170 C.ar      1 0LI         0.0257
      5 C6         89.9180    2.9050   14.7390 C.ar      1 0LI        -0.0273
      6 C7         90.4040    3.1610   16.0120 C.ar      1 0LI        -0.0547
      7 C8         89.8570    2.5550   17.1260 C.ar      1 0LI        -0.0494
      8 C10        88.3010    1.4220   15.7220 C.ar      1 0LI        -0.0347
      9 C13        88.0860    0.8470   20.6330 C.ar      1 0LI         0.0879
     10 C15        87.6090    1.2560   22.9390 C.ar      1 0LI        -0.0316
     11 C17        87.0070   -0.8390   21.9710 C.ar      1 0LI         0.0386
     12 C20        86.4490   -0.4200   24.4190 C.3       1 0LI         0.0130
     13 C21        84.6120    1.1880   24.8200 C.3       1 0LI         0.0114
     14 C22        84.1980    2.3870   25.6430 C.3       1 0LI         0.0092
     15 C24        85.8570    0.3150   26.6980 C.3       1 0LI         0.0114
     16 C81        85.5710    0.3820    8.2110 C.2       1 0LI         0.0052
     17 C82        84.8410    1.4950    8.3090 C.2       1 0LI        -0.0245
     18 C83        85.0460    2.3900    9.4020 C.2       1 0LI         0.0552
     19 N81        85.9110    2.2260   10.3550 N.2       1 0LI        -0.1413
     20 N82        86.6440    1.0680   10.2180 N.pl3     1 0LI        -0.1187
     21 C84        86.5180    0.1260    9.2110 C.2       1 0LI         0.1691
     22 C1         88.0290   -0.6000   10.5640 C.2       1 0LI        -0.0017
     23 C2         87.6140    0.6040   11.0650 C.2       1 0LI         0.1589
     24 C3         88.0130    1.2500   12.2600 C.1       1 0LI        -0.0467
     25 C9         88.8020    1.6770   16.9960 C.ar      1 0LI         0.0483
     26 C11        90.5340    3.5470   13.5460 C.3       1 0LI        -0.0278
     27 C12        88.1530    0.9510   18.1330 C.2       1 0LI         0.2262
     28 O1         87.2810    0.1370   17.9070 O.2       1 0LI        -0.3767
     29 N2         88.5990    1.2740   19.4050 N.am      1 0LI        -0.2315
     30 C14        88.1230    1.6790   21.7270 C.ar      1 0LI        -0.0148
     31 C16        87.0300    0.0040   23.0790 C.ar      1 0LI         0.0246
     32 C18        87.5400   -0.4090   20.7670 C.ar      1 0LI        -0.0202
     33 C19        86.3940   -2.2090   22.0080 C.3       1 0LI         0.3645
     34 F1         85.0870   -2.1510   22.3780 F         1 0LI        -0.2292
     35 F2         87.0430   -3.0830   22.8340 F         1 0LI        -0.2292
     36 F3         86.3740   -2.8420   20.8100 F         1 0LI        -0.2292
     37 C23        85.4470    1.4960   27.5490 C.3       1 0LI         0.0092
     38 C25        83.6600    3.1550   27.9290 C.3       1 0LI        -0.0427
     39 N4         84.1430    2.0350   27.0950 N.4       1 0LI         0.2405
     40 H          86.5958    1.4506   25.1979 H         1 0LI         0.2058
     41 H          91.2306    3.8513   16.1355 H         1 0LI         0.0565
     42 H          90.2598    2.7711   18.1089 H         1 0LI         0.0639
     43 H          87.4783    0.7269   15.5992 H         1 0LI         0.0649
     44 H          87.6598    1.9166   23.7970 H         1 0LI         0.0616
     45 H          85.6141   -1.1091   24.2240 H         1 0LI         0.1043
     46 H          87.2361   -0.9466   24.9786 H         1 0LI         0.1043
     47 H          83.8638    0.3902   24.9370 H         1 0LI         0.0868
     48 H          84.6762    1.4780   23.7609 H         1 0LI         0.0868
     49 H          83.2038    2.7248   25.3151 H         1 0LI         0.0868
     50 H          84.9277    3.1966   25.4947 H         1 0LI         0.0868
     51 H          86.8415   -0.0443   27.0323 H         1 0LI         0.0868
     52 H          85.1143   -0.4878   26.8157 H         1 0LI         0.0868
     53 H          85.4345   -0.3066    7.3785 H         1 0LI         0.0752
     54 H          84.0886    1.7205    7.5547 H         1 0LI         0.0701
     55 H          84.4253    3.2840    9.4390 H         1 0LI         0.0937
     56 H          88.7803   -1.2413   11.0225 H         1 0LI         0.0575
     57 H          90.0074    3.2162   12.6387 H         1 0LI         0.0404
     58 H          91.5935    3.2588   13.4806 H         1 0LI         0.0404
     59 H          90.4563    4.6405   13.6369 H         1 0LI         0.0404
     60 H          89.3860    1.8893   19.4497 H         1 0LI         0.2238
     61 H          88.5561    2.6688   21.6392 H         1 0LI         0.0763
     62 H          87.5267   -1.0758   19.9125 H         1 0LI         0.0655
     63 H          86.2116    2.2828   27.4689 H         1 0LI         0.0868
     64 H          85.3605    1.1742   28.5973 H         1 0LI         0.0868
     65 H          82.6929    3.5092   27.5427 H         1 0LI         0.0778
     66 H          84.3904    3.9769   27.8980 H         1 0LI         0.0778
     67 H          83.5370    2.8127   28.9671 H         1 0LI         0.0778
     68 H          83.4685    1.2924   27.1933 H         1 0LI         0.2035
@<TRIPOS>BOND
     1    1   21 2  
     2   22    1 1  
     3   12    2 1  
     4    2   13 1  
     5    2   15 1  
     6    4    3 1  
     7    3   24 3  
     8    4    5 ar 
     9    8    4 ar 
    10    6    5 ar 
    11    5   26 1  
    12    7    6 ar 
    13   25    7 ar 
    14   25    8 ar 
    15   29    9 1  
    16    9   30 ar 
    17    9   32 ar 
    18   30   10 ar 
    19   10   31 ar 
    20   11   31 ar 
    21   32   11 ar 
    22   11   33 1  
    23   31   12 1  
    24   13   14 1  
    25   14   39 1  
    26   15   37 1  
    27   16   17 2  
    28   21   16 1  
    29   18   17 1  
    30   19   18 2  
    31   20   19 1  
    32   20   21 1  
    33   23   20 1  
    34   23   22 2  
    35   24   23 1  
    36   27   25 1  
    37   27   28 2  
    38   27   29 am 
    39   33   34 1  
    40   33   35 1  
    41   33   36 1  
    42   37   39 1  
    43   39   38 1  
    44    2   40 1  
    45    6   41 1  
    46    7   42 1  
    47    8   43 1  
    48   10   44 1  
    49   12   45 1  
    50   12   46 1  
    51   13   47 1  
    52   13   48 1  
    53   14   49 1  
    54   14   50 1  
    55   15   51 1  
    56   15   52 1  
    57   16   53 1  
    58   17   54 1  
    59   18   55 1  
    60   22   56 1  
    61   26   57 1  
    62   26   58 1  
    63   26   59 1  
    64   29   60 1  
    65   30   61 1  
    66   32   62 1  
    67   37   63 1  
    68   37   64 1  
    69   38   65 1  
    70   38   66 1  
    71   38   67 1  
    72   39   68 1  
@<TRIPOS>SUBSTRUCTURE
     1 0LI         1

