### 
### Created by X-TOOL on Mon Sep 10 21:13:18 2018
### 

@<TRIPOS>MOLECULE
4v05_ligand
   68    71     1     0     0
SMALL
GAST_HUCK


@<TRIPOS>ATOM
      1 C          79.1170    2.5080    2.1840 C.3       1 66T        -0.0198
      2 N          81.9550    0.7140    3.9420 N.pl3     1 66T        -0.2952
      3 O          85.7280    2.6210    8.7860 O.2       1 66T        -0.3777
      4 C1         79.9480    1.3960    2.8060 C.3       1 66T        -0.0050
      5 N1         80.2020    0.3580    1.7900 N.4       1 66T         0.2338
      6 O1         91.8050    3.6390   16.3710 O.3       1 66T        -0.3257
      7 C2         81.2200    1.8520    3.3960 C.3       1 66T         0.0706
      8 N2         86.6080    0.5580    8.3700 N.am      1 66T        -0.2077
      9 O2         88.7910    0.2910   18.0050 O.3       1 66T        -0.3257
     10 C3         82.2490   -0.3680    3.0070 C.3       1 66T         0.0706
     11 N3         89.0970   -0.4620   10.6940 N.2       1 66T        -0.2598
     12 C4         80.9660   -0.7980    2.2940 C.3       1 66T        -0.0050
     13 N4         88.3710   -0.5600    9.5440 N.pl3     1 66T        -0.2146
     14 C5         81.2060   -1.7740    1.1550 C.3       1 66T        -0.0198
     15 C6         82.9100    1.0030    4.9220 C.ar      1 66T         0.0461
     16 C7         84.1890    0.4410    4.8620 C.ar      1 66T        -0.0381
     17 C8         85.0960    0.6400    5.8840 C.ar      1 66T        -0.0529
     18 C9         84.7490    1.3680    7.0190 C.ar      1 66T         0.0431
     19 C10        83.4640    1.8940    7.1030 C.ar      1 66T        -0.0529
     20 C11        82.5500    1.6970    6.0840 C.ar      1 66T        -0.0381
     21 C12        85.7270    1.5830    8.1300 C.2       1 66T         0.2276
     22 C13        87.4900    0.4690    9.4270 C.2       1 66T         0.1740
     23 C14        87.6910    1.2880   10.5060 C.2       1 66T        -0.0320
     24 C15        88.6950    0.6620   11.2640 C.2       1 66T        -0.0170
     25 C16        89.3150    1.1320   12.5520 C.3       1 66T        -0.0125
     26 C17        88.3700    1.9620   13.4400 C.3       1 66T        -0.0155
     27 C18        88.9590    2.0570   14.8290 C.ar      1 66T        -0.0587
     28 C19        88.4690    1.2600   15.8610 C.ar      1 66T        -0.0431
     29 C20        89.0560    1.3100   17.1190 C.ar      1 66T         0.0756
     30 C21        90.1610    2.1130   17.3520 C.ar      1 66T        -0.0125
     31 C22        90.6660    2.8780   16.3110 C.ar      1 66T         0.0756
     32 C23        90.0780    2.8510   15.0570 C.ar      1 66T        -0.0431
     33 C24        92.6160    3.5680   17.5520 C.3       1 66T         0.0590
     34 C25        89.0220    0.5180   19.4070 C.3       1 66T         0.0590
     35 H          78.9237    3.2863    2.9370 H         1 66T         0.0285
     36 H          78.1609    2.0963    1.8285 H         1 66T         0.0285
     37 H          79.6655    2.9456    1.3369 H         1 66T         0.0285
     38 H          79.3522    0.9497    3.6158 H         1 66T         0.0868
     39 H          80.7205    0.7752    1.0329 H         1 66T         0.2020
     40 H          79.3143    0.0262    1.4466 H         1 66T         0.2020
     41 H          81.8277    2.3391    2.6192 H         1 66T         0.0572
     42 H          81.0105    2.5707    4.2020 H         1 66T         0.0572
     43 H          86.6107   -0.1976    7.7150 H         1 66T         0.2318
     44 H          82.6652   -1.2242    3.5581 H         1 66T         0.0572
     45 H          82.9810   -0.0196    2.2635 H         1 66T         0.0572
     46 H          80.3424   -1.3111    3.0408 H         1 66T         0.0868
     47 H          88.4764   -1.3163    8.8528 H         1 66T         0.2433
     48 H          81.7759   -2.6383    1.5267 H         1 66T         0.0285
     49 H          81.7761   -1.2743    0.3579 H         1 66T         0.0285
     50 H          80.2399   -2.1162    0.7556 H         1 66T         0.0285
     51 H          84.4716   -0.1576    4.0036 H         1 66T         0.0530
     52 H          86.0932    0.2231    5.8014 H         1 66T         0.0636
     53 H          83.1755    2.4653    7.9779 H         1 66T         0.0636
     54 H          81.5427    2.0844    6.1859 H         1 66T         0.0530
     55 H          87.1816    2.2243   10.7289 H         1 66T         0.0128
     56 H          90.1912    1.7506   12.3078 H         1 66T         0.0429
     57 H          89.6374    0.2485   13.1225 H         1 66T         0.0429
     58 H          87.3857    1.4733   13.4892 H         1 66T         0.0442
     59 H          88.2576    2.9712   13.0170 H         1 66T         0.0442
     60 H          87.6282    0.5996   15.6821 H         1 66T         0.0390
     61 H          90.6233    2.1428   18.3320 H         1 66T         0.0408
     62 H          90.4904    3.4493   14.2526 H         1 66T         0.0390
     63 H          93.4850    4.2332   17.4406 H         1 66T         0.0577
     64 H          92.9621    2.5341   17.6976 H         1 66T         0.0577
     65 H          92.0230    3.8824   18.4235 H         1 66T         0.0577
     66 H          88.7623   -0.3888   19.9729 H         1 66T         0.0577
     67 H          88.3977    1.3560   19.7505 H         1 66T         0.0577
     68 H          90.0826    0.7603   19.5694 H         1 66T         0.0577
@<TRIPOS>BOND
     1    4    1 1  
     2    2    7 1  
     3    2   10 1  
     4   15    2 1  
     5   21    3 2  
     6    4    5 1  
     7    7    4 1  
     8   12    5 1  
     9   31    6 1  
    10    6   33 1  
    11    8   21 am 
    12   22    8 1  
    13   29    9 1  
    14    9   34 1  
    15   10   12 1  
    16   11   13 1  
    17   24   11 2  
    18   12   14 1  
    19   22   13 1  
    20   16   15 ar 
    21   20   15 ar 
    22   17   16 ar 
    23   18   17 ar 
    24   18   19 ar 
    25   21   18 1  
    26   19   20 ar 
    27   23   22 2  
    28   24   23 1  
    29   25   24 1  
    30   26   25 1  
    31   27   26 1  
    32   28   27 ar 
    33   27   32 ar 
    34   29   28 ar 
    35   30   29 ar 
    36   30   31 ar 
    37   31   32 ar 
    38    1   35 1  
    39    1   36 1  
    40    1   37 1  
    41    4   38 1  
    42    5   39 1  
    43    5   40 1  
    44    7   41 1  
    45    7   42 1  
    46    8   43 1  
    47   10   44 1  
    48   10   45 1  
    49   12   46 1  
    50   13   47 1  
    51   14   48 1  
    52   14   49 1  
    53   14   50 1  
    54   16   51 1  
    55   17   52 1  
    56   19   53 1  
    57   20   54 1  
    58   23   55 1  
    59   25   56 1  
    60   25   57 1  
    61   26   58 1  
    62   26   59 1  
    63   28   60 1  
    64   30   61 1  
    65   32   62 1  
    66   33   63 1  
    67   33   64 1  
    68   33   65 1  
    69   34   66 1  
    70   34   67 1  
    71   34   68 1  
@<TRIPOS>SUBSTRUCTURE
     1 66T         1

