### 
### Created by X-TOOL on Mon Sep 10 21:13:25 2018
### 

@<TRIPOS>MOLECULE
4v0i_ligand
   48    51     1     0     0
SMALL
GAST_HUCK


@<TRIPOS>ATOM
      1 C1          7.9130   -3.4120    9.2940 C.2       1 J82         0.0773
      2 N2          7.3130   -2.6720    8.2930 N.pl3     1 J82        -0.2909
      3 C3          6.0960   -1.9130    8.5260 C.3       1 J82         0.0554
      4 C4          6.1110   -0.6900    7.6370 C.3       1 J82         0.0683
      5 O5          6.1910   -1.1210    6.2840 O.3       1 J82        -0.3757
      6 C6          7.4660   -1.7160    6.0690 C.3       1 J82         0.0683
      7 C7          7.5710   -2.9800    6.8950 C.3       1 J82         0.0554
      8 N8          8.9280   -4.2820    8.9780 N.2       1 J82        -0.2709
      9 C9          9.4720   -4.9570    9.9360 C.2       1 J82         0.1720
     10 N10         9.1060   -4.8760   11.2490 N.am      1 J82        -0.1993
     11 C11         8.1070   -4.0290   11.6500 C.2       1 J82         0.1812
     12 C12         7.4830   -3.2500   10.5570 C.2       1 J82         0.0016
     13 O13         7.7290   -3.8970   12.8040 O.2       1 J82        -0.4280
     14 C14        10.5720   -5.9240    9.6570 C.3       1 J82         0.1358
     15 C15        10.0180   -7.2300    9.1860 C.2       1 J82         0.2289
     16 O16         9.2600   -7.8650    9.9050 O.2       1 J82        -0.3803
     17 N17        10.4220   -7.5880    7.9100 N.am      1 J82        -0.2157
     18 C18        11.5590   -7.6950    5.8110 C.3       1 J82         0.0049
     19 C19        11.4710   -6.9450    7.1320 C.3       1 J82         0.0699
     20 C20        10.7400   -8.8970    6.0990 C.ar      1 J82        -0.0182
     21 C21        10.1010   -8.8020    7.3020 C.ar      1 J82         0.0724
     22 C22         9.2850   -9.8080    7.7690 C.ar      1 J82        -0.0473
     23 C23         9.1290  -10.9270    6.9770 C.ar      1 J82        -0.0825
     24 C24         9.7800  -11.0270    5.7630 C.ar      1 J82        -0.0840
     25 C25        10.5910  -10.0100    5.3050 C.ar      1 J82        -0.0734
     26 C26        12.8120   -7.1090    7.8090 C.3       1 J82        -0.0353
     27 H1          6.0486   -1.6037    9.5805 H         1 J82         0.0548
     28 H2          5.2205   -2.5343    8.2864 H         1 J82         0.0548
     29 H3          6.9826   -0.0645    7.8800 H         1 J82         0.0580
     30 H4          5.1892   -0.1092    7.7882 H         1 J82         0.0580
     31 H5          8.2559   -1.0126    6.3709 H         1 J82         0.0580
     32 H6          7.5821   -1.9623    5.0032 H         1 J82         0.0580
     33 H7          6.8316   -3.7124    6.5390 H         1 J82         0.0548
     34 H8          8.5822   -3.4008    6.7934 H         1 J82         0.0548
     35 H9          9.5737   -5.4429   11.9272 H         1 J82         0.2563
     36 H10         6.6790   -2.5487   10.7753 H         1 J82         0.0161
     37 H11        11.1512   -6.0881   10.5776 H         1 J82         0.0812
     38 H12        11.2296   -5.5088    8.8791 H         1 J82         0.0812
     39 H13        12.5979   -7.9648    5.5704 H         1 J82         0.0424
     40 H14        11.1324   -7.1064    4.9854 H         1 J82         0.0424
     41 H15        11.2416   -5.8805    6.9766 H         1 J82         0.0636
     42 H16         8.7825   -9.7238    8.7258 H         1 J82         0.0480
     43 H17         8.4891  -11.7357    7.3109 H         1 J82         0.0520
     44 H18         9.6514  -11.9190    5.1607 H         1 J82         0.0470
     45 H19        11.0955  -10.0855    4.3485 H         1 J82         0.0513
     46 H20        13.5896   -6.6170    7.2063 H         1 J82         0.0258
     47 H21        13.0456   -8.1796    7.9055 H         1 J82         0.0258
     48 H22        12.7771   -6.6497    8.8079 H         1 J82         0.0258
@<TRIPOS>BOND
     1    1    2 1  
     2    1    8 1  
     3    1   12 2  
     4    2    3 1  
     5    2    7 1  
     6    3    4 1  
     7    4    5 1  
     8    5    6 1  
     9    6    7 1  
    10    8    9 2  
    11    9   10 1  
    12    9   14 1  
    13   10   11 am 
    14   11   12 1  
    15   11   13 2  
    16   14   15 1  
    17   15   16 2  
    18   15   17 am 
    19   17   19 1  
    20   17   21 1  
    21   19   18 1  
    22   18   20 1  
    23   19   26 1  
    24   20   21 ar 
    25   20   25 ar 
    26   21   22 ar 
    27   22   23 ar 
    28   23   24 ar 
    29   24   25 ar 
    30    3   27 1  
    31    3   28 1  
    32    4   29 1  
    33    4   30 1  
    34    6   31 1  
    35    6   32 1  
    36    7   33 1  
    37    7   34 1  
    38   10   35 1  
    39   12   36 1  
    40   14   37 1  
    41   14   38 1  
    42   18   39 1  
    43   18   40 1  
    44   19   41 1  
    45   22   42 1  
    46   23   43 1  
    47   24   44 1  
    48   25   45 1  
    49   26   46 1  
    50   26   47 1  
    51   26   48 1  
@<TRIPOS>SUBSTRUCTURE
     1 J82         1

