### 
### Created by X-TOOL on Mon Sep 10 21:13:20 2018
### 

@<TRIPOS>MOLECULE
4v1f_ligand
   21    22     1     0     0
SMALL
GAST_HUCK


@<TRIPOS>ATOM
      1 BR       -161.8920   64.2870   29.8880 Br        1 BQ1        -0.0507
      2 O03      -154.4350   66.5190   27.0670 O.3       1 BQ1        -0.2978
      3 N05      -156.6250   65.4960   27.1080 N.ar      1 BQ1        -0.2776
      4 C10      -155.8940   66.7530   29.0130 C.ar      1 BQ1         0.0029
      5 C15      -157.0840   66.4830   29.6480 C.ar      1 BQ1        -0.0360
      6 C17      -155.6620   66.2500   27.7310 C.ar      1 BQ1         0.1649
      7 C22      -158.0360   65.7260   29.0250 C.ar      1 BQ1         0.0022
      8 C24      -157.8040   65.2340   27.7450 C.ar      1 BQ1         0.0338
      9 C33      -159.2370   65.4550   29.6630 C.ar      1 BQ1        -0.0402
     10 C34      -158.7960   64.4550   27.0950 C.ar      1 BQ1        -0.0448
     11 C35      -160.2280   64.6730   29.0110 C.ar      1 BQ1         0.0150
     12 C36      -159.9990   64.1810   27.7410 C.ar      1 BQ1        -0.0516
     13 C37      -154.2100   65.6770   25.9130 C.3       1 BQ1         0.0651
     14 H1       -155.1388   67.3543   29.5061 H         1 BQ1         0.0667
     15 H2       -157.2668   66.8711   30.6435 H         1 BQ1         0.0766
     16 H3       -159.4199   65.8400   30.6597 H         1 BQ1         0.0684
     17 H4       -158.6176   64.0734   26.0962 H         1 BQ1         0.0611
     18 H5       -160.7554   63.5818   27.2472 H         1 BQ1         0.0656
     19 H6       -153.2469   65.9387   25.4504 H         1 BQ1         0.0587
     20 H7       -155.0200   65.8292   25.1845 H         1 BQ1         0.0587
     21 H8       -154.1918   64.6227   26.2263 H         1 BQ1         0.0587
@<TRIPOS>BOND
     1   11    1 1  
     2    6    2 1  
     3    2   13 1  
     4    3    6 ar 
     5    8    3 ar 
     6    5    4 ar 
     7    4    6 ar 
     8    7    5 ar 
     9    7    8 ar 
    10    9    7 ar 
    11    8   10 ar 
    12    9   11 ar 
    13   10   12 ar 
    14   11   12 ar 
    15    4   14 1  
    16    5   15 1  
    17    9   16 1  
    18   10   17 1  
    19   12   18 1  
    20   13   19 1  
    21   13   20 1  
    22   13   21 1  
@<TRIPOS>SUBSTRUCTURE
     1 BQ1         1

