### 
### Created by X-TOOL on Mon Sep 10 21:13:18 2018
### 

@<TRIPOS>MOLECULE
4v24_ligand
   65    68     1     0     0
SMALL
GAST_HUCK


@<TRIPOS>ATOM
      1 OBG       -27.8050   16.4830  -16.7300 O.2       1 GYR        -0.1673
      2 SAJ       -27.9490   15.0440  -16.6700 S.o2      1 GYR         0.0062
      3 OBF       -28.7830   14.3710  -17.6280 O.2       1 GYR        -0.1673
      4 CAK       -28.5230   14.6360  -15.0480 C.ar      1 GYR         0.0904
      5 CAR       -28.1740   15.4450  -13.9830 C.ar      1 GYR        -0.0367
      6 CAQ       -28.6810   15.1600  -12.7290 C.ar      1 GYR        -0.0600
      7 CAP       -29.4960   14.0810  -12.5400 C.ar      1 GYR        -0.0616
      8 CAO       -29.8420   13.2780  -13.6060 C.ar      1 GYR        -0.0600
      9 CAN       -29.3620   13.5510  -14.8720 C.ar      1 GYR        -0.0367
     10 CAI       -26.3020   14.3430  -16.7470 C.3       1 GYR         0.1005
     11 CAB       -26.2730   12.8810  -17.0940 C.ar      1 GYR        -0.0373
     12 CAA       -26.2670   12.5070  -18.4310 C.ar      1 GYR        -0.0689
     13 CAF       -25.9740   11.2110  -18.8190 C.ar      1 GYR        -0.0615
     14 CAG       -25.8810   10.8570  -20.2830 C.3       1 GYR        -0.0351
     15 CAE       -25.6980   10.2610  -17.8330 C.ar      1 GYR        -0.0392
     16 CAD       -25.7100   10.6230  -16.4910 C.ar      1 GYR         0.0805
     17 CAC       -26.0270   11.9220  -16.1150 C.ar      1 GYR        -0.0374
     18 OAH       -25.3470    9.8040  -15.4280 O.3       1 GYR        -0.3101
     19 CAL       -24.9490    8.4330  -15.6980 C.3       1 GYR         0.1010
     20 CAM       -24.4110    7.7460  -14.4640 C.ar      1 GYR        -0.0196
     21 CAS       -24.6530    6.4030  -14.2440 C.ar      1 GYR        -0.0641
     22 CAT       -24.2850    5.7920  -13.0520 C.ar      1 GYR        -0.0617
     23 CAU       -23.6530    6.5050  -12.0440 C.ar      1 GYR        -0.0053
     24 CAV       -23.3750    7.8400  -12.2800 C.ar      1 GYR        -0.0617
     25 CAW       -23.7480    8.4520  -13.4700 C.ar      1 GYR        -0.0641
     26 CAX       -23.2750    5.8520  -10.7230 C.3       1 GYR        -0.0007
     27 NAY       -24.4280    5.2330   -9.9000 N.4       1 GYR         0.2500
     28 CAZ       -25.4300    6.1640   -9.1910 C.3       1 GYR         0.0042
     29 CBD       -26.8230    6.0830   -9.7870 C.3       1 GYR         0.0869
     30 OBE       -27.4240    4.8060   -9.6020 O.3       1 GYR        -0.3895
     31 CBA       -25.4420    5.8650   -7.6910 C.3       1 GYR        -0.0027
     32 CBB       -24.1620    5.1390   -7.4870 C.3       1 GYR        -0.0073
     33 CBC       -23.9950    4.3300   -8.7640 C.3       1 GYR        -0.0301
     34 H         -27.5121   16.2909  -14.1291 H         1 GYR         0.0637
     35 H         -28.4296   15.7979  -11.8894 H         1 GYR         0.0618
     36 H         -29.8722   13.8550  -11.5488 H         1 GYR         0.0618
     37 H         -30.4949   12.4270  -13.4495 H         1 GYR         0.0618
     38 H         -29.6382   12.9255  -15.7131 H         1 GYR         0.0637
     39 H         -25.8243   14.4744  -15.7649 H         1 GYR         0.0665
     40 H         -25.7288   14.8905  -17.5097 H         1 GYR         0.0665
     41 H         -26.4971   13.2472  -19.1888 H         1 GYR         0.0404
     42 H         -25.6415    9.7885  -20.3873 H         1 GYR         0.0388
     43 H         -25.0903   11.4578  -20.7560 H         1 GYR         0.0388
     44 H         -26.8434   11.0665  -20.7728 H         1 GYR         0.0388
     45 H         -25.4738    9.2386  -18.1151 H         1 GYR         0.0423
     46 H         -26.0826   12.1876  -15.0655 H         1 GYR         0.0424
     47 H         -24.1674    8.4360  -16.4720 H         1 GYR         0.0765
     48 H         -25.8238    7.8745  -16.0624 H         1 GYR         0.0765
     49 H         -25.1386    5.8162  -15.0153 H         1 GYR         0.0541
     50 H         -24.4956    4.7386  -12.9069 H         1 GYR         0.0542
     51 H         -22.8572    8.4181  -11.5232 H         1 GYR         0.0542
     52 H         -23.5171    9.4997  -13.6250 H         1 GYR         0.0541
     53 H         -22.7934    6.6184  -10.0980 H         1 GYR         0.0967
     54 H         -22.5538    5.0507  -10.9415 H         1 GYR         0.0967
     55 H         -24.9487    4.6790  -10.5618 H         1 GYR         0.2051
     56 H         -25.0770    7.1971   -9.3254 H         1 GYR         0.0874
     57 H         -26.7572    6.2885  -10.8656 H         1 GYR         0.0614
     58 H         -27.4565    6.8434   -9.3068 H         1 GYR         0.0614
     59 H         -26.8884    4.1417  -10.0195 H         1 GYR         0.2097
     60 H         -26.3019    5.2348   -7.4199 H         1 GYR         0.0322
     61 H         -25.4682    6.7939   -7.1025 H         1 GYR         0.0322
     62 H         -24.2220    4.4781   -6.6097 H         1 GYR         0.0319
     63 H         -23.3278    5.8444   -7.3583 H         1 GYR         0.0319
     64 H         -22.9433    4.0342   -8.8924 H         1 GYR         0.0815
     65 H         -24.6274    3.4306   -8.7303 H         1 GYR         0.0815
@<TRIPOS>BOND
     1    1    2 2  
     2    2    3 2  
     3    2    4 1  
     4    2   10 1  
     5    4    5 ar 
     6    4    9 ar 
     7    5    6 ar 
     8    6    7 ar 
     9    7    8 ar 
    10    8    9 ar 
    11   10   11 1  
    12   11   12 ar 
    13   11   17 ar 
    14   12   13 ar 
    15   13   14 1  
    16   13   15 ar 
    17   15   16 ar 
    18   16   17 ar 
    19   16   18 1  
    20   18   19 1  
    21   19   20 1  
    22   20   21 ar 
    23   20   25 ar 
    24   21   22 ar 
    25   22   23 ar 
    26   23   24 ar 
    27   23   26 1  
    28   24   25 ar 
    29   26   27 1  
    30   27   28 1  
    31   27   33 1  
    32   28   29 1  
    33   28   31 1  
    34   29   30 1  
    35   31   32 1  
    36   32   33 1  
    37    5   34 1  
    38    6   35 1  
    39    7   36 1  
    40    8   37 1  
    41    9   38 1  
    42   10   39 1  
    43   10   40 1  
    44   12   41 1  
    45   14   42 1  
    46   14   43 1  
    47   14   44 1  
    48   15   45 1  
    49   17   46 1  
    50   19   47 1  
    51   19   48 1  
    52   21   49 1  
    53   22   50 1  
    54   24   51 1  
    55   25   52 1  
    56   26   53 1  
    57   26   54 1  
    58   27   55 1  
    59   28   56 1  
    60   29   57 1  
    61   29   58 1  
    62   30   59 1  
    63   31   60 1  
    64   31   61 1  
    65   32   62 1  
    66   32   63 1  
    67   33   64 1  
    68   33   65 1  
@<TRIPOS>SUBSTRUCTURE
     1 GYR         1

