### 
### Created by X-TOOL on Mon Sep 10 21:13:19 2018
### 

@<TRIPOS>MOLECULE
4v25_ligand
   62    65     1     0     0
SMALL
GAST_HUCK


@<TRIPOS>ATOM
      1 C8         44.0800  -45.5280   -6.1080 C.3       1 SZ6        -0.0219
      2 C2         45.0030  -45.0930   -7.2120 C.ar      1 SZ6         0.0059
      3 C1         45.9220  -44.1060   -6.9520 C.ar      1 SZ6         0.0228
      4 N6         46.7440  -43.7040   -7.8760 N.ar      1 SZ6        -0.2639
      5 C5         46.6910  -44.2520   -9.0730 C.ar      1 SZ6         0.1857
      6 CL7        47.7420  -43.7150  -10.2880 Cl        1 SZ6        -0.0159
      7 N4         45.8110  -45.1990   -9.3580 N.ar      1 SZ6        -0.2591
      8 C3         44.9590  -45.6600   -8.4610 C.ar      1 SZ6         0.0581
      9 C9         44.0610  -46.6510   -8.8200 C.ar      1 SZ6        -0.0110
     10 C14        43.6670  -47.6510   -7.9660 C.ar      1 SZ6        -0.0617
     11 C13        42.7690  -48.6250   -8.3640 C.ar      1 SZ6        -0.0358
     12 C10        43.5430  -46.6470  -10.0860 C.ar      1 SZ6        -0.0617
     13 C11        42.6530  -47.6190  -10.4800 C.ar      1 SZ6        -0.0358
     14 C12        42.2400  -48.6070   -9.6240 C.ar      1 SZ6         0.0756
     15 N15        41.3990  -49.5260  -10.0480 N.am      1 SZ6        -0.2088
     16 C16        40.2050  -49.2140  -10.4940 C.2       1 SZ6         0.2254
     17 O19        39.4270  -50.0210  -10.9310 O.2       1 SZ6        -0.3826
     18 C18        39.7790  -47.7830  -10.4220 C.ar      1 SZ6         0.0740
     19 C28        39.6780  -47.1510   -9.2070 C.ar      1 SZ6        -0.0576
     20 C29        39.2700  -45.8400   -9.1480 C.ar      1 SZ6        -0.0378
     21 C30        38.9520  -45.1810  -10.2920 C.ar      1 SZ6         0.0846
     22 O33        38.5690  -43.9220  -10.2560 O.3       1 SZ6        -0.3324
     23 C31        39.0450  -45.8030  -11.4910 C.ar      1 SZ6         0.0008
     24 C32        39.4360  -47.1080  -11.5480 C.ar      1 SZ6         0.1013
     25 O34        39.5260  -47.7280  -12.7100 O.3       1 SZ6        -0.3304
     26 C17        41.8360  -50.9030  -10.0100 C.3       1 SZ6         0.0867
     27 C20        42.7970  -51.2510  -11.0990 C.ar      1 SZ6        -0.0217
     28 C25        44.1360  -51.4200  -10.8550 C.ar      1 SZ6        -0.0643
     29 C24        44.9940  -51.7340  -11.8800 C.ar      1 SZ6        -0.0648
     30 C21        42.3100  -51.4290  -12.3560 C.ar      1 SZ6        -0.0643
     31 C22        43.1570  -51.7510  -13.3730 C.ar      1 SZ6        -0.0648
     32 C23        44.4920  -51.9210  -13.1390 C.ar      1 SZ6        -0.0277
     33 C26        45.3760  -52.2540  -14.3080 C.3       1 SZ6         0.0616
     34 N27        45.5960  -53.6750  -14.5230 N.am      1 SZ6        -0.2720
     35 C35        46.7560  -54.1900  -14.2090 C.2       1 SZ6         0.2446
     36 O37        47.6510  -53.5660  -13.6900 O.2       1 SZ6        -0.3907
     37 C36        46.9740  -55.6340  -14.4590 C.3       1 SZ6         0.3267
     38 F39        45.7840  -56.2700  -14.4660 F         1 SZ6        -0.1849
     39 F38        47.7460  -56.0870  -13.4330 F         1 SZ6        -0.1849
     40 H          44.2911  -44.9420   -5.2013 H         1 SZ6         0.0410
     41 H          44.2366  -46.5965   -5.8987 H         1 SZ6         0.0410
     42 H          43.0369  -45.3637   -6.4161 H         1 SZ6         0.0410
     43 H          45.9626  -43.6573   -5.9660 H         1 SZ6         0.0845
     44 H          44.0678  -47.6779   -6.9592 H         1 SZ6         0.0611
     45 H          42.4828  -49.4083   -7.6714 H         1 SZ6         0.0518
     46 H          43.8362  -45.8716  -10.7844 H         1 SZ6         0.0611
     47 H          42.2683  -47.6034  -11.4933 H         1 SZ6         0.0518
     48 H          39.9198  -47.6856   -8.2955 H         1 SZ6         0.0616
     49 H          39.2023  -45.3338   -8.1918 H         1 SZ6         0.0470
     50 H          38.3876  -43.6220  -11.1389 H         1 SZ6         0.2498
     51 H          38.8095  -45.2654  -12.4024 H         1 SZ6         0.0475
     52 H          38.6763  -47.7270  -13.1348 H         1 SZ6         0.2506
     53 H          40.9527  -51.5518  -10.1041 H         1 SZ6         0.0741
     54 H          42.3247  -51.0871   -9.0419 H         1 SZ6         0.0741
     55 H          44.5190  -51.3051   -9.8475 H         1 SZ6         0.0541
     56 H          46.0573  -51.8326  -11.6938 H         1 SZ6         0.0540
     57 H          41.2493  -51.3148  -12.5484 H         1 SZ6         0.0541
     58 H          42.7680  -51.8735  -14.3774 H         1 SZ6         0.0540
     59 H          46.3538  -51.7778  -14.1437 H         1 SZ6         0.0670
     60 H          44.9136  -51.8386  -15.2155 H         1 SZ6         0.0670
     61 H          44.8718  -54.2492  -14.9049 H         1 SZ6         0.1878
     62 H          47.4850  -55.7880  -15.4208 H         1 SZ6         0.1272
@<TRIPOS>BOND
     1    1    2 1  
     2    2    3 ar 
     3    2    8 ar 
     4    3    4 ar 
     5    4    5 ar 
     6    5    6 1  
     7    5    7 ar 
     8    7    8 ar 
     9    8    9 1  
    10    9   10 ar 
    11    9   12 ar 
    12   10   11 ar 
    13   11   14 ar 
    14   12   13 ar 
    15   13   14 ar 
    16   14   15 1  
    17   15   16 am 
    18   15   26 1  
    19   16   17 2  
    20   16   18 1  
    21   18   19 ar 
    22   18   24 ar 
    23   19   20 ar 
    24   20   21 ar 
    25   21   22 1  
    26   21   23 ar 
    27   23   24 ar 
    28   24   25 1  
    29   26   27 1  
    30   27   28 ar 
    31   27   30 ar 
    32   28   29 ar 
    33   29   32 ar 
    34   30   31 ar 
    35   31   32 ar 
    36   32   33 1  
    37   33   34 1  
    38   34   35 am 
    39   35   36 2  
    40   35   37 1  
    41   37   38 1  
    42   37   39 1  
    43    1   40 1  
    44    1   41 1  
    45    1   42 1  
    46    3   43 1  
    47   10   44 1  
    48   11   45 1  
    49   12   46 1  
    50   13   47 1  
    51   19   48 1  
    52   20   49 1  
    53   22   50 1  
    54   23   51 1  
    55   25   52 1  
    56   26   53 1  
    57   26   54 1  
    58   28   55 1  
    59   29   56 1  
    60   30   57 1  
    61   31   58 1  
    62   33   59 1  
    63   33   60 1  
    64   34   61 1  
    65   37   62 1  
@<TRIPOS>SUBSTRUCTURE
     1 SZ6         1

