### 
### Created by X-TOOL on Mon Sep 10 21:13:16 2018
### 

@<TRIPOS>MOLECULE
4v27_ligand
   45    46     1     0     0
SMALL
GAST_HUCK


@<TRIPOS>ATOM
      1 C1         21.6970    3.0360   -6.9630 C.3       1 MAN         0.1886
      2 C2         21.5890    2.0420   -8.1250 C.3       1 MAN         0.1341
      3 C3         22.3760    2.5340   -9.3410 C.3       1 MAN         0.1141
      4 C4         22.0260    3.9870   -9.6720 C.3       1 MAN         0.1119
      5 C5         22.2030    4.8580   -8.4300 C.3       1 MAN         0.1130
      6 C6         21.8280    6.3100   -8.7380 C.3       1 MAN         0.0730
      7 O2         20.2280    2.0050   -8.4620 O.3       1 MAN        -0.3841
      8 O3         22.1190    1.6860  -10.4450 O.3       1 MAN        -0.3864
      9 O4         22.8150    4.5030  -10.7330 O.3       1 MAN        -0.3865
     10 O5         21.3680    4.3470   -7.4020 O.3       1 MAN        -0.3405
     11 O6         22.1180    7.1290   -7.6310 O.3       1 MAN        -0.3924
     12 O4         24.0450    1.3040   -4.2440 O.3       1 IFM        -0.3885
     13 C4         24.3010    2.7170   -4.3600 C.3       1 IFM         0.0961
     14 C3         23.1000    3.3690   -5.0530 C.3       1 IFM         0.1275
     15 O3         22.9900    2.8500   -6.3850 O.3       1 IFM        -0.3376
     16 C2         23.2180    4.9010   -5.1010 C.3       1 IFM        -0.0042
     17 N          23.4350    5.3870   -3.7470 N.4       1 IFM         0.2292
     18 C1         24.6210    4.8690   -3.0750 C.3       1 IFM        -0.0261
     19 C5         24.5260    3.3360   -2.9750 C.3       1 IFM         0.0507
     20 C6         25.7640    2.7940   -2.2670 C.3       1 IFM         0.0543
     21 O6         26.9400    2.9690   -3.0790 O.3       1 IFM        -0.3945
     22 H          20.9546    2.7653   -6.1978 H         1 MAN         0.0938
     23 H          21.9491    1.0485   -7.8197 H         1 MAN         0.0671
     24 H          23.4493    2.4844   -9.1053 H         1 MAN         0.0648
     25 H          20.9707    4.0234   -9.9802 H         1 MAN         0.0647
     26 H          23.2526    4.8194   -8.1031 H         1 MAN         0.0647
     27 H          20.7527    6.3685   -8.9621 H         1 MAN         0.0584
     28 H          22.4035    6.6577   -9.6086 H         1 MAN         0.0584
     29 H          19.9393    2.8769   -8.7050 H         1 MAN         0.2101
     30 H          21.1977    1.7339  -10.6719 H         1 MAN         0.2100
     31 H          22.5396    5.3910  -10.9281 H         1 MAN         0.2100
     32 H          23.0468    7.0805   -7.4373 H         1 MAN         0.2095
     33 H          24.7816    0.8840   -3.8156 H         1 MAN         0.2099
     34 H          25.2023    2.8745   -4.9706 H         1 MAN         0.0626
     35 H          22.1903    3.1093   -4.4917 H         1 MAN         0.0677
     36 H          22.2911    5.3326   -5.5066 H         1 MAN         0.0840
     37 H          24.0664    5.1886   -5.7394 H         1 MAN         0.0840
     38 H          22.6305    5.1353   -3.1943 H         1 MAN         0.2014
     39 H          23.5146    6.3911   -3.7867 H         1 MAN         0.2014
     40 H          24.6871    5.2989   -2.0646 H         1 MAN         0.0818
     41 H          25.5176    5.1440   -3.6498 H         1 MAN         0.0818
     42 H          23.6516    3.0860   -2.3562 H         1 MAN         0.0401
     43 H          25.6226    1.7220   -2.0649 H         1 MAN         0.0562
     44 H          25.8995    3.3316   -1.3169 H         1 MAN         0.0562
     45 H          27.0683    3.8940   -3.2534 H         1 MAN         0.2094
@<TRIPOS>BOND
     1    1    2 1  
     2    1   10 1  
     3   15    1 1  
     4    2    3 1  
     5    2    7 1  
     6    3    4 1  
     7    3    8 1  
     8    5    4 1  
     9    4    9 1  
    10    5    6 1  
    11   10    5 1  
    12    6   11 1  
    13   13   12 1  
    14   14   13 1  
    15   13   19 1  
    16   14   15 1  
    17   14   16 1  
    18   16   17 1  
    19   17   18 1  
    20   18   19 1  
    21   19   20 1  
    22   20   21 1  
    23    1   22 1  
    24    2   23 1  
    25    3   24 1  
    26    4   25 1  
    27    5   26 1  
    28    6   27 1  
    29    6   28 1  
    30    7   29 1  
    31    8   30 1  
    32    9   31 1  
    33   11   32 1  
    34   12   33 1  
    35   13   34 1  
    36   14   35 1  
    37   16   36 1  
    38   16   37 1  
    39   17   38 1  
    40   17   39 1  
    41   18   40 1  
    42   18   41 1  
    43   19   42 1  
    44   20   43 1  
    45   20   44 1  
    46   21   45 1  
@<TRIPOS>SUBSTRUCTURE
     1 MAN         1

