### 
### Created by X-TOOL on Mon Sep 10 21:13:24 2018
### 

@<TRIPOS>MOLECULE
4w4v_ligand
   51    54     1     0     0
SMALL
GAST_HUCK


@<TRIPOS>ATOM
      1 C10        76.5000   76.8110   29.7190 C.ar      1 3H8        -0.0606
      2 C18        72.8410   81.8170   32.9890 C.2       1 3H8         0.3070
      3 C11        75.4440   77.5000   30.3140 C.ar      1 3H8        -0.0221
      4 C12        74.9020   77.0440   31.5240 C.ar      1 3H8         0.1111
      5 C13        75.4020   75.8790   32.0960 C.ar      1 3H8        -0.0061
      6 C16        72.6370   79.3600   32.8820 C.2       1 3H8         0.0777
      7 C15        73.8400   79.0520   32.2770 C.2       1 3H8         0.0749
      8 C23        71.0210   82.3950   36.9980 C.ar      1 3H8        -0.0755
      9 C24        69.9560   83.3080   37.0140 C.ar      1 3H8        -0.0767
     10 C22        71.8380   82.3170   35.8630 C.ar      1 3H8        -0.0409
     11 C21        71.5910   83.1380   34.7250 C.ar      1 3H8         0.0810
     12 C26        70.5380   84.0400   34.7420 C.ar      1 3H8         0.0591
     13 C31        77.6930   70.8530   35.3390 C.ar      1 3H8        -0.0142
     14 C30        77.4460   71.9450   34.5040 C.ar      1 3H8        -0.0211
     15 N32        76.8110   69.8320   35.3640 N.ar      1 3H8        -0.3209
     16 C28        72.0300   78.1490   33.1970 C.2       1 3H8         0.0231
     17 C01        74.7670   68.6990   34.7190 C.3       1 3H8        -0.0200
     18 C02        75.6860   69.8490   34.6250 C.ar      1 3H8         0.0071
     19 C03        75.3870   70.9270   33.7840 C.ar      1 3H8        -0.0143
     20 C04        76.3040   71.9760   33.6950 C.ar      1 3H8         0.0790
     21 N05        76.0020   73.1330   32.9070 N.am      1 3H8        -0.2261
     22 C06        76.9470   73.9640   32.1960 C.2       1 3H8         0.2345
     23 O07        78.1500   73.7210   32.1900 O.2       1 3H8        -0.3710
     24 C08        76.4450   75.1740   31.4910 C.ar      1 3H8         0.0526
     25 C09        77.0000   75.6410   30.2940 C.ar      1 3H8        -0.0486
     26 N14        73.9080   77.7100   32.1380 N.pl3     1 3H8        -0.1778
     27 N17        72.2560   80.5760   33.3450 N.am      1 3H8        -0.2331
     28 O19        73.6470   81.8590   32.0980 O.2       1 3H8        -0.3844
     29 N20        72.4650   83.0480   33.5950 N.am      1 3H8        -0.2151
     30 C25        69.7510   84.1440   35.9110 C.ar      1 3H8        -0.0617
     31 CL         70.2380   85.1100   33.3930 Cl        1 3H8        -0.0832
     32 N29        72.8140   77.1530   32.7330 N.2       1 3H8        -0.2111
     33 H1         76.9371   77.1873   28.8011 H         1 3H8         0.0610
     34 H2         75.0419   78.3886   29.8409 H         1 3H8         0.0618
     35 H3         74.9766   75.5133   33.0236 H         1 3H8         0.0634
     36 H4         74.6009   79.7664   31.9663 H         1 3H8         0.0766
     37 H5         71.2094   81.7573   37.8541 H         1 3H8         0.0579
     38 H6         69.2977   83.3653   37.8733 H         1 3H8         0.0487
     39 H7         72.6700   81.6222   35.8502 H         1 3H8         0.0501
     40 H8         78.5818   70.8260   35.9590 H         1 3H8         0.0750
     41 H9         78.1436   72.7744   34.4822 H         1 3H8         0.0544
     42 H10        71.0862   78.0257   33.7261 H         1 3H8         0.0634
     43 H11        73.9027   68.8655   34.0593 H         1 3H8         0.0415
     44 H12        74.4202   68.5906   35.7573 H         1 3H8         0.0415
     45 H13        75.2927   67.7833   34.4105 H         1 3H8         0.0415
     46 H14        74.4647   70.9470   33.2148 H         1 3H8         0.0525
     47 H15        75.0385   73.3926   32.8420 H         1 3H8         0.2300
     48 H16        77.8098   75.0998   29.8182 H         1 3H8         0.0607
     49 H17        71.4959   80.5994   33.9944 H         1 3H8         0.2131
     50 H18        72.8309   83.8957   33.2110 H         1 3H8         0.2264
     51 H19        68.9673   84.8917   35.9544 H         1 3H8         0.0582
@<TRIPOS>BOND
     1    3    1 ar 
     2    1   25 ar 
     3   27    2 am 
     4    2   28 2  
     5    2   29 am 
     6    4    3 ar 
     7    5    4 ar 
     8    4   26 1  
     9   24    5 ar 
    10    7    6 2  
    11    6   16 1  
    12    6   27 1  
    13   26    7 1  
    14    8    9 ar 
    15   10    8 ar 
    16   30    9 ar 
    17   11   10 ar 
    18   11   12 ar 
    19   29   11 1  
    20   12   30 ar 
    21   12   31 1  
    22   14   13 ar 
    23   13   15 ar 
    24   20   14 ar 
    25   18   15 ar 
    26   16   32 2  
    27   18   17 1  
    28   19   18 ar 
    29   20   19 ar 
    30   21   20 1  
    31   22   21 am 
    32   22   23 2  
    33   22   24 1  
    34   24   25 ar 
    35   26   32 1  
    36    1   33 1  
    37    3   34 1  
    38    5   35 1  
    39    7   36 1  
    40    8   37 1  
    41    9   38 1  
    42   10   39 1  
    43   13   40 1  
    44   14   41 1  
    45   16   42 1  
    46   17   43 1  
    47   17   44 1  
    48   17   45 1  
    49   19   46 1  
    50   21   47 1  
    51   25   48 1  
    52   27   49 1  
    53   29   50 1  
    54   30   51 1  
@<TRIPOS>SUBSTRUCTURE
     1 3H8         1

