### 
### Created by X-TOOL on Mon Sep 10 21:13:24 2018
### 

@<TRIPOS>MOLECULE
4w4w_ligand
   51    54     1     0     0
SMALL
GAST_HUCK


@<TRIPOS>ATOM
      1 C13         2.9740  -30.9270  -31.9760 C.ar      1 3HJ        -0.0061
      2 C15         4.4940  -27.7200  -32.0500 C.2       1 3HJ         0.0749
      3 N20         5.9310  -23.6430  -33.1980 N.am      1 3HJ        -0.2161
      4 C21         6.9210  -23.4880  -34.2560 C.ar      1 3HJ         0.0669
      5 C23         8.7890  -22.3420  -35.2420 C.ar      1 3HJ        -0.0757
      6 C24         8.6960  -23.1440  -36.3890 C.ar      1 3HJ        -0.0773
      7 C25         7.6560  -24.0790  -36.5150 C.ar      1 3HJ        -0.0757
      8 C27         6.3290  -28.5740  -33.0350 C.2       1 3HJ         0.0230
      9 C29         1.1280  -34.8130  -34.6660 C.ar      1 3HJ        -0.0211
     10 C30         1.0180  -35.8920  -35.5210 C.ar      1 3HJ        -0.0142
     11 C01         3.9800  -37.9620  -34.6170 C.3       1 3HJ        -0.0200
     12 C02         2.9790  -36.8360  -34.6180 C.ar      1 3HJ         0.0071
     13 C03         3.1200  -35.7880  -33.7270 C.ar      1 3HJ        -0.0143
     14 C04         2.1580  -34.7770  -33.7270 C.ar      1 3HJ         0.0790
     15 N05         2.3620  -33.5920  -32.8780 N.am      1 3HJ        -0.2261
     16 C06         1.3950  -32.8630  -32.1450 C.2       1 3HJ         0.2345
     17 O07         0.2280  -33.1940  -32.0760 O.2       1 3HJ        -0.3710
     18 C08         1.8860  -31.6280  -31.4340 C.ar      1 3HJ         0.0526
     19 C09         1.2100  -31.1150  -30.3060 C.ar      1 3HJ        -0.0486
     20 C10         1.6460  -29.9100  -29.7020 C.ar      1 3HJ        -0.0606
     21 C11         2.7700  -29.2580  -30.1990 C.ar      1 3HJ        -0.0221
     22 C12         3.4600  -29.7720  -31.3370 C.ar      1 3HJ         0.1111
     23 N14         4.4940  -29.0580  -31.9030 N.pl3     1 3HJ        -0.1778
     24 C16         5.6680  -27.3720  -32.7060 C.2       1 3HJ         0.0777
     25 N17         6.0850  -26.0880  -33.0860 N.am      1 3HJ        -0.2332
     26 C18         5.4880  -24.9120  -32.6770 C.2       1 3HJ         0.3066
     27 O19         4.5770  -24.9390  -31.9230 O.2       1 3HJ        -0.3845
     28 C22         7.9020  -22.4820  -34.1780 C.ar      1 3HJ        -0.0416
     29 C26         6.7980  -24.2600  -35.4420 C.ar      1 3HJ        -0.0416
     30 N28         5.5650  -29.5630  -32.6000 N.2       1 3HJ        -0.2111
     31 N31         1.9550  -36.8760  -35.4870 N.ar      1 3HJ        -0.3209
     32 H1          3.4412  -31.2765  -32.8896 H         1 3HJ         0.0634
     33 H2          3.7158  -27.0354  -31.7157 H         1 3HJ         0.0766
     34 H3          5.5322  -22.8134  -32.8072 H         1 3HJ         0.2259
     35 H4          9.5714  -21.5941  -35.1825 H         1 3HJ         0.0577
     36 H5          9.4294  -23.0417  -37.1807 H         1 3HJ         0.0486
     37 H6          7.5274  -24.6458  -37.4300 H         1 3HJ         0.0577
     38 H7          7.2846  -28.6696  -33.5484 H         1 3HJ         0.0634
     39 H8          0.4164  -33.9974  -34.7247 H         1 3HJ         0.0544
     40 H9          0.1883  -35.9538  -36.2159 H         1 3HJ         0.0750
     41 H10         4.7455  -37.7714  -33.8504 H         1 3HJ         0.0415
     42 H11         4.4590  -38.0277  -35.6050 H         1 3HJ         0.0415
     43 H12         3.4664  -38.9090  -34.3948 H         1 3HJ         0.0415
     44 H13         3.9601  -35.7525  -33.0429 H         1 3HJ         0.0525
     45 H14         3.3028  -33.2599  -32.8105 H         1 3HJ         0.2300
     46 H15         0.3552  -31.6444  -29.9009 H         1 3HJ         0.0607
     47 H16         1.1065  -29.4980  -28.8568 H         1 3HJ         0.0610
     48 H17         3.1240  -28.3532  -29.7183 H         1 3HJ         0.0618
     49 H18         6.8727  -26.0191  -33.6982 H         1 3HJ         0.2131
     50 H19         7.9654  -21.8330  -33.3121 H         1 3HJ         0.0501
     51 H20         6.0156  -25.0073  -35.5092 H         1 3HJ         0.0501
@<TRIPOS>BOND
     1    1   18 ar 
     2   22    1 ar 
     3    2   23 1  
     4   24    2 2  
     5    3    4 1  
     6   26    3 am 
     7    4   28 ar 
     8    4   29 ar 
     9    5    6 ar 
    10   28    5 ar 
    11    7    6 ar 
    12   29    7 ar 
    13   24    8 1  
    14    8   30 2  
    15    9   10 ar 
    16   14    9 ar 
    17   10   31 ar 
    18   12   11 1  
    19   13   12 ar 
    20   12   31 ar 
    21   14   13 ar 
    22   15   14 1  
    23   16   15 am 
    24   16   17 2  
    25   18   16 1  
    26   18   19 ar 
    27   20   19 ar 
    28   21   20 ar 
    29   22   21 ar 
    30   23   22 1  
    31   30   23 1  
    32   25   24 1  
    33   25   26 am 
    34   26   27 2  
    35    1   32 1  
    36    2   33 1  
    37    3   34 1  
    38    5   35 1  
    39    6   36 1  
    40    7   37 1  
    41    8   38 1  
    42    9   39 1  
    43   10   40 1  
    44   11   41 1  
    45   11   42 1  
    46   11   43 1  
    47   13   44 1  
    48   15   45 1  
    49   19   46 1  
    50   20   47 1  
    51   21   48 1  
    52   25   49 1  
    53   28   50 1  
    54   29   51 1  
@<TRIPOS>SUBSTRUCTURE
     1 3HJ         1

