### 
### Created by X-TOOL on Mon Sep 10 21:13:24 2018
### 

@<TRIPOS>MOLECULE
4w4x_ligand
   51    54     1     0     0
SMALL
GAST_HUCK


@<TRIPOS>ATOM
      1 C10        -1.3640   30.2640  -29.6390 C.ar      1 3HN        -0.0606
      2 C01        -3.9880   38.1550  -34.3360 C.3       1 3HN        -0.0200
      3 C02        -2.8970   37.1010  -34.3880 C.ar      1 3HN         0.0071
      4 C03        -2.9610   36.0370  -33.5050 C.ar      1 3HN        -0.0143
      5 C04        -1.9530   35.0870  -33.5120 C.ar      1 3HN         0.0790
      6 N05        -2.1600   33.9340  -32.7180 N.am      1 3HN        -0.2261
      7 C06        -1.1520   33.1160  -32.1410 C.2       1 3HN         0.2345
      8 O07         0.0430   33.3210  -32.2790 O.2       1 3HN        -0.3710
      9 C08        -1.6230   31.8950  -31.3750 C.ar      1 3HN         0.0526
     10 C09        -0.9120   31.4060  -30.2790 C.ar      1 3HN        -0.0486
     11 C11        -2.4880   29.5880  -30.1140 C.ar      1 3HN        -0.0221
     12 C12        -3.1900   30.0660  -31.2100 C.ar      1 3HN         0.1111
     13 C13        -2.7150   31.1820  -31.8700 C.ar      1 3HN        -0.0061
     14 N14        -4.2210   29.3850  -31.7520 N.pl3     1 3HN        -0.1778
     15 C15        -4.1920   28.0710  -32.0140 C.2       1 3HN         0.0749
     16 C16        -5.3730   27.7190  -32.6490 C.2       1 3HN         0.0777
     17 N17        -5.7900   26.4240  -33.0710 N.am      1 3HN        -0.2334
     18 C18        -5.1420   25.2110  -32.6630 C.2       1 3HN         0.3055
     19 O19        -4.2260   25.2260  -31.8830 O.2       1 3HN        -0.3850
     20 N20        -5.5240   23.9140  -33.0700 N.am      1 3HN        -0.2183
     21 C21        -6.5330   23.6790  -34.0180 C.ar      1 3HN         0.0631
     22 C22        -7.4710   22.6620  -33.8010 C.ar      1 3HN        -0.0429
     23 C23        -8.4450   22.4800  -34.7760 C.ar      1 3HN        -0.0419
     24 C24        -8.4090   23.2500  -35.9670 C.ar      1 3HN         0.1156
     25 F25        -9.3430   23.1330  -36.9110 F         1 3HN        -0.1964
     26 C26        -7.4130   24.1780  -36.2080 C.ar      1 3HN        -0.0419
     27 C27        -6.4330   24.3400  -35.2560 C.ar      1 3HN        -0.0429
     28 C28        -6.0760   28.8930  -32.8390 C.2       1 3HN         0.0230
     29 N29        -5.3500   29.8900  -32.2960 N.2       1 3HN        -0.2111
     30 C30        -0.9580   35.1790  -34.4780 C.ar      1 3HN        -0.0211
     31 C31        -0.9150   36.2710  -35.3380 C.ar      1 3HN        -0.0142
     32 N32        -1.8830   37.2060  -35.2790 N.ar      1 3HN        -0.3209
     33 H1         -0.8416   29.8935  -28.7644 H         1 3HN         0.0610
     34 H2         -4.7142   37.8927  -33.5525 H         1 3HN         0.0415
     35 H3         -4.4992   38.2019  -35.3088 H         1 3HN         0.0415
     36 H4         -3.5413   39.1342  -34.1089 H         1 3HN         0.0415
     37 H5         -3.7920   35.9480  -32.8146 H         1 3HN         0.0525
     38 H6         -3.1089   33.6691  -32.5463 H         1 3HN         0.2300
     39 H7         -0.0183   31.9127  -29.9331 H         1 3HN         0.0607
     40 H8         -2.8159   28.6798  -29.6213 H         1 3HN         0.0618
     41 H9         -3.1969   31.5082  -32.7846 H         1 3HN         0.0634
     42 H10        -3.3762   27.3925  -31.7688 H         1 3HN         0.0766
     43 H11        -6.5767   26.3569  -33.6846 H         1 3HN         0.2131
     44 H12        -5.0556   23.1285  -32.6655 H         1 3HN         0.2246
     45 H13        -7.4389   22.0435  -32.9113 H         1 3HN         0.0492
     46 H14        -9.2320   21.7497  -34.6263 H         1 3HN         0.0566
     47 H15        -7.4044   24.7616  -37.1214 H         1 3HN         0.0566
     48 H16        -5.5814   24.9788  -35.4603 H         1 3HN         0.0492
     49 H17        -7.0396   28.9941  -33.3361 H         1 3HN         0.0634
     50 H18        -0.2125   34.3965  -34.5614 H         1 3HN         0.0544
     51 H19        -0.1060   36.3694  -36.0528 H         1 3HN         0.0750
@<TRIPOS>BOND
     1   10    1 ar 
     2    1   11 ar 
     3    3    2 1  
     4    4    3 ar 
     5    3   32 ar 
     6    5    4 ar 
     7    6    5 1  
     8    5   30 ar 
     9    7    6 am 
    10    7    8 2  
    11    9    7 1  
    12    9   10 ar 
    13    9   13 ar 
    14   11   12 ar 
    15   12   13 ar 
    16   12   14 1  
    17   14   15 1  
    18   14   29 1  
    19   15   16 2  
    20   16   17 1  
    21   16   28 1  
    22   17   18 am 
    23   18   19 2  
    24   18   20 am 
    25   20   21 1  
    26   21   22 ar 
    27   21   27 ar 
    28   22   23 ar 
    29   23   24 ar 
    30   24   25 1  
    31   24   26 ar 
    32   26   27 ar 
    33   28   29 2  
    34   30   31 ar 
    35   31   32 ar 
    36    1   33 1  
    37    2   34 1  
    38    2   35 1  
    39    2   36 1  
    40    4   37 1  
    41    6   38 1  
    42   10   39 1  
    43   11   40 1  
    44   13   41 1  
    45   15   42 1  
    46   17   43 1  
    47   20   44 1  
    48   22   45 1  
    49   23   46 1  
    50   26   47 1  
    51   27   48 1  
    52   28   49 1  
    53   30   50 1  
    54   31   51 1  
@<TRIPOS>SUBSTRUCTURE
     1 3HN         1

