### 
### Created by X-TOOL on Mon Sep 10 21:13:24 2018
### 

@<TRIPOS>MOLECULE
4w4y_ligand
   54    57     1     0     0
SMALL
GAST_HUCK


@<TRIPOS>ATOM
      1 C01         9.6350  -23.1550  -36.6450 C.3       1 3HQ        -0.0382
      2 C02         8.4760  -23.3580  -35.6780 C.ar      1 3HQ        -0.0608
      3 C03         7.4520  -24.1970  -36.0440 C.ar      1 3HQ        -0.0737
      4 C04         6.3930  -24.3660  -35.1530 C.ar      1 3HQ        -0.0476
      5 C05         6.4090  -23.7540  -33.9310 C.ar      1 3HQ         0.0602
      6 N06         5.3200  -23.9550  -33.0470 N.am      1 3HQ        -0.2200
      7 C07         4.9860  -25.2660  -32.5790 C.2       1 3HQ         0.3047
      8 O08         4.0180  -25.3870  -31.8180 O.2       1 3HQ        -0.3853
      9 N09         5.7590  -26.3960  -32.9910 N.am      1 3HQ        -0.2335
     10 C10         5.4240  -27.6970  -32.6440 C.2       1 3HQ         0.0777
     11 C11         6.1250  -28.8290  -32.9190 C.2       1 3HQ         0.0230
     12 N12         5.4020  -29.8440  -32.4580 N.2       1 3HQ        -0.2111
     13 N13         4.2830  -29.3950  -31.8720 N.pl3     1 3HQ        -0.1778
     14 C14         4.2600  -28.0920  -32.0220 C.2       1 3HQ         0.0749
     15 C15         3.2890  -30.1100  -31.3300 C.ar      1 3HQ         0.1111
     16 C16         2.6370  -29.6910  -30.1610 C.ar      1 3HQ        -0.0221
     17 C17         1.5590  -30.4100  -29.6620 C.ar      1 3HQ        -0.0606
     18 C18         1.1380  -31.5780  -30.2890 C.ar      1 3HQ        -0.0486
     19 C19         1.7630  -32.0050  -31.4460 C.ar      1 3HQ         0.0526
     20 C20         2.8370  -31.2560  -31.9650 C.ar      1 3HQ        -0.0061
     21 C21         1.3450  -33.2450  -32.1540 C.2       1 3HQ         0.2345
     22 O22         0.2080  -33.6570  -32.1020 O.2       1 3HQ        -0.3710
     23 N23         2.3410  -33.9210  -32.9100 N.am      1 3HQ        -0.2261
     24 C24         2.1950  -35.1220  -33.6900 C.ar      1 3HQ         0.0790
     25 C25         1.1480  -35.2830  -34.6260 C.ar      1 3HQ        -0.0211
     26 C26         1.1070  -36.4310  -35.4160 C.ar      1 3HQ        -0.0142
     27 N27         2.0870  -37.3660  -35.3080 N.ar      1 3HQ        -0.3209
     28 C28         3.1310  -37.2140  -34.4510 C.ar      1 3HQ         0.0071
     29 C29         4.2090  -38.2860  -34.3650 C.3       1 3HQ        -0.0200
     30 C30         3.1990  -36.0790  -33.6320 C.ar      1 3HQ        -0.0143
     31 C31         7.4400  -22.8550  -33.5620 C.ar      1 3HQ        -0.0476
     32 C32         8.4730  -22.6880  -34.4470 C.ar      1 3HQ        -0.0737
     33 H1          9.4662  -23.7558  -37.5508 H         1 3HQ         0.0362
     34 H2         10.5728  -23.4711  -36.1649 H         1 3HQ         0.0362
     35 H3          9.7030  -22.0916  -36.9178 H         1 3HQ         0.0362
     36 H4          7.4667  -24.7126  -36.9974 H         1 3HQ         0.0520
     37 H5          5.5500  -24.9879  -35.4317 H         1 3HQ         0.0485
     38 H6          4.7776  -23.1706  -32.7461 H         1 3HQ         0.2236
     39 H7          6.5730  -26.2427  -33.5512 H         1 3HQ         0.2131
     40 H8          7.0903  -28.8916  -33.4193 H         1 3HQ         0.0634
     41 H9          3.4536  -27.4314  -31.7068 H         1 3HQ         0.0766
     42 H10         2.9766  -28.8007  -29.6441 H         1 3HQ         0.0618
     43 H11         1.0415  -30.0583  -28.7768 H         1 3HQ         0.0610
     44 H12         0.3201  -32.1534  -29.8706 H         1 3HQ         0.0607
     45 H13         3.3196  -31.5823  -32.8792 H         1 3HQ         0.0634
     46 H14         3.2538  -33.5127  -32.8986 H         1 3HQ         0.2300
     47 H15         0.3840  -34.5209  -34.7286 H         1 3HQ         0.0544
     48 H16         0.2930  -36.5777  -36.1167 H         1 3HQ         0.0750
     49 H17         4.9641  -37.9879  -33.6228 H         1 3HQ         0.0415
     50 H18         4.6879  -38.4041  -35.3482 H         1 3HQ         0.0415
     51 H19         3.7537  -39.2404  -34.0618 H         1 3HQ         0.0415
     52 H20         4.0346  -35.9484  -32.9539 H         1 3HQ         0.0525
     53 H21         7.4129  -22.3214  -32.6188 H         1 3HQ         0.0485
     54 H22         9.2965  -22.0307  -34.1922 H         1 3HQ         0.0520
@<TRIPOS>BOND
     1    1    2 1  
     2    2    3 ar 
     3    2   32 ar 
     4    3    4 ar 
     5    4    5 ar 
     6    5    6 1  
     7    5   31 ar 
     8    6    7 am 
     9    7    8 2  
    10    7    9 am 
    11    9   10 1  
    12   10   11 1  
    13   10   14 2  
    14   11   12 2  
    15   12   13 1  
    16   13   14 1  
    17   13   15 1  
    18   15   16 ar 
    19   15   20 ar 
    20   16   17 ar 
    21   17   18 ar 
    22   18   19 ar 
    23   19   20 ar 
    24   19   21 1  
    25   21   22 2  
    26   21   23 am 
    27   23   24 1  
    28   24   25 ar 
    29   24   30 ar 
    30   25   26 ar 
    31   26   27 ar 
    32   27   28 ar 
    33   28   29 1  
    34   28   30 ar 
    35   31   32 ar 
    36    1   33 1  
    37    1   34 1  
    38    1   35 1  
    39    3   36 1  
    40    4   37 1  
    41    6   38 1  
    42    9   39 1  
    43   11   40 1  
    44   14   41 1  
    45   16   42 1  
    46   17   43 1  
    47   18   44 1  
    48   20   45 1  
    49   23   46 1  
    50   25   47 1  
    51   26   48 1  
    52   29   49 1  
    53   29   50 1  
    54   29   51 1  
    55   30   52 1  
    56   31   53 1  
    57   32   54 1  
@<TRIPOS>SUBSTRUCTURE
     1 3HQ         1

