### 
### Created by X-TOOL on Mon Sep 10 21:13:21 2018
### 

@<TRIPOS>MOLECULE
4w52_ligand
   12    12     1     0     0
SMALL
GAST_HUCK


@<TRIPOS>ATOM
      1 C1        -32.9690    6.1960    2.8770 C.ar      1 BNZ        -0.0618
      2 C2        -32.9450    7.0460    3.9730 C.ar      1 BNZ        -0.0618
      3 C3        -33.7190    6.7980    5.1130 C.ar      1 BNZ        -0.0618
      4 C4        -34.5400    5.6800    5.1430 C.ar      1 BNZ        -0.0618
      5 C5        -34.5450    4.8250    4.0440 C.ar      1 BNZ        -0.0618
      6 C6        -33.7870    5.0690    2.9150 C.ar      1 BNZ        -0.0618
      7 H1        -32.3607    6.4055    2.0045 H         1 BNZ         0.0618
      8 H2        -32.3108    7.9247    3.9461 H         1 BNZ         0.0618
      9 H3        -33.6773    7.4711    5.9617 H         1 BNZ         0.0618
     10 H4        -35.1651    5.4762    6.0048 H         1 BNZ         0.0618
     11 H5        -35.1655    3.9367    4.0754 H         1 BNZ         0.0618
     12 H6        -33.8283    4.3920    2.0694 H         1 BNZ         0.0618
@<TRIPOS>BOND
     1    1    2 ar 
     2    1    6 ar 
     3    2    3 ar 
     4    3    4 ar 
     5    4    5 ar 
     6    5    6 ar 
     7    1    7 1  
     8    2    8 1  
     9    3    9 1  
    10    4   10 1  
    11    5   11 1  
    12    6   12 1  
@<TRIPOS>SUBSTRUCTURE
     1 BNZ         1

