### 
### Created by X-TOOL on Mon Sep 10 21:13:23 2018
### 

@<TRIPOS>MOLECULE
4w53_ligand
   15    15     1     0     0
SMALL
GAST_HUCK


@<TRIPOS>ATOM
      1 C         -32.3550    7.2630    2.2070 C.3       1 MBN        -0.0311
      2 C1        -33.1810    6.6060    3.3010 C.ar      1 MBN        -0.0461
      3 C2        -33.2380    7.1600    4.5650 C.ar      1 MBN        -0.0606
      4 C3        -33.9920    6.5710    5.5700 C.ar      1 MBN        -0.0686
      5 C4        -34.7110    5.4170    5.3320 C.ar      1 MBN        -0.0687
      6 C5        -34.6380    4.8780    4.0600 C.ar      1 MBN        -0.0686
      7 C6        -33.8940    5.4470    3.0480 C.ar      1 MBN        -0.0606
      8 H1        -31.8689    8.1653    2.6064 H         1 MBN         0.0391
      9 H2        -33.0110    7.5405    1.3688 H         1 MBN         0.0391
     10 H3        -31.5873    6.5587    1.8542 H         1 MBN         0.0391
     11 H4        -32.6854    8.0686    4.7750 H         1 MBN         0.0557
     12 H5        -34.0167    7.0231    6.5549 H         1 MBN         0.0599
     13 H6        -35.3076    4.9527    6.1089 H         1 MBN         0.0559
     14 H7        -35.1896    3.9689    3.8497 H         1 MBN         0.0599
     15 H8        -33.8678    4.9914    2.0647 H         1 MBN         0.0557
@<TRIPOS>BOND
     1    1    2 1  
     2    2    3 ar 
     3    2    7 ar 
     4    3    4 ar 
     5    4    5 ar 
     6    5    6 ar 
     7    6    7 ar 
     8    1    8 1  
     9    1    9 1  
    10    1   10 1  
    11    3   11 1  
    12    4   12 1  
    13    5   13 1  
    14    6   14 1  
    15    7   15 1  
@<TRIPOS>SUBSTRUCTURE
     1 MBN         1

