### 
### Created by X-TOOL on Mon Sep 10 21:13:21 2018
### 

@<TRIPOS>MOLECULE
4w54_ligand
   18    18     1     0     0
SMALL
GAST_HUCK


@<TRIPOS>ATOM
      1 CB         40.0430  -20.5930   14.1830 C.3       1 PYJ        -0.0220
      2 CX         39.4070  -19.3730   14.8600 C.3       1 PYJ        -0.0554
      3 CG         40.9300  -20.1910   12.9990 C.ar      1 PYJ        -0.0433
      4 CD1        40.3610  -19.8840   11.7690 C.ar      1 PYJ        -0.0603
      5 CD2        42.3120  -20.1340   13.1510 C.ar      1 PYJ        -0.0603
      6 CE1        41.1680  -19.5210   10.6940 C.ar      1 PYJ        -0.0686
      7 CE2        43.1190  -19.7700   12.0780 C.ar      1 PYJ        -0.0686
      8 CZ         42.5490  -19.4630   10.8470 C.ar      1 PYJ        -0.0687
      9 H1         39.2435  -21.2554   13.8197 H         1 PYJ         0.0423
     10 H2         40.6569  -21.1298   14.9212 H         1 PYJ         0.0423
     11 H3         38.7810  -19.7054   15.7012 H         1 PYJ         0.0252
     12 H4         38.7852  -18.8320   14.1315 H         1 PYJ         0.0252
     13 H5         40.1986  -18.7065   15.2330 H         1 PYJ         0.0252
     14 H6         39.2849  -19.9273   11.6460 H         1 PYJ         0.0557
     15 H7         42.7609  -20.3739   14.1081 H         1 PYJ         0.0557
     16 H8         40.7191  -19.2832    9.7364 H         1 PYJ         0.0599
     17 H9         44.1950  -19.7255   12.2016 H         1 PYJ         0.0599
     18 H10        43.1782  -19.1799   10.0109 H         1 PYJ         0.0559
@<TRIPOS>BOND
     1    1    2 1  
     2    1    3 1  
     3    3    4 ar 
     4    3    5 ar 
     5    4    6 ar 
     6    5    7 ar 
     7    6    8 ar 
     8    7    8 ar 
     9    1    9 1  
    10    1   10 1  
    11    2   11 1  
    12    2   12 1  
    13    2   13 1  
    14    4   14 1  
    15    5   15 1  
    16    6   16 1  
    17    7   17 1  
    18    8   18 1  
@<TRIPOS>SUBSTRUCTURE
     1 PYJ         1

