### 
### Created by X-TOOL on Mon Sep 10 21:13:21 2018
### 

@<TRIPOS>MOLECULE
4w55_ligand
   21    21     1     0     0
SMALL
GAST_HUCK


@<TRIPOS>ATOM
      1 CAA       -38.8110   19.2810   15.7920 C.3       1 3H0        -0.0635
      2 CAG       -39.8230   19.0370   14.6800 C.3       1 3H0        -0.0461
      3 CAH       -40.2380   20.3540   14.0150 C.3       1 3H0        -0.0194
      4 CAI       -41.2100   20.0750   12.8830 C.ar      1 3H0        -0.0430
      5 CAE       -40.6930   19.7270   11.6490 C.ar      1 3H0        -0.0603
      6 CAC       -41.5120   19.4530   10.5630 C.ar      1 3H0        -0.0686
      7 CAB       -42.8900   19.5150   10.7330 C.ar      1 3H0        -0.0687
      8 CAD       -43.4140   19.8630   11.9720 C.ar      1 3H0        -0.0686
      9 CAF       -42.5940   20.1500   13.0600 C.ar      1 3H0        -0.0603
     10 H1        -38.5316   18.3210   16.2506 H         1 3H0         0.0231
     11 H2        -39.2559   19.9362   16.5554 H         1 3H0         0.0231
     12 H3        -37.9147   19.7619   15.3731 H         1 3H0         0.0231
     13 H4        -40.7143   18.5524   15.1050 H         1 3H0         0.0285
     14 H5        -39.3732   18.3780   13.9227 H         1 3H0         0.0285
     15 H6        -39.3459   20.8577   13.6144 H         1 3H0         0.0426
     16 H7        -40.7218   21.0026   14.7601 H         1 3H0         0.0426
     17 H8        -39.6177   19.6665   11.5264 H         1 3H0         0.0557
     18 H9        -41.0852   19.1955    9.6004 H         1 3H0         0.0599
     19 H10       -43.5521   19.2932    9.9039 H         1 3H0         0.0559
     20 H11       -44.4899   19.9123   12.0948 H         1 3H0         0.0599
     21 H12       -43.0181   20.4244   14.0191 H         1 3H0         0.0557
@<TRIPOS>BOND
     1    1    2 1  
     2    2    3 1  
     3    3    4 1  
     4    4    5 ar 
     5    4    9 ar 
     6    5    6 ar 
     7    6    7 ar 
     8    7    8 ar 
     9    8    9 ar 
    10    1   10 1  
    11    1   11 1  
    12    1   12 1  
    13    2   13 1  
    14    2   14 1  
    15    3   15 1  
    16    3   16 1  
    17    5   17 1  
    18    6   18 1  
    19    7   19 1  
    20    8   20 1  
    21    9   21 1  
@<TRIPOS>SUBSTRUCTURE
     1 3H0         1

