### 
### Created by X-TOOL on Mon Sep 10 21:13:22 2018
### 

@<TRIPOS>MOLECULE
4w57_ligand
   24    24     1     0     0
SMALL
GAST_HUCK


@<TRIPOS>ATOM
      1 C1        -40.5790   19.9630   12.3790 C.ar      1 N4B        -0.0430
      2 C2        -41.1410   19.4740   11.2060 C.ar      1 N4B        -0.0603
      3 C3        -42.5230   19.4100   11.0690 C.ar      1 N4B        -0.0686
      4 C4        -43.3490   19.8390   12.0970 C.ar      1 N4B        -0.0687
      5 C5        -42.7880   20.3280   13.2720 C.ar      1 N4B        -0.0686
      6 C6        -41.4010   20.3940   13.4090 C.ar      1 N4B        -0.0603
      7 C1'       -39.0570   20.0330   12.5260 C.3       1 N4B        -0.0192
      8 C2'       -38.4730   18.7000   12.9950 C.3       1 N4B        -0.0435
      9 C3'       -39.0030   18.2620   14.3630 C.3       1 N4B        -0.0541
     10 C4'       -38.6610   19.2680   15.4690 C.3       1 N4B        -0.0651
     11 H1        -40.5009   19.1420   10.3966 H         1 N4B         0.0557
     12 H2        -42.9570   19.0229   10.1542 H         1 N4B         0.0599
     13 H3        -44.4263   19.7935   11.9854 H         1 N4B         0.0559
     14 H4        -43.4287   20.6580   14.0818 H         1 N4B         0.0599
     15 H5        -40.9654   20.7829   14.3223 H         1 N4B         0.0557
     16 H6        -38.8052   20.8111   13.2616 H         1 N4B         0.0426
     17 H7        -38.6162   20.2925   11.5522 H         1 N4B         0.0426
     18 H8        -37.3794   18.7995   13.0585 H         1 N4B         0.0287
     19 H9        -38.7285   17.9262   12.2562 H         1 N4B         0.0287
     20 H10       -38.5583   17.2893   14.6198 H         1 N4B         0.0264
     21 H11       -40.0967   18.1608   14.3028 H         1 N4B         0.0264
     22 H12       -39.0621   18.9088   16.4282 H         1 N4B         0.0230
     23 H13       -39.1070   20.2441   15.2276 H         1 N4B         0.0230
     24 H14       -37.5686   19.3726   15.5446 H         1 N4B         0.0230
@<TRIPOS>BOND
     1    1    2 ar 
     2    1    6 ar 
     3    1    7 1  
     4    2    3 ar 
     5    3    4 ar 
     6    4    5 ar 
     7    5    6 ar 
     8    7    8 1  
     9    8    9 1  
    10    9   10 1  
    11    2   11 1  
    12    3   12 1  
    13    4   13 1  
    14    5   14 1  
    15    6   15 1  
    16    7   16 1  
    17    7   17 1  
    18    8   18 1  
    19    8   19 1  
    20    9   20 1  
    21    9   21 1  
    22   10   22 1  
    23   10   23 1  
    24   10   24 1  
@<TRIPOS>SUBSTRUCTURE
     1 N4B         1

