### 
### Created by X-TOOL on Mon Sep 10 21:13:19 2018
### 

@<TRIPOS>MOLECULE
4w7p_ligand
   45    48     1     0     0
SMALL
GAST_HUCK


@<TRIPOS>ATOM
      1 C1        -13.8960   42.6560   -9.5370 C.ar      1 3J7         0.0155
      2 C2        -14.2120   43.8150   -8.7960 C.ar      1 3J7        -0.0170
      3 C3        -14.4950   41.2400   -7.7600 C.ar      1 3J7         0.0338
      4 C11       -16.2940   41.7080   -2.9540 C.ar      1 3J7        -0.0457
      5 C12       -17.4690   42.6740   -1.0400 C.ar      1 3J7        -0.0094
      6 C13       -17.5140   43.9650   -1.6640 C.ar      1 3J7         0.0380
      7 C14       -18.2090   44.7960   -0.7440 C.2       1 3J7         0.1103
      8 C15       -15.6450   47.1740   -6.3370 C.3       1 3J7         0.0783
      9 C16       -14.6960   47.9600   -5.3790 C.3       1 3J7         0.0023
     10 C17       -15.1440   49.3880   -5.0490 C.3       1 3J7        -0.0171
     11 C18       -14.4570   47.2250   -4.0510 C.3       1 3J7        -0.0171
     12 N1        -14.0460   41.4000   -9.0370 N.ar      1 3J7        -0.2899
     13 C4        -14.8570   42.3230   -6.9200 C.ar      1 3J7         0.0694
     14 C5        -14.6880   43.6460   -7.4580 C.ar      1 3J7         0.0699
     15 C6        -15.0670   44.7150   -6.5970 C.ar      1 3J7         0.1507
     16 N2        -15.5280   44.4530   -5.3600 N.ar      1 3J7        -0.2450
     17 C7        -15.6680   43.1860   -4.9420 C.ar      1 3J7         0.1037
     18 N3        -15.3470   42.1110   -5.6800 N.ar      1 3J7        -0.2820
     19 C8        -16.2590   42.9950   -3.5900 C.ar      1 3J7         0.0184
     20 C9        -16.9050   44.1060   -2.9450 C.ar      1 3J7        -0.0308
     21 C10       -16.8810   41.5440   -1.6680 C.ar      1 3J7        -0.0535
     22 N4        -18.5640   44.1300    0.3280 N.pl3     1 3J7        -0.2442
     23 N5        -18.1220   42.8720    0.1560 N.2       1 3J7        -0.3319
     24 N6        -14.9880   46.0580   -7.0130 N.pl3     1 3J7        -0.2851
     25 N7        -13.4190   48.1130   -6.0340 N.4       1 3J7         0.2241
     26 H         -13.5181   42.7717  -10.5464 H         1 3J7         0.0790
     27 H         -14.0974   44.8027   -9.2277 H         1 3J7         0.0777
     28 H         -14.5796   40.2334   -7.3668 H         1 3J7         0.0866
     29 H         -15.8675   40.8497   -3.4604 H         1 3J7         0.0663
     30 H         -18.4198   45.8516   -0.9086 H         1 3J7         0.1370
     31 H         -16.0252   47.8693   -7.0999 H         1 3J7         0.0593
     32 H         -16.4864   46.7793   -5.7486 H         1 3J7         0.0593
     33 H         -14.4133   49.8542   -4.3718 H         1 3J7         0.0288
     34 H         -16.1296   49.3597   -4.5615 H         1 3J7         0.0288
     35 H         -15.2106   49.9751   -5.9768 H         1 3J7         0.0288
     36 H         -14.1333   46.1938   -4.2558 H         1 3J7         0.0288
     37 H         -15.3899   47.2076   -3.4685 H         1 3J7         0.0288
     38 H         -13.6766   47.7473   -3.4781 H         1 3J7         0.0288
     39 H         -16.9293   45.0689   -3.4423 H         1 3J7         0.0675
     40 H         -16.8794   40.5770   -1.1781 H         1 3J7         0.0629
     41 H         -19.0792   44.4976    1.1406 H         1 3J7         0.2935
     42 H         -14.4283   46.2680   -7.8518 H         1 3J7         0.1922
     43 H         -13.5466   48.5937   -6.9108 H         1 3J7         0.2000
     44 H         -13.0177   47.2042   -6.2044 H         1 3J7         0.2000
     45 H         -12.8009   48.6480   -5.4443 H         1 3J7         0.2000
@<TRIPOS>BOND
     1    2    1 ar 
     2   12    1 ar 
     3   14    2 ar 
     4    3   12 ar 
     5   13    3 ar 
     6   19    4 ar 
     7    4   21 ar 
     8    5    6 ar 
     9   21    5 ar 
    10    5   23 2  
    11    6    7 2  
    12    6   20 ar 
    13    7   22 1  
    14    8    9 1  
    15   24    8 1  
    16    9   10 1  
    17    9   11 1  
    18    9   25 1  
    19   13   14 ar 
    20   18   13 ar 
    21   15   14 ar 
    22   16   15 ar 
    23   15   24 1  
    24   17   16 ar 
    25   17   18 ar 
    26   17   19 1  
    27   19   20 ar 
    28   22   23 1  
    29    1   26 1  
    30    2   27 1  
    31    3   28 1  
    32    4   29 1  
    33    7   30 1  
    34    8   31 1  
    35    8   32 1  
    36   10   33 1  
    37   10   34 1  
    38   10   35 1  
    39   11   36 1  
    40   11   37 1  
    41   11   38 1  
    42   20   39 1  
    43   21   40 1  
    44   22   41 1  
    45   24   42 1  
    46   25   43 1  
    47   25   44 1  
    48   25   45 1  
@<TRIPOS>SUBSTRUCTURE
     1 3J7         1

