### 
### Created by X-TOOL on Mon Sep 10 21:13:17 2018
### 

@<TRIPOS>MOLECULE
4w7t_ligand
   34    36     1     0     0
SMALL
GAST_HUCK


@<TRIPOS>ATOM
      1 C1         -3.0030   -9.8140  -26.3390 C.ar      1 3JC         0.0392
      2 C2         -1.7220   -9.7660  -25.8430 C.ar      1 3JC         0.0714
      3 C3         -1.4770  -10.3460  -24.6220 C.ar      1 3JC         0.0446
      4 O1         -0.8430   -8.7110  -27.7230 O.2       1 3JC        -0.3881
      5 C11         4.2450  -10.9180  -23.3770 C.ar      1 3JC        -0.0685
      6 C12         4.8040   -9.6690  -23.2450 C.ar      1 3JC        -0.0687
      7 C13         4.1110   -8.5670  -23.6870 C.ar      1 3JC        -0.0685
      8 C14         2.8680   -8.7180  -24.2580 C.ar      1 3JC        -0.0597
      9 C15        -3.3730   -9.2140  -27.6520 C.3       1 3JC        -0.0107
     10 N1         -3.9890  -10.4070  -25.6660 N.ar      1 3JC        -0.2584
     11 N2         -2.4510  -10.9370  -23.9300 N.ar      1 3JC        -0.2580
     12 N3         -4.6930  -11.5590  -23.7750 N.pl3     1 3JC        -0.3037
     13 C4         -3.6670  -10.9410  -24.4850 C.ar      1 3JC         0.1750
     14 C5         -0.6460   -9.1090  -26.5860 C.2       1 3JC         0.1291
     15 C6          0.6550   -8.9290  -25.8670 C.3       1 3JC         0.0346
     16 C7          0.9570  -10.1430  -25.0290 C.3       1 3JC         0.0214
     17 C8          2.3050   -9.9670  -24.3940 C.ar      1 3JC        -0.0352
     18 C9         -0.1220  -10.3420  -23.9920 C.3       1 3JC         0.0156
     19 C10         3.0040  -11.0640  -23.9490 C.ar      1 3JC        -0.0597
     20 H           4.7851  -11.7909  -23.0286 H         1 3JC         0.0599
     21 H           5.7838   -9.5539  -22.7958 H         1 3JC         0.0559
     22 H           4.5440   -7.5784  -23.5857 H         1 3JC         0.0599
     23 H           2.3268   -7.8449  -24.6041 H         1 3JC         0.0557
     24 H          -4.4451   -9.3739  -27.8391 H         1 3JC         0.0455
     25 H          -2.7864   -9.6905  -28.4512 H         1 3JC         0.0455
     26 H          -3.1607   -8.1348  -27.6349 H         1 3JC         0.0455
     27 H          -5.6459  -11.5855  -24.1651 H         1 3JC         0.1842
     28 H          -4.4991  -11.9897  -22.8597 H         1 3JC         0.1842
     29 H           0.5913   -8.0446  -25.2160 H         1 3JC         0.0508
     30 H           1.4602   -8.7856  -26.6026 H         1 3JC         0.0508
     31 H           0.9845  -11.0302  -25.6787 H         1 3JC         0.0515
     32 H           0.0410  -11.3037  -23.4835 H         1 3JC         0.0517
     33 H          -0.0695   -9.5251  -23.2572 H         1 3JC         0.0517
     34 H           2.5723  -12.0532  -24.0502 H         1 3JC         0.0557
@<TRIPOS>BOND
     1    2    1 ar 
     2    1    9 1  
     3    1   10 ar 
     4    2    3 ar 
     5   14    2 1  
     6    3   11 ar 
     7    3   18 1  
     8   14    4 2  
     9    6    5 ar 
    10    5   19 ar 
    11    7    6 ar 
    12    8    7 ar 
    13   17    8 ar 
    14   10   13 ar 
    15   11   13 ar 
    16   13   12 1  
    17   15   14 1  
    18   16   15 1  
    19   16   17 1  
    20   16   18 1  
    21   17   19 ar 
    22    5   20 1  
    23    6   21 1  
    24    7   22 1  
    25    8   23 1  
    26    9   24 1  
    27    9   25 1  
    28    9   26 1  
    29   12   27 1  
    30   12   28 1  
    31   15   29 1  
    32   15   30 1  
    33   16   31 1  
    34   18   32 1  
    35   18   33 1  
    36   19   34 1  
@<TRIPOS>SUBSTRUCTURE
     1 3JC         1

