### 
### Created by X-TOOL on Mon Sep 10 21:13:18 2018
### 

@<TRIPOS>MOLECULE
4w9d_ligand
   58    60     1     0     0
SMALL
GAST_HUCK


@<TRIPOS>ATOM
      1 CAB        11.4360   52.1870   94.2600 C.3       1 3JK        -0.0580
      2 CBC        12.8600   52.8120   94.2470 C.3       1 3JK        -0.0209
      3 CAC        13.7990   51.9350   93.3950 C.3       1 3JK        -0.0580
      4 CAD        13.3630   52.8960   95.7170 C.3       1 3JK        -0.0580
      5 CAN        12.8060   54.2270   93.7260 C.3       1 3JK         0.0424
      6 CAT        12.3390   54.2440   92.2190 C.2       1 3JK         0.1813
      7 OAE        11.1420   54.0890   91.9660 O.2       1 3JK        -0.3967
      8 N          13.2630   54.5110   91.2420 N.am      1 3JK        -0.2492
      9 CD2        14.7220   54.7930   91.3600 C.3       1 3JK         0.0628
     10 CG         15.0400   55.6790   90.1700 C.3       1 3JK         0.0799
     11 OD1        14.6950   57.0480   90.4410 O.3       1 3JK        -0.3896
     12 CB         14.1590   55.1140   89.0940 C.3       1 3JK         0.0158
     13 CA         12.8510   54.6730   89.7970 C.3       1 3JK         0.1361
     14 C          12.3720   53.5010   89.1900 C.2       1 3JK         0.2037
     15 O          12.8640   52.4170   89.4980 O.2       1 3JK        -0.3944
     16 NAR        11.4500   53.6370   88.1940 N.am      1 3JK        -0.2742
     17 CAM        10.9730   52.4610   87.4350 C.3       1 3JK         0.0629
     18 CAV        11.7910   52.2310   86.2660 C.ar      1 3JK        -0.0245
     19 CAI        11.5420   51.0970   85.4650 C.ar      1 3JK        -0.0620
     20 CAK        12.3110   50.8060   84.3270 C.ar      1 3JK        -0.0638
     21 CAH        12.8460   53.0650   85.8700 C.ar      1 3JK        -0.0620
     22 CAJ        13.6190   52.7790   84.7210 C.ar      1 3JK        -0.0638
     23 CAX        13.3550   51.6650   83.9170 C.ar      1 3JK        -0.0021
     24 CAY        14.1320   51.4410   82.8310 C.2       1 3JK         0.1356
     25 OAS        15.4420   51.8020   82.7620 O.3       1 3JK        -0.2378
     26 CAL        15.9210   51.4150   81.5540 C.2       1 3JK         0.1593
     27 NAQ        14.9480   50.8380   80.8750 N.2       1 3JK        -0.2973
     28 CAW        13.8520   50.8580   81.6520 C.2       1 3JK         0.0233
     29 CAA        12.5140   50.2620   81.1760 C.3       1 3JK        -0.0303
     30 H          11.4912   51.1568   94.6417 H         1 3JK         0.0236
     31 H          11.0302   52.1779   93.2377 H         1 3JK         0.0236
     32 H          10.7794   52.7841   94.9099 H         1 3JK         0.0236
     33 H          14.8061   52.3774   93.3861 H         1 3JK         0.0236
     34 H          13.4144   51.8782   92.3660 H         1 3JK         0.0236
     35 H          13.8467   50.9237   93.8250 H         1 3JK         0.0236
     36 H          12.6779   53.5258   96.3035 H         1 3JK         0.0236
     37 H          14.3712   53.3356   95.7350 H         1 3JK         0.0236
     38 H          13.3955   51.8861   96.1517 H         1 3JK         0.0236
     39 H          13.8064   54.6783   93.7999 H         1 3JK         0.0508
     40 H          12.0955   54.8088   94.3316 H         1 3JK         0.0508
     41 H          15.3025   53.8597   91.3149 H         1 3JK         0.0550
     42 H          14.9411   55.3160   92.3026 H         1 3JK         0.0550
     43 H          16.1027   55.6116   89.8943 H         1 3JK         0.0616
     44 H          14.9028   57.5817   89.6831 H         1 3JK         0.2099
     45 H          14.6454   54.2507   88.6165 H         1 3JK         0.0338
     46 H          13.9445   55.8804   88.3346 H         1 3JK         0.0338
     47 H          12.0794   55.4527   89.7152 H         1 3JK         0.0803
     48 H          11.0918   54.5444   87.9741 H         1 3JK         0.1878
     49 H           9.9341   52.6348   87.1182 H         1 3JK         0.0678
     50 H          11.0150   51.5734   88.0834 H         1 3JK         0.0678
     51 H          10.7320   50.4297   85.7364 H         1 3JK         0.0549
     52 H          12.1007   49.9096   83.7549 H         1 3JK         0.0566
     53 H          13.0739   53.9475   86.4568 H         1 3JK         0.0549
     54 H          14.4368   53.4396   84.4565 H         1 3JK         0.0566
     55 H          16.9417   51.5572   81.2019 H         1 3JK         0.1399
     56 H          12.6316   49.8641   80.1573 H         1 3JK         0.0365
     57 H          11.7425   51.0460   81.1765 H         1 3JK         0.0365
     58 H          12.2123   49.4501   81.8541 H         1 3JK         0.0365
@<TRIPOS>BOND
     1    1    2 1  
     2    2    3 1  
     3    2    4 1  
     4    2    5 1  
     5    5    6 1  
     6    6    7 2  
     7    6    8 am 
     8    8    9 1  
     9    8   13 1  
    10    9   10 1  
    11   10   11 1  
    12   10   12 1  
    13   12   13 1  
    14   13   14 1  
    15   14   15 2  
    16   14   16 am 
    17   16   17 1  
    18   17   18 1  
    19   18   19 ar 
    20   18   21 ar 
    21   19   20 ar 
    22   20   23 ar 
    23   21   22 ar 
    24   22   23 ar 
    25   23   24 1  
    26   24   25 1  
    27   24   28 2  
    28   25   26 1  
    29   26   27 2  
    30   27   28 1  
    31   28   29 1  
    32    1   30 1  
    33    1   31 1  
    34    1   32 1  
    35    3   33 1  
    36    3   34 1  
    37    3   35 1  
    38    4   36 1  
    39    4   37 1  
    40    4   38 1  
    41    5   39 1  
    42    5   40 1  
    43    9   41 1  
    44    9   42 1  
    45   10   43 1  
    46   11   44 1  
    47   12   45 1  
    48   12   46 1  
    49   13   47 1  
    50   16   48 1  
    51   17   49 1  
    52   17   50 1  
    53   19   51 1  
    54   20   52 1  
    55   21   53 1  
    56   22   54 1  
    57   26   55 1  
    58   29   56 1  
    59   29   57 1  
    60   29   58 1  
@<TRIPOS>SUBSTRUCTURE
     1 3JK         1

