### 
### Created by X-TOOL on Mon Sep 10 21:13:19 2018
### 

@<TRIPOS>MOLECULE
4w9e_ligand
   55    57     1     0     0
SMALL
GAST_HUCK


@<TRIPOS>ATOM
      1 CAA        13.1750   52.4960   95.2110 C.3       1 3JT        -0.0580
      2 CBB        12.5860   52.3230   93.8120 C.3       1 3JT        -0.0209
      3 CAB        11.2720   51.5440   93.9320 C.3       1 3JT        -0.0580
      4 CAC        13.5640   51.5290   92.9320 C.3       1 3JT        -0.0580
      5 CAN        12.3190   53.7180   93.2880 C.3       1 3JT         0.0424
      6 CAT        11.9460   53.6710   91.7790 C.2       1 3JT         0.1813
      7 OAD        10.7790   53.4260   91.4650 O.2       1 3JT        -0.3967
      8 N          12.9010   53.9790   90.8600 N.am      1 3JT        -0.2492
      9 CD2        14.3550   54.3770   91.0090 C.3       1 3JT         0.0628
     10 CG         14.6720   55.1950   89.7790 C.3       1 3JT         0.0799
     11 OD1        14.2730   56.5650   89.9670 O.3       1 3JT        -0.3896
     12 CB         13.8230   54.5610   88.7050 C.3       1 3JT         0.0158
     13 CA         12.5460   54.0790   89.4010 C.3       1 3JT         0.1361
     14 C          12.1230   52.8850   88.8080 C.2       1 3JT         0.2038
     15 O          12.6460   51.8200   89.1280 O.2       1 3JT        -0.3944
     16 NAR        11.1610   53.0030   87.8510 N.am      1 3JT        -0.2736
     17 CAM        10.6850   51.8380   87.1110 C.3       1 3JT         0.0646
     18 CAV        11.4910   51.6700   85.9510 C.ar      1 3JT        -0.0210
     19 CAH        11.3940   50.4740   85.2370 C.ar      1 3JT        -0.0582
     20 CAJ        12.1790   50.2480   84.1070 C.ar      1 3JT        -0.0605
     21 CAG        12.4000   52.6380   85.4910 C.ar      1 3JT        -0.0582
     22 CAI        13.1810   52.4090   84.3550 C.ar      1 3JT        -0.0605
     23 CAW        13.0760   51.2190   83.6470 C.ar      1 3JT        -0.0141
     24 CAX        13.8200   51.0030   82.5550 C.2       1 3JT         0.0510
     25 SAS        15.4190   51.4870   82.3140 S.3       1 3JT        -0.0026
     26 CAK        15.5370   50.8320   80.8020 C.2       1 3JT         0.0753
     27 NAQ        14.3620   50.2570   80.5100 N.2       1 3JT        -0.3097
     28 CAL        13.4100   50.3460   81.4640 C.2       1 3JT        -0.0058
     29 H          13.3900   51.5075   95.6431 H         1 3JT         0.0236
     30 H          12.4533   53.0262   95.8497 H         1 3JT         0.0236
     31 H          14.1058   53.0787   95.1475 H         1 3JT         0.0236
     32 H          10.8328   51.4097   92.9325 H         1 3JT         0.0236
     33 H          10.5707   52.1036   94.5684 H         1 3JT         0.0236
     34 H          11.4691   50.5594   94.3811 H         1 3JT         0.0236
     35 H          14.5096   52.0837   92.8422 H         1 3JT         0.0236
     36 H          13.1260   51.3870   91.9330 H         1 3JT         0.0236
     37 H          13.7565   50.5480   93.3908 H         1 3JT         0.0236
     38 H          13.2218   54.3327   93.4187 H         1 3JT         0.0508
     39 H          11.4869   54.1637   93.8528 H         1 3JT         0.0508
     40 H          14.9962   53.4844   91.0539 H         1 3JT         0.0550
     41 H          14.4988   54.9780   91.9190 H         1 3JT         0.0550
     42 H          15.7421   55.1438   89.5295 H         1 3JT         0.0616
     43 H          14.4794   57.0639   89.1853 H         1 3JT         0.2099
     44 H          14.3539   53.7114   88.2507 H         1 3JT         0.0338
     45 H          13.5782   55.2989   87.9268 H         1 3JT         0.0338
     46 H          11.7454   54.8236   89.2801 H         1 3JT         0.0803
     47 H          10.7740   53.9033   87.6518 H         1 3JT         0.1879
     48 H           9.6372   51.9918   86.8138 H         1 3JT         0.0685
     49 H          10.7586   50.9421   87.7450 H         1 3JT         0.0685
     50 H          10.6985   49.7103   85.5659 H         1 3JT         0.0559
     51 H          12.0933   49.3063   83.5769 H         1 3JT         0.0598
     52 H          12.4968   53.5762   86.0253 H         1 3JT         0.0559
     53 H          13.8776   53.1700   84.0223 H         1 3JT         0.0598
     54 H          16.4139   50.8621   80.1570 H         1 3JT         0.1167
     55 H          12.4110   49.9260   81.3562 H         1 3JT         0.0593
@<TRIPOS>BOND
     1    1    2 1  
     2    2    3 1  
     3    2    4 1  
     4    2    5 1  
     5    5    6 1  
     6    6    7 2  
     7    6    8 am 
     8    8    9 1  
     9    8   13 1  
    10    9   10 1  
    11   10   11 1  
    12   10   12 1  
    13   12   13 1  
    14   13   14 1  
    15   14   15 2  
    16   14   16 am 
    17   16   17 1  
    18   17   18 1  
    19   18   19 ar 
    20   18   21 ar 
    21   19   20 ar 
    22   20   23 ar 
    23   21   22 ar 
    24   22   23 ar 
    25   23   24 1  
    26   24   25 1  
    27   24   28 2  
    28   25   26 1  
    29   26   27 2  
    30   27   28 1  
    31    1   29 1  
    32    1   30 1  
    33    1   31 1  
    34    3   32 1  
    35    3   33 1  
    36    3   34 1  
    37    4   35 1  
    38    4   36 1  
    39    4   37 1  
    40    5   38 1  
    41    5   39 1  
    42    9   40 1  
    43    9   41 1  
    44   10   42 1  
    45   11   43 1  
    46   12   44 1  
    47   12   45 1  
    48   13   46 1  
    49   16   47 1  
    50   17   48 1  
    51   17   49 1  
    52   19   50 1  
    53   20   51 1  
    54   21   52 1  
    55   22   53 1  
    56   26   54 1  
    57   28   55 1  
@<TRIPOS>SUBSTRUCTURE
     1 3JT         1

