### 
### Created by X-TOOL on Mon Sep 10 21:13:19 2018
### 

@<TRIPOS>MOLECULE
4w9f_ligand
   58    60     1     0     0
SMALL
GAST_HUCK


@<TRIPOS>ATOM
      1 CAB        -5.7210   33.6970   -4.1200 C.3       1 3JU        -0.0580
      2 CBC        -5.6720   34.2880   -2.7120 C.3       1 3JU        -0.0209
      3 CAC        -5.1440   35.7300   -2.8300 C.3       1 3JU        -0.0580
      4 CAD        -4.7520   33.4240   -1.8280 C.3       1 3JU        -0.0580
      5 CAN        -7.0780   34.2620   -2.1790 C.3       1 3JU         0.0424
      6 CAT        -7.0750   34.7340   -0.6890 C.2       1 3JU         0.1813
      7 OAE        -6.8530   35.9110   -0.4070 O.2       1 3JU        -0.3967
      8 N          -7.3620   33.8130    0.2600 N.am      1 3JU        -0.2492
      9 CD2        -7.7210   32.3670    0.1000 C.3       1 3JU         0.0628
     10 CG         -8.5470   32.0450    1.3090 C.3       1 3JU         0.0799
     11 OD1        -9.9030   32.4110    1.0820 O.3       1 3JU        -0.3896
     12 CB         -7.9270   32.9050    2.3850 C.3       1 3JU         0.0158
     13 CA         -7.4880   34.1960    1.7010 C.3       1 3JU         0.1361
     14 C          -6.3150   34.6750    2.3220 C.2       1 3JU         0.2037
     15 O          -5.2200   34.2430    1.9990 O.2       1 3JU        -0.3944
     16 NAR        -6.5060   35.5240    3.3430 N.am      1 3JU        -0.2741
     17 CAM        -5.4280   36.0820    4.1530 C.3       1 3JU         0.0631
     18 CAV        -5.2620   35.2770    5.3090 C.ar      1 3JU        -0.0241
     19 CAI        -4.0500   35.3250    5.9940 C.ar      1 3JU        -0.0617
     20 CAK        -3.8310   34.5360    7.1320 C.ar      1 3JU        -0.0654
     21 CAH        -6.2500   34.4090    5.8020 C.ar      1 3JU        -0.0617
     22 CAJ        -6.0230   33.6160    6.9350 C.ar      1 3JU        -0.0654
     23 CAX        -4.8190   33.6690    7.6290 C.ar      1 3JU        -0.0244
     24 CAY        -4.6090   32.9010    8.7260 C.2       1 3JU         0.0479
     25 SAS        -5.0140   31.2680    8.8960 S.3       1 3JU        -0.0127
     26 CAL        -4.4390   31.0900   10.4140 C.2       1 3JU         0.0738
     27 NAQ        -3.9350   32.2620   10.8040 N.2       1 3JU        -0.3006
     28 CAW        -4.0270   33.2520    9.8940 C.2       1 3JU         0.0119
     29 CAA        -3.4830   34.6450   10.2370 C.3       1 3JU        -0.0271
     30 H          -4.7095   33.6955   -4.5524 H         1 3JU         0.0236
     31 H          -6.3879   34.3043   -4.7496 H         1 3JU         0.0236
     32 H          -6.1007   32.6657   -4.0718 H         1 3JU         0.0236
     33 H          -5.0963   36.1859   -1.8301 H         1 3JU         0.0236
     34 H          -5.8203   36.3170   -3.4687 H         1 3JU         0.0236
     35 H          -4.1383   35.7170   -3.2754 H         1 3JU         0.0236
     36 H          -5.1571   32.4032   -1.7651 H         1 3JU         0.0236
     37 H          -4.6977   33.8597   -0.8195 H         1 3JU         0.0236
     38 H          -3.7445   33.3921   -2.2684 H         1 3JU         0.0236
     39 H          -7.4748   33.2378   -2.2390 H         1 3JU         0.0508
     40 H          -7.7099   34.9357   -2.7764 H         1 3JU         0.0508
     41 H          -6.8155   31.7432    0.0713 H         1 3JU         0.0550
     42 H          -8.3030   32.2111   -0.8203 H         1 3JU         0.0550
     43 H          -8.4852   30.9774    1.5666 H         1 3JU         0.0616
     44 H         -10.4190   32.2038    1.8523 H         1 3JU         0.2099
     45 H          -7.0591   32.3944    2.8278 H         1 3JU         0.0338
     46 H          -8.6650   33.1224    3.1712 H         1 3JU         0.0338
     47 H          -8.2652   34.9680    1.8006 H         1 3JU         0.0803
     48 H          -7.4444   35.7908    3.5624 H         1 3JU         0.1878
     49 H          -5.6834   37.1095    4.4515 H         1 3JU         0.0679
     50 H          -4.4945   36.0905    3.5712 H         1 3JU         0.0679
     51 H          -3.2638   35.9828    5.6416 H         1 3JU         0.0550
     52 H          -2.8759   34.5962    7.6411 H         1 3JU         0.0568
     53 H          -7.2070   34.3513    5.2962 H         1 3JU         0.0550
     54 H          -6.8033   32.9463    7.2781 H         1 3JU         0.0568
     55 H          -4.4628   30.1752   11.0043 H         1 3JU         0.1176
     56 H          -3.0669   34.6356   11.2552 H         1 3JU         0.0382
     57 H          -4.2984   35.3811   10.1810 H         1 3JU         0.0382
     58 H          -2.6936   34.9170    9.5208 H         1 3JU         0.0382
@<TRIPOS>BOND
     1    1    2 1  
     2    2    3 1  
     3    2    4 1  
     4    2    5 1  
     5    5    6 1  
     6    6    7 2  
     7    6    8 am 
     8    8    9 1  
     9    8   13 1  
    10    9   10 1  
    11   10   11 1  
    12   10   12 1  
    13   12   13 1  
    14   13   14 1  
    15   14   15 2  
    16   14   16 am 
    17   16   17 1  
    18   17   18 1  
    19   18   19 ar 
    20   18   21 ar 
    21   19   20 ar 
    22   20   23 ar 
    23   21   22 ar 
    24   22   23 ar 
    25   23   24 1  
    26   24   25 1  
    27   24   28 2  
    28   25   26 1  
    29   26   27 2  
    30   27   28 1  
    31   28   29 1  
    32    1   30 1  
    33    1   31 1  
    34    1   32 1  
    35    3   33 1  
    36    3   34 1  
    37    3   35 1  
    38    4   36 1  
    39    4   37 1  
    40    4   38 1  
    41    5   39 1  
    42    5   40 1  
    43    9   41 1  
    44    9   42 1  
    45   10   43 1  
    46   11   44 1  
    47   12   45 1  
    48   12   46 1  
    49   13   47 1  
    50   16   48 1  
    51   17   49 1  
    52   17   50 1  
    53   19   51 1  
    54   20   52 1  
    55   21   53 1  
    56   22   54 1  
    57   26   55 1  
    58   29   56 1  
    59   29   57 1  
    60   29   58 1  
@<TRIPOS>SUBSTRUCTURE
     1 3JU         1

