### 
### Created by X-TOOL on Mon Sep 10 21:13:20 2018
### 

@<TRIPOS>MOLECULE
4w9g_ligand
   58    60     1     0     0
SMALL
GAST_HUCK


@<TRIPOS>ATOM
      1 CAB        11.5140   51.7650   94.0140 C.3       1 3JV        -0.0580
      2 CBC        12.8260   52.5330   93.8180 C.3       1 3JV        -0.0209
      3 CAC        13.7650   51.7170   92.9150 C.3       1 3JV        -0.0580
      4 CAD        13.4650   52.7160   95.1970 C.3       1 3JV        -0.0580
      5 CAN        12.5370   53.9230   93.2720 C.3       1 3JV         0.0424
      6 CAT        12.1490   53.8620   91.7690 C.2       1 3JV         0.1813
      7 OAE        10.9790   53.6250   91.4660 O.2       1 3JV        -0.3967
      8 N          13.0940   54.1460   90.8380 N.am      1 3JV        -0.2492
      9 CD2        14.5440   54.5150   90.9840 C.3       1 3JV         0.0628
     10 CG         14.9190   55.2490   89.7170 C.3       1 3JV         0.0799
     11 OD1        14.6100   56.6420   89.8390 O.3       1 3JV        -0.3896
     12 CB         14.0430   54.6210   88.6620 C.3       1 3JV         0.0158
     13 CA         12.7510   54.2040   89.3700 C.3       1 3JV         0.1361
     14 C          12.3170   52.9980   88.8180 C.2       1 3JV         0.2038
     15 O          12.8070   51.9320   89.1870 O.2       1 3JV        -0.3944
     16 NAR        11.3870   53.1030   87.8410 N.am      1 3JV        -0.2737
     17 CAM        10.8910   51.9310   87.1270 C.3       1 3JV         0.0632
     18 CAW        11.6850   51.7730   85.9620 C.ar      1 3JV        -0.0273
     19 CAL        11.7050   50.5260   85.3410 C.ar      1 3JV        -0.0561
     20 CAV        12.4730   50.2860   84.2010 C.ar      1 3JV        -0.0424
     21 CAA        12.4190   48.9930   83.6620 C.3       1 3JV        -0.0312
     22 CAH        12.4620   52.7980   85.4050 C.ar      1 3JV        -0.0645
     23 CAI        13.2300   52.5730   84.2640 C.ar      1 3JV        -0.0659
     24 CAY        13.2490   51.3270   83.6410 C.ar      1 3JV        -0.0108
     25 CAX        14.0180   51.1800   82.5440 C.2       1 3JV         0.0473
     26 SAS        15.6020   51.6610   82.4150 S.3       1 3JV        -0.0048
     27 CAJ        15.8050   51.1480   80.8630 C.2       1 3JV         0.0734
     28 NAQ        14.6420   50.6190   80.4640 N.2       1 3JV        -0.3129
     29 CAK        13.6480   50.6340   81.3770 C.2       1 3JV        -0.0091
     30 H          11.7319   50.7617   94.4088 H         1 3JV         0.0236
     31 H          10.9945   51.6743   93.0487 H         1 3JV         0.0236
     32 H          10.8741   52.3078   94.7252 H         1 3JV         0.0236
     33 H          14.7071   52.2670   92.7735 H         1 3JV         0.0236
     34 H          13.2851   51.5544   91.9386 H         1 3JV         0.0236
     35 H          13.9749   50.7457   93.3867 H         1 3JV         0.0236
     36 H          12.7897   53.3002   95.8394 H         1 3JV         0.0236
     37 H          14.4215   53.2487   95.0902 H         1 3JV         0.0236
     38 H          13.6429   51.7306   95.6524 H         1 3JV         0.0236
     39 H          13.4348   54.5481   93.3865 H         1 3JV         0.0508
     40 H          11.7062   54.3669   93.8401 H         1 3JV         0.0508
     41 H          15.1588   53.6099   91.0971 H         1 3JV         0.0550
     42 H          14.6860   55.1665   91.8589 H         1 3JV         0.0550
     43 H          15.9855   55.1183   89.4815 H         1 3JV         0.0616
     44 H          15.0966   57.0106   90.5670 H         1 3JV         0.2099
     45 H          14.5405   53.7413   88.2278 H         1 3JV         0.0338
     46 H          13.8238   55.3482   87.8664 H         1 3JV         0.0338
     47 H          11.9677   54.9605   89.2146 H         1 3JV         0.0803
     48 H          11.0306   54.0063   87.6022 H         1 3JV         0.1879
     49 H           9.8380   52.0802   86.8462 H         1 3JV         0.0685
     50 H          10.9777   51.0386   87.7642 H         1 3JV         0.0685
     51 H          11.1082   49.7210   85.7543 H         1 3JV         0.0495
     52 H          11.7507   48.3686   84.2732 H         1 3JV         0.0397
     53 H          13.4280   48.5550   83.6580 H         1 3JV         0.0397
     54 H          12.0359   49.0408   82.6320 H         1 3JV         0.0397
     55 H          12.4656   53.7783   85.8676 H         1 3JV         0.0505
     56 H          13.8233   53.3822   83.8538 H         1 3JV         0.0581
     57 H          16.7161   51.2249   80.2715 H         1 3JV         0.1151
     58 H          12.6497   50.2433   81.1856 H         1 3JV         0.0566
@<TRIPOS>BOND
     1    1    2 1  
     2    2    3 1  
     3    2    4 1  
     4    2    5 1  
     5    5    6 1  
     6    6    7 2  
     7    6    8 am 
     8    8    9 1  
     9    8   13 1  
    10    9   10 1  
    11   10   11 1  
    12   10   12 1  
    13   12   13 1  
    14   13   14 1  
    15   14   15 2  
    16   14   16 am 
    17   16   17 1  
    18   17   18 1  
    19   18   19 ar 
    20   18   22 ar 
    21   19   20 ar 
    22   20   21 1  
    23   20   24 ar 
    24   22   23 ar 
    25   23   24 ar 
    26   24   25 1  
    27   25   26 1  
    28   25   29 2  
    29   26   27 1  
    30   27   28 2  
    31   28   29 1  
    32    1   30 1  
    33    1   31 1  
    34    1   32 1  
    35    3   33 1  
    36    3   34 1  
    37    3   35 1  
    38    4   36 1  
    39    4   37 1  
    40    4   38 1  
    41    5   39 1  
    42    5   40 1  
    43    9   41 1  
    44    9   42 1  
    45   10   43 1  
    46   11   44 1  
    47   12   45 1  
    48   12   46 1  
    49   13   47 1  
    50   16   48 1  
    51   17   49 1  
    52   17   50 1  
    53   19   51 1  
    54   21   52 1  
    55   21   53 1  
    56   21   54 1  
    57   22   55 1  
    58   23   56 1  
    59   27   57 1  
    60   29   58 1  
@<TRIPOS>SUBSTRUCTURE
     1 3JV         1

