### 
### Created by X-TOOL on Mon Sep 10 21:13:19 2018
### 

@<TRIPOS>MOLECULE
4w9h_ligand
   65    67     1     0     0
SMALL
GAST_HUCK


@<TRIPOS>ATOM
      1 CAA         9.7950   56.2440   95.0880 C.3       1 3JF         0.0258
      2 CAV        11.1050   55.6490   94.5390 C.2       1 3JF         0.1751
      3 OAF        12.1640   56.2220   94.7630 O.2       1 3JF        -0.3972
      4 NAT        10.9830   54.4680   93.9020 N.am      1 3JF        -0.2653
      5 CBE        12.1050   53.7530   93.2640 C.3       1 3JF         0.1359
      6 CBG        12.2460   52.3070   93.8150 C.3       1 3JF         0.0026
      7 CAD        12.5770   52.3600   95.3120 C.3       1 3JF        -0.0558
      8 CAE        13.3960   51.5840   93.0920 C.3       1 3JF        -0.0558
      9 CAC        10.9360   51.4850   93.6750 C.3       1 3JF        -0.0558
     10 CAX        11.7940   53.8090   91.7400 C.2       1 3JF         0.2070
     11 OAH        10.6420   53.6410   91.3560 O.2       1 3JF        -0.3942
     12 N          12.7880   54.0820   90.8660 N.am      1 3JF        -0.2473
     13 CD2        14.2430   54.3770   91.0510 C.3       1 3JF         0.0629
     14 CG         14.6280   55.2010   89.8160 C.3       1 3JF         0.0799
     15 OD1        14.2960   56.5900   89.9680 O.3       1 3JF        -0.3896
     16 CB         13.7830   54.6250   88.7250 C.3       1 3JF         0.0158
     17 CA         12.4600   54.2030   89.3800 C.3       1 3JF         0.1362
     18 C          12.0210   53.0100   88.7650 C.2       1 3JF         0.2037
     19 O          12.4490   51.9300   89.1560 O.2       1 3JF        -0.3944
     20 NAS        11.2160   53.1280   87.6810 N.am      1 3JF        -0.2741
     21 CAO        10.7750   51.9460   86.9360 C.3       1 3JF         0.0631
     22 CAY        11.5790   51.7750   85.7660 C.ar      1 3JF        -0.0241
     23 CAK        12.4090   52.7680   85.2270 C.ar      1 3JF        -0.0617
     24 CAM        13.1790   52.5240   84.0770 C.ar      1 3JF        -0.0654
     25 CAJ        11.5530   50.5390   85.1170 C.ar      1 3JF        -0.0617
     26 CAL        12.3150   50.2980   83.9740 C.ar      1 3JF        -0.0654
     27 CBA        13.1450   51.2900   83.4270 C.ar      1 3JF        -0.0244
     28 CBB        13.8760   51.0670   82.3110 C.2       1 3JF         0.0479
     29 SAU        15.5020   51.4650   82.0540 S.3       1 3JF        -0.0127
     30 CAN        15.5700   50.8640   80.5030 C.2       1 3JF         0.0738
     31 NAR        14.3640   50.3760   80.1960 N.2       1 3JF        -0.3006
     32 CAZ        13.4440   50.4860   81.1700 C.2       1 3JF         0.0119
     33 CAB        12.0320   49.9440   80.9210 C.3       1 3JF        -0.0271
     34 H           8.9500   55.6042   94.7936 H         1 3JF         0.0467
     35 H           9.6506   57.2541   94.6772 H         1 3JF         0.0467
     36 H           9.8486   56.2986   96.1853 H         1 3JF         0.0467
     37 H          10.0756   54.0500   93.8589 H         1 3JF         0.1883
     38 H          13.0464   54.2860   93.4631 H         1 3JF         0.0805
     39 H          12.6768   51.3363   95.7019 H         1 3JF         0.0237
     40 H          11.7690   52.8793   95.8481 H         1 3JF         0.0237
     41 H          13.5226   52.9023   95.4595 H         1 3JF         0.0237
     42 H          13.1785   51.5349   92.0148 H         1 3JF         0.0237
     43 H          13.4975   50.5645   93.4924 H         1 3JF         0.0237
     44 H          14.3341   52.1358   93.2518 H         1 3JF         0.0237
     45 H          10.1184   52.0070   94.1937 H         1 3JF         0.0237
     46 H          11.0778   50.4901   94.1223 H         1 3JF         0.0237
     47 H          10.6837   51.3757   92.6099 H         1 3JF         0.0237
     48 H          14.8262   53.4453   91.0940 H         1 3JF         0.0550
     49 H          14.4084   54.9559   91.9716 H         1 3JF         0.0550
     50 H          15.7003   55.0952   89.5946 H         1 3JF         0.0616
     51 H          14.5500   57.0628   89.1841 H         1 3JF         0.2099
     52 H          14.2816   53.7524   88.2778 H         1 3JF         0.0338
     53 H          13.5986   55.3806   87.9472 H         1 3JF         0.0338
     54 H          11.6903   54.9759   89.2379 H         1 3JF         0.0803
     55 H          10.9185   54.0357   87.3852 H         1 3JF         0.1878
     56 H           9.7235   52.0741   86.6394 H         1 3JF         0.0679
     57 H          10.8697   51.0563   87.5758 H         1 3JF         0.0679
     58 H          12.4576   53.7397   85.7050 H         1 3JF         0.0550
     59 H          13.8131   53.3117   83.6865 H         1 3JF         0.0568
     60 H          10.9255   49.7477   85.5110 H         1 3JF         0.0550
     61 H          12.2656   49.3253   83.4982 H         1 3JF         0.0568
     62 H          16.4435   50.8678   79.8527 H         1 3JF         0.1176
     63 H          11.9727   49.5288   79.9041 H         1 3JF         0.0382
     64 H          11.3020   50.7600   81.0270 H         1 3JF         0.0382
     65 H          11.8080   49.1542   81.6531 H         1 3JF         0.0382
@<TRIPOS>BOND
     1    1    2 1  
     2    2    3 2  
     3    2    4 am 
     4    4    5 1  
     5    5    6 1  
     6    5   10 1  
     7    6    7 1  
     8    6    8 1  
     9    6    9 1  
    10   10   11 2  
    11   10   12 am 
    12   12   13 1  
    13   12   17 1  
    14   13   14 1  
    15   14   15 1  
    16   14   16 1  
    17   16   17 1  
    18   17   18 1  
    19   18   19 2  
    20   18   20 am 
    21   20   21 1  
    22   21   22 1  
    23   22   23 ar 
    24   22   25 ar 
    25   23   24 ar 
    26   24   27 ar 
    27   25   26 ar 
    28   26   27 ar 
    29   27   28 1  
    30   28   29 1  
    31   28   32 2  
    32   29   30 1  
    33   30   31 2  
    34   31   32 1  
    35   32   33 1  
    36    1   34 1  
    37    1   35 1  
    38    1   36 1  
    39    4   37 1  
    40    5   38 1  
    41    7   39 1  
    42    7   40 1  
    43    7   41 1  
    44    8   42 1  
    45    8   43 1  
    46    8   44 1  
    47    9   45 1  
    48    9   46 1  
    49    9   47 1  
    50   13   48 1  
    51   13   49 1  
    52   14   50 1  
    53   15   51 1  
    54   16   52 1  
    55   16   53 1  
    56   17   54 1  
    57   20   55 1  
    58   21   56 1  
    59   21   57 1  
    60   23   58 1  
    61   24   59 1  
    62   25   60 1  
    63   26   61 1  
    64   30   62 1  
    65   33   63 1  
    66   33   64 1  
    67   33   65 1  
@<TRIPOS>SUBSTRUCTURE
     1 3JF         1

