### 
### Created by X-TOOL on Mon Sep 10 21:13:20 2018
### 

@<TRIPOS>MOLECULE
4w9i_ligand
   61    64     1     0     0
SMALL
GAST_HUCK


@<TRIPOS>ATOM
      1 CAA        10.7660   54.1250   95.7580 C.3       1 3JS         0.0260
      2 CAU        11.7050   54.3010   94.5590 C.2       1 3JS         0.1777
      3 OAC        11.9480   55.4080   94.0830 O.2       1 3JS        -0.3970
      4 NBF        12.2170   53.1830   94.0600 N.am      1 3JS        -0.2494
      5 CAP        12.0270   51.7840   94.4930 C.3       1 3JS         0.0628
      6 CBC        12.5830   50.9670   93.3440 C.3       1 3JS         0.0799
      7 OAG        13.2300   49.7870   93.8530 O.3       1 3JS        -0.3896
      8 CAO        13.6210   51.8500   92.7070 C.3       1 3JS         0.0158
      9 CBE        13.1030   53.2650   92.8870 C.3       1 3JS         0.1363
     10 CAW        12.4190   53.6210   91.6970 C.2       1 3JS         0.2068
     11 OAE        11.2310   53.3680   91.5710 O.2       1 3JS        -0.3942
     12 N          13.1500   54.1420   90.6840 N.am      1 3JS        -0.2473
     13 CD2        14.5970   54.5010   90.7160 C.3       1 3JS         0.0629
     14 CG         14.7810   55.4500   89.5580 C.3       1 3JS         0.0799
     15 OD1        14.4380   56.7770   89.9620 O.3       1 3JS        -0.3896
     16 CB         13.7970   54.9670   88.5240 C.3       1 3JS         0.0158
     17 CA         12.5940   54.4540   89.3140 C.3       1 3JS         0.1362
     18 C          12.1490   53.2710   88.6960 C.2       1 3JS         0.2037
     19 O          12.6270   52.1840   89.0340 O.2       1 3JS        -0.3944
     20 NAS        11.2190   53.3930   87.7060 N.am      1 3JS        -0.2741
     21 CAM        10.7330   52.2140   86.9750 C.3       1 3JS         0.0631
     22 CAX        11.5460   51.9900   85.8260 C.ar      1 3JS        -0.0241
     23 CAI        11.4920   50.7450   85.1830 C.ar      1 3JS        -0.0617
     24 CAK        12.2710   50.4760   84.0570 C.ar      1 3JS        -0.0654
     25 CAH        12.4120   52.9580   85.3030 C.ar      1 3JS        -0.0617
     26 CAJ        13.1950   52.6910   84.1700 C.ar      1 3JS        -0.0654
     27 CAZ        13.1310   51.4600   83.5310 C.ar      1 3JS        -0.0244
     28 CBA        13.8970   51.2530   82.4440 C.2       1 3JS         0.0479
     29 SAT        15.5280   51.7430   82.2380 S.3       1 3JS        -0.0127
     30 CAL        15.6780   51.1420   80.7100 C.2       1 3JS         0.0738
     31 NAR        14.5090   50.5870   80.3630 N.2       1 3JS        -0.3006
     32 CAY        13.5360   50.6490   81.2980 C.2       1 3JS         0.0119
     33 CAB        12.1540   50.0450   81.0120 C.3       1 3JS        -0.0271
     34 H          10.6944   53.0576   96.0140 H         1 3JS         0.0467
     35 H           9.7674   54.5082   95.5011 H         1 3JS         0.0467
     36 H          11.1624   54.6828   96.6192 H         1 3JS         0.0467
     37 H          10.9606   51.5642   94.6491 H         1 3JS         0.0550
     38 H          12.5826   51.5828   95.4208 H         1 3JS         0.0550
     39 H          11.7925   50.6948   92.6292 H         1 3JS         0.0616
     40 H          13.9399   50.0408   94.4310 H         1 3JS         0.2099
     41 H          13.7278   51.6112   91.6386 H         1 3JS         0.0338
     42 H          14.5922   51.7279   93.2089 H         1 3JS         0.0338
     43 H          13.9219   53.9754   93.0734 H         1 3JS         0.0803
     44 H          15.2220   53.6052   90.5866 H         1 3JS         0.0550
     45 H          14.8538   54.9932   91.6656 H         1 3JS         0.0550
     46 H          15.8120   55.4215   89.1758 H         1 3JS         0.0616
     47 H          14.5556   57.3702   89.2294 H         1 3JS         0.2099
     48 H          14.2366   54.1568   87.9238 H         1 3JS         0.0338
     49 H          13.4983   55.7932   87.8620 H         1 3JS         0.0338
     50 H          11.7857   55.1984   89.3652 H         1 3JS         0.0803
     51 H          10.8624   54.2980   87.4739 H         1 3JS         0.1878
     52 H           9.6930   52.3831   86.6592 H         1 3JS         0.0679
     53 H          10.7781   51.3328   87.6318 H         1 3JS         0.0679
     54 H          10.8320   49.9763   85.5683 H         1 3JS         0.0550
     55 H          12.2140   49.5026   83.5835 H         1 3JS         0.0568
     56 H          12.4784   53.9287   85.7809 H         1 3JS         0.0550
     57 H          13.8598   53.4571   83.7878 H         1 3JS         0.0568
     58 H          16.5723   51.1882   80.0902 H         1 3JS         0.1176
     59 H          12.1429   49.6187   79.9980 H         1 3JS         0.0382
     60 H          11.3877   50.8305   81.0879 H         1 3JS         0.0382
     61 H          11.9412   49.2529   81.7450 H         1 3JS         0.0382
@<TRIPOS>BOND
     1    1    2 1  
     2    2    3 2  
     3    2    4 am 
     4    4    5 1  
     5    4    9 1  
     6    5    6 1  
     7    6    7 1  
     8    6    8 1  
     9    8    9 1  
    10    9   10 1  
    11   10   11 2  
    12   10   12 am 
    13   12   13 1  
    14   12   17 1  
    15   13   14 1  
    16   14   15 1  
    17   14   16 1  
    18   16   17 1  
    19   17   18 1  
    20   18   19 2  
    21   18   20 am 
    22   20   21 1  
    23   21   22 1  
    24   22   23 ar 
    25   22   25 ar 
    26   23   24 ar 
    27   24   27 ar 
    28   25   26 ar 
    29   26   27 ar 
    30   27   28 1  
    31   28   29 1  
    32   28   32 2  
    33   29   30 1  
    34   30   31 2  
    35   31   32 1  
    36   32   33 1  
    37    1   34 1  
    38    1   35 1  
    39    1   36 1  
    40    5   37 1  
    41    5   38 1  
    42    6   39 1  
    43    7   40 1  
    44    8   41 1  
    45    8   42 1  
    46    9   43 1  
    47   13   44 1  
    48   13   45 1  
    49   14   46 1  
    50   15   47 1  
    51   16   48 1  
    52   16   49 1  
    53   17   50 1  
    54   20   51 1  
    55   21   52 1  
    56   21   53 1  
    57   23   54 1  
    58   24   55 1  
    59   25   56 1  
    60   26   57 1  
    61   30   58 1  
    62   33   59 1  
    63   33   60 1  
    64   33   61 1  
@<TRIPOS>SUBSTRUCTURE
     1 3JS         1

