### 
### Created by X-TOOL on Mon Sep 10 21:13:19 2018
### 

@<TRIPOS>MOLECULE
4w9j_ligand
   84    86     1     0     0
SMALL
GAST_HUCK


@<TRIPOS>ATOM
      1 CD1         7.6160   55.7390   96.1890 C.3       1 3JH        -0.0625
      2 CG          8.3460   57.0420   95.8070 C.3       1 3JH        -0.0425
      3 CD2         7.3100   58.0320   95.2780 C.3       1 3JH        -0.0625
      4 CB          9.4060   56.8260   94.7260 C.3       1 3JH        -0.0101
      5 CA         10.2880   55.6520   95.1670 C.3       1 3JH         0.1311
      6 N          10.9180   55.9660   96.4610 N.am      1 3JH        -0.2658
      7 CAA        11.3510   55.0470   97.3580 C.2       1 3JH         0.1751
      8 OAC        11.8800   55.3670   98.4280 O.2       1 3JH        -0.3972
      9 CAD        11.1370   53.5680   97.0270 C.3       1 3JH         0.0258
     10 C          11.4010   55.3790   94.1280 C.2       1 3JH         0.2039
     11 O          12.3280   56.1650   93.9560 O.2       1 3JH        -0.3944
     12 NAH        11.2850   54.2200   93.4890 N.am      1 3JH        -0.2632
     13 CAI        12.2830   53.7310   92.5490 C.3       1 3JH         0.1360
     14 CAJ        12.5310   52.2310   92.8770 C.3       1 3JH         0.0026
     15 CAL        13.1670   52.1450   94.2760 C.3       1 3JH        -0.0558
     16 CAM        13.4900   51.5770   91.8560 C.3       1 3JH        -0.0558
     17 CAK        11.2120   51.4030   92.9100 C.3       1 3JH        -0.0558
     18 CAQ        11.7860   53.9760   91.1190 C.2       1 3JH         0.2070
     19 OAR        10.6040   53.8200   90.8760 O.2       1 3JH        -0.3942
     20 NAS        12.6850   54.3470   90.1800 N.am      1 3JH        -0.2473
     21 CAW        14.1240   54.6630   90.3350 C.3       1 3JH         0.0629
     22 CAV        14.4400   55.6140   89.1830 C.3       1 3JH         0.0799
     23 OAZ        14.1400   56.9950   89.5450 O.3       1 3JH        -0.3896
     24 CAU        13.5580   55.2290   88.0680 C.3       1 3JH         0.0158
     25 CAT        12.3090   54.6050   88.7430 C.3       1 3JH         0.1362
     26 CAX        11.8960   53.4360   88.0570 C.2       1 3JH         0.2037
     27 OAY        12.3680   52.3520   88.3630 O.2       1 3JH        -0.3944
     28 NBA        10.9460   53.5680   87.0830 N.am      1 3JH        -0.2741
     29 CBB        10.4850   52.4090   86.3180 C.3       1 3JH         0.0631
     30 CBC        11.3120   52.2370   85.1610 C.ar      1 3JH        -0.0241
     31 CBH        12.2280   53.2070   84.6850 C.ar      1 3JH        -0.0617
     32 CBG        13.0330   52.9640   83.5500 C.ar      1 3JH        -0.0654
     33 CBD        11.2290   51.0340   84.4600 C.ar      1 3JH        -0.0617
     34 CBE        12.0290   50.7950   83.3210 C.ar      1 3JH        -0.0654
     35 CBF        12.9420   51.7590   82.8470 C.ar      1 3JH        -0.0244
     36 CBI        13.7020   51.5690   81.7500 C.2       1 3JH         0.0479
     37 SBM        15.3310   52.1250   81.5140 S.3       1 3JH        -0.0127
     38 CBL        15.4530   51.5250   79.9770 C.2       1 3JH         0.0738
     39 NBK        14.3090   50.9400   79.6390 N.2       1 3JH        -0.3006
     40 CBJ        13.3480   50.9610   80.5940 C.2       1 3JH         0.0119
     41 CBN        11.9880   50.3020   80.2970 C.3       1 3JH        -0.0271
     42 H           6.8681   55.9523   96.9669 H         1 3JH         0.0232
     43 H           8.3447   55.0090   96.5713 H         1 3JH         0.0232
     44 H           7.1143   55.3260   95.3015 H         1 3JH         0.0232
     45 H           8.8312   57.4552   96.7036 H         1 3JH         0.0298
     46 H           7.8097   58.9713   94.9986 H         1 3JH         0.0232
     47 H           6.5623   58.2328   96.0594 H         1 3JH         0.0232
     48 H           6.8121   57.6049   94.3950 H         1 3JH         0.0232
     49 H          10.0179   57.7332   94.6146 H         1 3JH         0.0315
     50 H           8.9210   56.5908   93.7672 H         1 3JH         0.0315
     51 H           9.6626   54.7532   95.2722 H         1 3JH         0.0800
     52 H          11.0351   56.9310   96.6955 H         1 3JH         0.1882
     53 H          11.5372   52.9481   97.8428 H         1 3JH         0.0467
     54 H          11.6588   53.3227   96.0902 H         1 3JH         0.0467
     55 H          10.0612   53.3703   96.9102 H         1 3JH         0.0467
     56 H          10.4758   53.6584   93.6615 H         1 3JH         0.1884
     57 H          13.2243   54.2829   92.6881 H         1 3JH         0.0805
     58 H          13.3521   51.0910   94.5304 H         1 3JH         0.0237
     59 H          12.4844   52.5866   95.0169 H         1 3JH         0.0237
     60 H          14.1191   52.6959   94.2805 H         1 3JH         0.0237
     61 H          13.0475   51.6314   90.8504 H         1 3JH         0.0237
     62 H          13.6528   50.5238   92.1284 H         1 3JH         0.0237
     63 H          14.4520   52.1104   91.8626 H         1 3JH         0.0237
     64 H          10.5147   51.8529   93.6320 H         1 3JH         0.0237
     65 H          11.4355   50.3691   93.2116 H         1 3JH         0.0237
     66 H          10.7543   51.4024   91.9098 H         1 3JH         0.0237
     67 H          14.7317   53.7491   90.2610 H         1 3JH         0.0550
     68 H          14.3117   55.1508   91.3029 H         1 3JH         0.0550
     69 H          15.4976   55.5237   88.8942 H         1 3JH         0.0616
     70 H          14.6628   57.2445   90.2980 H         1 3JH         0.2099
     71 H          14.0546   54.4934   87.4182 H         1 3JH         0.0338
     72 H          13.2767   56.1116   87.4747 H         1 3JH         0.0338
     73 H          11.4799   55.3273   88.7154 H         1 3JH         0.0803
     74 H          10.5603   54.4703   86.8904 H         1 3JH         0.1878
     75 H           9.4434   52.5691   86.0028 H         1 3JH         0.0679
     76 H          10.5435   51.5084   86.9469 H         1 3JH         0.0679
     77 H          12.3130   54.1557   85.2026 H         1 3JH         0.0550
     78 H          13.7320   53.7235   83.2190 H         1 3JH         0.0568
     79 H          10.5382   50.2689   84.7954 H         1 3JH         0.0550
     80 H          11.9390   49.8490   82.7994 H         1 3JH         0.0568
     81 H          16.3341   51.5982   79.3412 H         1 3JH         0.1176
     82 H          11.9945   49.8916   79.2764 H         1 3JH         0.0382
     83 H          11.1894   51.0534   80.3849 H         1 3JH         0.0382
     84 H          11.8087   49.4903   81.0174 H         1 3JH         0.0382
@<TRIPOS>BOND
     1    1    2 1  
     2    2    3 1  
     3    2    4 1  
     4    4    5 1  
     5    5    6 1  
     6    5   10 1  
     7    6    7 am 
     8    7    8 2  
     9    7    9 1  
    10   10   11 2  
    11   10   12 am 
    12   12   13 1  
    13   13   14 1  
    14   13   18 1  
    15   14   15 1  
    16   14   16 1  
    17   14   17 1  
    18   18   19 2  
    19   18   20 am 
    20   20   21 1  
    21   20   25 1  
    22   21   22 1  
    23   22   23 1  
    24   22   24 1  
    25   24   25 1  
    26   25   26 1  
    27   26   27 2  
    28   26   28 am 
    29   28   29 1  
    30   29   30 1  
    31   30   31 ar 
    32   30   33 ar 
    33   31   32 ar 
    34   32   35 ar 
    35   33   34 ar 
    36   34   35 ar 
    37   35   36 1  
    38   36   37 1  
    39   36   40 2  
    40   37   38 1  
    41   38   39 2  
    42   39   40 1  
    43   40   41 1  
    44    1   42 1  
    45    1   43 1  
    46    1   44 1  
    47    2   45 1  
    48    3   46 1  
    49    3   47 1  
    50    3   48 1  
    51    4   49 1  
    52    4   50 1  
    53    5   51 1  
    54    6   52 1  
    55    9   53 1  
    56    9   54 1  
    57    9   55 1  
    58   12   56 1  
    59   13   57 1  
    60   15   58 1  
    61   15   59 1  
    62   15   60 1  
    63   16   61 1  
    64   16   62 1  
    65   16   63 1  
    66   17   64 1  
    67   17   65 1  
    68   17   66 1  
    69   21   67 1  
    70   21   68 1  
    71   22   69 1  
    72   23   70 1  
    73   24   71 1  
    74   24   72 1  
    75   25   73 1  
    76   28   74 1  
    77   29   75 1  
    78   29   76 1  
    79   31   77 1  
    80   32   78 1  
    81   33   79 1  
    82   34   80 1  
    83   38   81 1  
    84   41   82 1  
    85   41   83 1  
    86   41   84 1  
@<TRIPOS>SUBSTRUCTURE
     1 3JH         1

