### 
### Created by X-TOOL on Mon Sep 10 21:13:19 2018
### 

@<TRIPOS>MOLECULE
4w9k_ligand
   85    88     1     0     0
SMALL
GAST_HUCK


@<TRIPOS>ATOM
      1 CAB        12.4020   50.4820   80.6110 C.3       1 3JO        -0.0271
      2 CBJ        13.7790   51.0930   80.9260 C.2       1 3JO         0.0119
      3 NAY        14.7530   51.0620   79.9900 N.2       1 3JO        -0.3006
      4 CAT        15.9000   51.6190   80.3590 C.2       1 3JO         0.0738
      5 SBC        15.7360   52.1760   81.8590 S.3       1 3JO        -0.0127
      6 CBL        14.1390   51.6750   82.0860 C.2       1 3JO         0.0479
      7 CBK        13.3900   51.8610   83.1890 C.ar      1 3JO        -0.0244
      8 CAS        13.4810   53.0500   83.9040 C.ar      1 3JO        -0.0654
      9 CAQ        12.7020   53.2680   85.0520 C.ar      1 3JO        -0.0617
     10 CAR        12.5000   50.8770   83.6600 C.ar      1 3JO        -0.0654
     11 CAP        11.7140   51.0910   84.7950 C.ar      1 3JO        -0.0617
     12 CBH        11.8070   52.2880   85.5150 C.ar      1 3JO        -0.0241
     13 CAU        11.0000   52.4300   86.6430 C.3       1 3JO         0.0631
     14 NAZ        11.4640   53.5910   87.4510 N.am      1 3JO        -0.2741
     15 CBE        12.3150   53.4780   88.4770 C.2       1 3JO         0.2037
     16 OAG        12.7830   52.4090   88.8210 O.2       1 3JO        -0.3944
     17 CBO        12.7350   54.6750   89.0760 C.3       1 3JO         0.1362
     18 CAW        14.0480   55.1170   88.3870 C.3       1 3JO         0.0158
     19 CBM        14.9050   55.6890   89.4830 C.3       1 3JO         0.0799
     20 OAJ        14.5370   57.0720   89.7420 O.3       1 3JO        -0.3896
     21 CAX        14.5530   54.7910   90.6810 C.3       1 3JO         0.0629
     22 NBQ        13.0720   54.5300   90.5360 N.am      1 3JO        -0.2473
     23 CBG        12.0920   54.2990   91.4430 C.2       1 3JO         0.2070
     24 OAI        10.9170   54.1760   91.1150 O.2       1 3JO        -0.3942
     25 CBP        12.4600   54.2160   92.9440 C.3       1 3JO         0.1360
     26 CBR        12.6750   52.7720   93.4310 C.3       1 3JO         0.0026
     27 CAD        11.3560   51.9470   93.4330 C.3       1 3JO        -0.0558
     28 CAE        13.2170   52.8110   94.8750 C.3       1 3JO        -0.0558
     29 CAC        13.7170   52.0500   92.5710 C.3       1 3JO        -0.0558
     30 NBB        11.3320   54.7700   93.6960 N.am      1 3JO        -0.2631
     31 C          11.3260   55.9320   94.3580 C.2       1 3JO         0.2060
     32 O          12.2950   56.6910   94.4700 O.2       1 3JO        -0.3942
     33 CA          9.9740   56.1850   95.0840 C.3       1 3JO         0.1404
     34 N           9.8240   55.1070   96.0840 N.am      1 3JO        -0.2640
     35 CBD         8.8720   54.1540   96.0220 C.2       1 3JO         0.1752
     36 OAF         7.9790   54.0850   95.1760 O.2       1 3JO        -0.3972
     37 CAA         8.9460   53.1230   97.1460 C.3       1 3JO         0.0258
     38 CB          9.9390   57.5110   95.8010 C.3       1 3JO         0.0214
     39 CG          8.6370   57.6150   96.3520 C.ar      1 3JO        -0.0386
     40 CD1         7.5280   57.8130   95.5250 C.ar      1 3JO        -0.0601
     41 CE1         6.2460   57.9190   96.0520 C.ar      1 3JO        -0.0686
     42 CZ          6.0510   57.8350   97.4240 C.ar      1 3JO        -0.0687
     43 CE2         7.1400   57.6310   98.2630 C.ar      1 3JO        -0.0686
     44 CD2         8.4260   57.5210   97.7350 C.ar      1 3JO        -0.0601
     45 H          11.7414   50.5978   81.4829 H         1 3JO         0.0382
     46 H          12.5194   49.4131   80.3794 H         1 3JO         0.0382
     47 H          11.9609   50.9984   79.7457 H         1 3JO         0.0382
     48 H          16.7998   51.6873   79.7493 H         1 3JO         0.1176
     49 H          14.1648   53.8218   83.5697 H         1 3JO         0.0568
     50 H          12.7922   54.2055   85.5887 H         1 3JO         0.0550
     51 H          12.4230   49.9339   83.1311 H         1 3JO         0.0568
     52 H          11.0242   50.3213   85.1219 H         1 3JO         0.0550
     53 H          11.0579   51.5152   87.2512 H         1 3JO         0.0679
     54 H           9.9590   52.5963   86.3289 H         1 3JO         0.0679
     55 H          11.1225   54.5008   87.2150 H         1 3JO         0.1878
     56 H          11.9518   55.4372   88.9507 H         1 3JO         0.0803
     57 H          13.8425   55.8802   87.6220 H         1 3JO         0.0338
     58 H          14.5462   54.2546   87.9201 H         1 3JO         0.0338
     59 H          15.9748   55.6268   89.2345 H         1 3JO         0.0616
     60 H          15.0855   57.4200   90.4353 H         1 3JO         0.2099
     61 H          14.7659   55.3065   91.6291 H         1 3JO         0.0550
     62 H          15.1195   53.8490   90.6405 H         1 3JO         0.0550
     63 H          13.3720   54.8024   93.1294 H         1 3JO         0.0805
     64 H          11.5624   50.9264   93.7876 H         1 3JO         0.0237
     65 H          10.9482   51.9050   92.4123 H         1 3JO         0.0237
     66 H          10.6248   52.4262   94.1006 H         1 3JO         0.0237
     67 H          14.1518   53.3902   94.9002 H         1 3JO         0.0237
     68 H          13.4117   51.7853   95.2214 H         1 3JO         0.0237
     69 H          12.4740   53.2854   95.5329 H         1 3JO         0.0237
     70 H          13.3641   52.0025   91.5302 H         1 3JO         0.0237
     71 H          13.8658   51.0298   92.9546 H         1 3JO         0.0237
     72 H          14.6693   52.5992   92.6106 H         1 3JO         0.0237
     73 H          10.4902   54.2306   93.7163 H         1 3JO         0.1884
     74 H           9.1519   56.1476   94.3541 H         1 3JO         0.0823
     75 H          10.4655   55.0830   96.8508 H         1 3JO         0.1884
     76 H           8.1388   52.3862   97.0214 H         1 3JO         0.0467
     77 H           8.8336   53.6293   98.1160 H         1 3JO         0.0467
     78 H           9.9188   52.6107   97.1103 H         1 3JO         0.0467
     79 H          10.1234   58.3339   95.0947 H         1 3JO         0.0474
     80 H          10.6961   57.5358   96.5986 H         1 3JO         0.0474
     81 H           7.6701   57.8853   94.4528 H         1 3JO         0.0557
     82 H           5.3990   58.0672   95.3920 H         1 3JO         0.0599
     83 H           5.0539   57.9281   97.8389 H         1 3JO         0.0559
     84 H           6.9889   57.5570   99.3339 H         1 3JO         0.0599
     85 H           9.2684   57.3617   98.3984 H         1 3JO         0.0557
@<TRIPOS>BOND
     1    1    2 1  
     2    2    3 1  
     3    2    6 2  
     4    3    4 2  
     5    4    5 1  
     6    5    6 1  
     7    6    7 1  
     8    7    8 ar 
     9    7   10 ar 
    10    8    9 ar 
    11    9   12 ar 
    12   10   11 ar 
    13   11   12 ar 
    14   12   13 1  
    15   13   14 1  
    16   14   15 am 
    17   15   16 2  
    18   15   17 1  
    19   17   18 1  
    20   17   22 1  
    21   18   19 1  
    22   19   20 1  
    23   19   21 1  
    24   21   22 1  
    25   22   23 am 
    26   23   24 2  
    27   23   25 1  
    28   25   26 1  
    29   25   30 1  
    30   26   27 1  
    31   26   28 1  
    32   26   29 1  
    33   30   31 am 
    34   31   32 2  
    35   31   33 1  
    36   33   34 1  
    37   33   38 1  
    38   34   35 am 
    39   35   36 2  
    40   35   37 1  
    41   38   39 1  
    42   39   40 ar 
    43   39   44 ar 
    44   40   41 ar 
    45   41   42 ar 
    46   42   43 ar 
    47   43   44 ar 
    48    1   45 1  
    49    1   46 1  
    50    1   47 1  
    51    4   48 1  
    52    8   49 1  
    53    9   50 1  
    54   10   51 1  
    55   11   52 1  
    56   13   53 1  
    57   13   54 1  
    58   14   55 1  
    59   17   56 1  
    60   18   57 1  
    61   18   58 1  
    62   19   59 1  
    63   20   60 1  
    64   21   61 1  
    65   21   62 1  
    66   25   63 1  
    67   27   64 1  
    68   27   65 1  
    69   27   66 1  
    70   28   67 1  
    71   28   68 1  
    72   28   69 1  
    73   29   70 1  
    74   29   71 1  
    75   29   72 1  
    76   30   73 1  
    77   33   74 1  
    78   34   75 1  
    79   37   76 1  
    80   37   77 1  
    81   37   78 1  
    82   38   79 1  
    83   38   80 1  
    84   40   81 1  
    85   41   82 1  
    86   42   83 1  
    87   43   84 1  
    88   44   85 1  
@<TRIPOS>SUBSTRUCTURE
     1 3JO         1

