### 
### Created by X-TOOL on Mon Sep 10 21:13:19 2018
### 

@<TRIPOS>MOLECULE
4w9l_ligand
   84    86     1     0     0
SMALL
GAST_HUCK


@<TRIPOS>ATOM
      1 CAD        11.2140   53.6730   97.5410 C.3       1 3JJ         0.0258
      2 CAA        11.4920   55.1780   97.6940 C.2       1 3JJ         0.1751
      3 OAC        12.1080   55.5820   98.6820 O.2       1 3JJ        -0.3972
      4 N          11.0030   56.0160   96.7530 N.am      1 3JJ        -0.2653
      5 CA         10.2880   55.5780   95.5280 C.3       1 3JJ         0.1357
      6 CB          9.1040   56.4960   95.2190 C.3       1 3JJ         0.0026
      7 CG1         9.5520   57.9050   94.8420 C.3       1 3JJ        -0.0558
      8 CBO         8.2280   56.5820   96.4840 C.3       1 3JJ        -0.0558
      9 CG2         8.2540   55.8680   94.1100 C.3       1 3JJ        -0.0558
     10 C          11.3780   55.4330   94.4300 C.2       1 3JJ         0.2044
     11 O          12.3040   56.2270   94.3120 O.2       1 3JJ        -0.3944
     12 NAH        11.3200   54.2840   93.7760 N.am      1 3JJ        -0.2632
     13 CAI        12.3580   53.8340   92.8690 C.3       1 3JJ         0.1360
     14 CAJ        12.6270   52.3500   93.2500 C.3       1 3JJ         0.0026
     15 CAL        13.6410   51.6930   92.2890 C.3       1 3JJ        -0.0558
     16 CAM        11.3180   51.5000   93.2530 C.3       1 3JJ        -0.0558
     17 CAK        13.2270   52.3100   94.6810 C.3       1 3JJ        -0.0558
     18 CAO        11.9390   54.0540   91.4160 C.2       1 3JJ         0.2070
     19 OAP        10.7880   53.8410   91.0870 O.2       1 3JJ        -0.3942
     20 NAQ        12.8900   54.4530   90.5350 N.am      1 3JJ        -0.2473
     21 CAU        14.3070   54.8130   90.7490 C.3       1 3JJ         0.0629
     22 CAT        14.6940   55.6490   89.5220 C.3       1 3JJ         0.0799
     23 OAX        14.3860   57.0340   89.7410 O.3       1 3JJ        -0.3896
     24 CAS        13.8460   55.1900   88.4250 C.3       1 3JJ         0.0158
     25 CAR        12.5520   54.6760   89.0940 C.3       1 3JJ         0.1362
     26 CAV        12.1140   53.5000   88.4590 C.2       1 3JJ         0.2037
     27 OAW        12.5850   52.4210   88.7890 O.2       1 3JJ        -0.3944
     28 NAY        11.2020   53.6200   87.4540 N.am      1 3JJ        -0.2741
     29 CAZ        10.7550   52.4420   86.6900 C.3       1 3JJ         0.0631
     30 CBA        11.5730   52.2890   85.5260 C.ar      1 3JJ        -0.0241
     31 CBF        12.4880   53.2560   85.0660 C.ar      1 3JJ        -0.0617
     32 CBE        13.2820   53.0190   83.9200 C.ar      1 3JJ        -0.0654
     33 CBB        11.4710   51.1010   84.7910 C.ar      1 3JJ        -0.0617
     34 CBC        12.2530   50.8710   83.6440 C.ar      1 3JJ        -0.0654
     35 CBD        13.1740   51.8380   83.1850 C.ar      1 3JJ        -0.0244
     36 CBG        13.9410   51.6430   82.0860 C.2       1 3JJ         0.0479
     37 SBK        15.5960   52.1570   81.8870 S.3       1 3JJ        -0.0127
     38 CBJ        15.7700   51.5410   80.3800 C.2       1 3JJ         0.0738
     39 NBI        14.6210   50.9660   80.0230 N.2       1 3JJ        -0.3006
     40 CBH        13.6210   51.0210   80.9420 C.2       1 3JJ         0.0119
     41 CBL        12.2530   50.3810   80.6170 C.3       1 3JJ        -0.0271
     42 H          10.6584   53.4958   96.6083 H         1 3JJ         0.0467
     43 H          10.6173   53.3216   98.3957 H         1 3JJ         0.0467
     44 H          12.1674   53.1253   97.5095 H         1 3JJ         0.0467
     45 H          11.1316   56.9980   96.8914 H         1 3JJ         0.1883
     46 H           9.8663   54.5779   95.7066 H         1 3JJ         0.0805
     47 H           8.6692   58.5259   94.6295 H         1 3JJ         0.0237
     48 H          10.1919   57.8595   93.9485 H         1 3JJ         0.0237
     49 H          10.1177   58.3454   95.6762 H         1 3JJ         0.0237
     50 H           7.8963   55.5728   96.7695 H         1 3JJ         0.0237
     51 H           7.3500   57.2125   96.2799 H         1 3JJ         0.0237
     52 H           8.8124   57.0219   97.3055 H         1 3JJ         0.0237
     53 H           8.8510   55.7915   93.1893 H         1 3JJ         0.0237
     54 H           7.3714   56.4975   93.9235 H         1 3JJ         0.0237
     55 H           7.9293   54.8640   94.4208 H         1 3JJ         0.0237
     56 H          10.5217   53.6977   93.9140 H         1 3JJ         0.1884
     57 H          13.2757   54.4148   93.0437 H         1 3JJ         0.0805
     58 H          13.8058   50.6475   92.5886 H         1 3JJ         0.0237
     59 H          14.5939   52.2409   92.3308 H         1 3JJ         0.0237
     60 H          13.2458   51.7224   91.2629 H         1 3JJ         0.0237
     61 H          10.5855   51.9572   93.9345 H         1 3JJ         0.0237
     62 H          11.5451   50.4781   93.5909 H         1 3JJ         0.0237
     63 H          10.9007   51.4657   92.2358 H         1 3JJ         0.0237
     64 H          14.1531   52.9030   94.7069 H         1 3JJ         0.0237
     65 H          13.4506   51.2686   94.9559 H         1 3JJ         0.0237
     66 H          12.5026   52.7301   95.3942 H         1 3JJ         0.0237
     67 H          14.9302   53.9089   90.8129 H         1 3JJ         0.0550
     68 H          14.4211   55.4030   91.6704 H         1 3JJ         0.0550
     69 H          15.7607   55.5224   89.2853 H         1 3JJ         0.0616
     70 H          14.6313   57.5370   88.9733 H         1 3JJ         0.2099
     71 H          14.3403   54.3793   87.8697 H         1 3JJ         0.0338
     72 H          13.6210   56.0201   87.7392 H         1 3JJ         0.0338
     73 H          11.7606   55.4359   89.0153 H         1 3JJ         0.0803
     74 H          10.8303   54.5213   87.2314 H         1 3JJ         0.1878
     75 H           9.7067   52.5785   86.3859 H         1 3JJ         0.0679
     76 H          10.8404   51.5434   87.3186 H         1 3JJ         0.0679
     77 H          12.5850   54.1954   85.5981 H         1 3JJ         0.0550
     78 H          13.9927   53.7742   83.6045 H         1 3JJ         0.0568
     79 H          10.7713   50.3388   85.1143 H         1 3JJ         0.0550
     80 H          12.1468   49.9369   83.1043 H         1 3JJ         0.0568
     81 H          16.6719   51.5922   79.7718 H         1 3JJ         0.1176
     82 H          12.2827   49.9453   79.6074 H         1 3JJ         0.0382
     83 H          11.4683   51.1506   80.6613 H         1 3JJ         0.0382
     84 H          12.0340   49.5914   81.3508 H         1 3JJ         0.0382
@<TRIPOS>BOND
     1    1    2 1  
     2    2    3 2  
     3    2    4 am 
     4    4    5 1  
     5    5    6 1  
     6    5   10 1  
     7    6    7 1  
     8    6    8 1  
     9    6    9 1  
    10   10   11 2  
    11   10   12 am 
    12   12   13 1  
    13   13   14 1  
    14   13   18 1  
    15   14   15 1  
    16   14   16 1  
    17   14   17 1  
    18   18   19 2  
    19   18   20 am 
    20   20   21 1  
    21   20   25 1  
    22   21   22 1  
    23   22   23 1  
    24   22   24 1  
    25   24   25 1  
    26   25   26 1  
    27   26   27 2  
    28   26   28 am 
    29   28   29 1  
    30   29   30 1  
    31   30   31 ar 
    32   30   33 ar 
    33   31   32 ar 
    34   32   35 ar 
    35   33   34 ar 
    36   34   35 ar 
    37   35   36 1  
    38   36   37 1  
    39   36   40 2  
    40   37   38 1  
    41   38   39 2  
    42   39   40 1  
    43   40   41 1  
    44    1   42 1  
    45    1   43 1  
    46    1   44 1  
    47    4   45 1  
    48    5   46 1  
    49    7   47 1  
    50    7   48 1  
    51    7   49 1  
    52    8   50 1  
    53    8   51 1  
    54    8   52 1  
    55    9   53 1  
    56    9   54 1  
    57    9   55 1  
    58   12   56 1  
    59   13   57 1  
    60   15   58 1  
    61   15   59 1  
    62   15   60 1  
    63   16   61 1  
    64   16   62 1  
    65   16   63 1  
    66   17   64 1  
    67   17   65 1  
    68   17   66 1  
    69   21   67 1  
    70   21   68 1  
    71   22   69 1  
    72   23   70 1  
    73   24   71 1  
    74   24   72 1  
    75   25   73 1  
    76   28   74 1  
    77   29   75 1  
    78   29   76 1  
    79   31   77 1  
    80   32   78 1  
    81   33   79 1  
    82   34   80 1  
    83   38   81 1  
    84   41   82 1  
    85   41   83 1  
    86   41   84 1  
@<TRIPOS>SUBSTRUCTURE
     1 3JJ         1

