### 
### Created by X-TOOL on Mon Sep 10 21:13:19 2018
### 

@<TRIPOS>MOLECULE
4w9n_ligand
   24    25     1     0     0
SMALL
GAST_HUCK


@<TRIPOS>ATOM
      1 C1        -34.8170    4.5180   45.0830 C.ar      1 TCL        -0.0268
      2 C2        -34.6480    4.3130   43.7290 C.ar      1 TCL         0.0206
      3 C6        -34.4040    3.5530   45.9880 C.ar      1 TCL         0.1219
      4 C5        -33.8090    2.3790   45.5320 C.ar      1 TCL         0.1456
      5 C4        -33.6490    2.1730   44.1690 C.ar      1 TCL        -0.0358
      6 C3        -34.0640    3.1430   43.2710 C.ar      1 TCL        -0.0668
      7 C11       -29.6580   -0.0820   45.6230 C.ar      1 TCL         0.0295
      8 C10       -30.7380   -0.9260   45.7780 C.ar      1 TCL        -0.0419
      9 C9        -31.9870   -0.4080   46.0510 C.ar      1 TCL         0.0726
     10 C8        -32.1720    0.9640   46.1620 C.ar      1 TCL         0.1281
     11 C12       -29.8280    1.2890   45.7420 C.ar      1 TCL        -0.0558
     12 C13       -31.0810    1.8130   46.0160 C.ar      1 TCL        -0.0276
     13 O7        -33.4180    1.4400   46.4440 O.3       1 TCL        -0.2599
     14 CL14      -35.1710    5.5340   42.6100 Cl        1 TCL        -0.0832
     15 CL15      -28.0970   -0.7590   45.2820 Cl        1 TCL        -0.0806
     16 CL16      -33.3300   -1.4880   46.2420 Cl        1 TCL        -0.0778
     17 O17       -34.5760    3.7660   47.3210 O.3       1 TCL        -0.3359
     18 H         -35.2732    5.4346   45.4392 H         1 TCL         0.0516
     19 H         -33.2002    1.2549   43.8076 H         1 TCL         0.0521
     20 H         -33.9314    2.9861   42.2066 H         1 TCL         0.0504
     21 H         -30.6050   -1.9978   45.6851 H         1 TCL         0.0602
     22 H         -28.9791    1.9520   45.6204 H         1 TCL         0.0598
     23 H         -31.2105    2.8845   46.1165 H         1 TCL         0.0551
     24 H         -34.9933    4.6090   47.4546 H         1 TCL         0.2447
@<TRIPOS>BOND
     1    1    2 ar 
     2    3    1 ar 
     3    6    2 ar 
     4    2   14 1  
     5    4    3 ar 
     6    3   17 1  
     7    4    5 ar 
     8   13    4 1  
     9    5    6 ar 
    10    8    7 ar 
    11    7   11 ar 
    12    7   15 1  
    13    9    8 ar 
    14   10    9 ar 
    15    9   16 1  
    16   10   12 ar 
    17   10   13 1  
    18   11   12 ar 
    19    1   18 1  
    20    5   19 1  
    21    6   20 1  
    22    8   21 1  
    23   11   22 1  
    24   12   23 1  
    25   17   24 1  
@<TRIPOS>SUBSTRUCTURE
     1 TCL         1

