### 
### Created by X-TOOL on Mon Sep 10 21:13:16 2018
### 

@<TRIPOS>MOLECULE
4w9o_ligand
   71    74     1     0     0
SMALL
GAST_HUCK


@<TRIPOS>ATOM
      1 CAB         7.4850    1.0980   11.3810 C.3       1 3JQ         0.0567
      2 OAY         8.3020   -0.0750   11.4910 O.3       1 3JQ        -0.3275
      3 CBF         9.4180    0.0280   12.2740 C.ar      1 3JQ         0.1114
      4 CAM         9.7810    1.1860   12.9100 C.ar      1 3JQ        -0.0129
      5 CBE        10.1540   -1.1350   12.4470 C.ar      1 3JQ         0.1079
      6 OAX         9.6970   -2.2240   11.7770 O.3       1 3JQ        -0.3322
      7 CAA        10.3740   -3.4640   11.9140 C.3       1 3JQ         0.0545
      8 CAK        11.3110   -1.1180   13.2440 C.ar      1 3JQ        -0.0498
      9 CAJ        11.6950    0.0530   13.8840 C.ar      1 3JQ        -0.0530
     10 CBD        10.9170    1.2180   13.7220 C.ar      1 3JQ         0.0712
     11 OAZ        11.1960    2.4130   14.3110 O.3       1 3JQ        -0.3259
     12 CAR        12.2360    2.5010   15.3030 C.3       1 3JQ         0.0881
     13 CAV        13.6230    2.6190   14.6750 C.3       1 3JQ         0.0613
     14 NBL        13.7970    3.8900   13.9490 N.am      1 3JQ        -0.2687
     15 C          13.8130    3.9080   12.5900 C.2       1 3JQ         0.2006
     16 O          13.5430    2.8570   11.9860 O.2       1 3JQ        -0.3948
     17 CAU        14.0660    5.0740   14.7960 C.3       1 3JQ         0.0410
     18 CBJ        15.5000    5.6040   14.5510 C.3       1 3JQ         0.0276
     19 CBH        16.0650    6.4320   15.7360 C.3       1 3JQ         0.0846
     20 OAG        15.1250    7.4650   15.9920 O.3       1 3JQ        -0.3891
     21 CAP        16.2120    5.5540   16.9500 C.3       1 3JQ         0.0705
     22 OAF        16.9670    6.2880   17.8930 O.3       1 3JQ        -0.3925
     23 CBK        15.5490    6.4470   13.2600 C.3       1 3JQ         0.0508
     24 CAT        16.7240    6.0930   12.3480 C.3       1 3JQ        -0.0322
     25 CAQ        16.5640    4.8080   11.6460 C.3       1 3JQ        -0.0475
     26 CB         15.2580    4.8140   10.8580 C.3       1 3JQ        -0.0156
     27 CA         14.0320    5.0840   11.7750 C.3       1 3JQ         0.1298
     28 N          14.2390    6.3290   12.5490 N.am      1 3JQ        -0.2088
     29 SBN        13.6180    7.7310   11.9500 S.o2      1 3JQ         0.0731
     30 OAD        12.6300    7.3780   10.8820 O.2       1 3JQ        -0.1500
     31 OAE        14.6760    8.7170   11.6390 O.2       1 3JQ        -0.1500
     32 CBG        12.7260    8.3610   13.3030 C.ar      1 3JQ         0.1095
     33 CAN        11.4930    7.7960   13.6100 C.ar      1 3JQ        -0.0210
     34 CBB        10.7710    8.2430   14.7110 C.ar      1 3JQ         0.0428
     35 CLB         9.2640    7.5450   15.0800 Cl        1 3JQ        -0.0706
     36 CAL        11.2530    9.2680   15.5000 C.ar      1 3JQ        -0.0338
     37 CBC        12.4850    9.8310   15.1970 C.ar      1 3JQ         0.0428
     38 CLA        13.0930   11.0780   16.1730 Cl        1 3JQ        -0.0706
     39 CAO        13.2220    9.3720   14.1090 C.ar      1 3JQ        -0.0210
     40 H           6.6251    0.8860   10.7285 H         1 3JQ         0.0573
     41 H           8.0779    1.9188   10.9512 H         1 3JQ         0.0573
     42 H           7.1251    1.3891   12.3788 H         1 3JQ         0.0573
     43 H           9.1837    2.0816   12.7824 H         1 3JQ         0.0436
     44 H           9.8679   -4.2273   11.3047 H         1 3JQ         0.0568
     45 H          10.3646   -3.7722   12.9699 H         1 3JQ         0.0568
     46 H          11.4141   -3.3535   11.5735 H         1 3JQ         0.0568
     47 H          11.9035   -2.0184   13.3592 H         1 3JQ         0.0483
     48 H          12.5849    0.0715   14.5027 H         1 3JQ         0.0422
     49 H          12.2062    1.5969   15.9288 H         1 3JQ         0.0630
     50 H          12.0542    3.3867   15.9294 H         1 3JQ         0.0630
     51 H          13.7655    1.7860   13.9708 H         1 3JQ         0.0549
     52 H          14.3792    2.5593   15.4716 H         1 3JQ         0.0549
     53 H          13.9602    4.7932   15.8543 H         1 3JQ         0.0526
     54 H          13.3416    5.8651   14.5523 H         1 3JQ         0.0526
     55 H          16.1546    4.7305   14.4150 H         1 3JQ         0.0365
     56 H          17.0420    6.8622   15.4705 H         1 3JQ         0.0620
     57 H          15.4326    7.9996   16.7146 H         1 3JQ         0.2099
     58 H          16.7373    4.6248   16.6845 H         1 3JQ         0.0583
     59 H          15.2224    5.3104   17.3638 H         1 3JQ         0.0583
     60 H          16.5072    7.0906   18.1094 H         1 3JQ         0.2095
     61 H          15.6778    7.4985   13.5562 H         1 3JQ         0.0520
     62 H          17.6360    6.0424   12.9609 H         1 3JQ         0.0284
     63 H          16.8314    6.8883   11.5957 H         1 3JQ         0.0284
     64 H          16.5444    3.9895   12.3807 H         1 3JQ         0.0268
     65 H          17.4074    4.6607   10.9554 H         1 3JQ         0.0268
     66 H          15.1306    3.8353   10.3723 H         1 3JQ         0.0308
     67 H          15.3087    5.6004   10.0906 H         1 3JQ         0.0308
     68 H          13.1429    5.2296   11.1439 H         1 3JQ         0.0756
     69 H          11.0929    7.0034   12.9881 H         1 3JQ         0.0644
     70 H          10.6772    9.6283   16.3448 H         1 3JQ         0.0629
     71 H          14.1900    9.8086   13.8913 H         1 3JQ         0.0644
@<TRIPOS>BOND
     1    1    2 1  
     2    2    3 1  
     3    3    4 ar 
     4    3    5 ar 
     5    4   10 ar 
     6    5    6 1  
     7    5    8 ar 
     8    6    7 1  
     9    8    9 ar 
    10    9   10 ar 
    11   10   11 1  
    12   11   12 1  
    13   12   13 1  
    14   13   14 1  
    15   14   15 am 
    16   14   17 1  
    17   15   16 2  
    18   15   27 1  
    19   17   18 1  
    20   18   19 1  
    21   18   23 1  
    22   19   20 1  
    23   19   21 1  
    24   21   22 1  
    25   23   24 1  
    26   23   28 1  
    27   24   25 1  
    28   25   26 1  
    29   26   27 1  
    30   27   28 1  
    31   28   29 am 
    32   29   30 2  
    33   29   31 2  
    34   29   32 1  
    35   32   33 ar 
    36   32   39 ar 
    37   33   34 ar 
    38   34   35 1  
    39   34   36 ar 
    40   36   37 ar 
    41   37   38 1  
    42   37   39 ar 
    43    1   40 1  
    44    1   41 1  
    45    1   42 1  
    46    4   43 1  
    47    7   44 1  
    48    7   45 1  
    49    7   46 1  
    50    8   47 1  
    51    9   48 1  
    52   12   49 1  
    53   12   50 1  
    54   13   51 1  
    55   13   52 1  
    56   17   53 1  
    57   17   54 1  
    58   18   55 1  
    59   19   56 1  
    60   20   57 1  
    61   21   58 1  
    62   21   59 1  
    63   22   60 1  
    64   23   61 1  
    65   24   62 1  
    66   24   63 1  
    67   25   64 1  
    68   25   65 1  
    69   26   66 1  
    70   26   67 1  
    71   27   68 1  
    72   33   69 1  
    73   36   70 1  
    74   39   71 1  
@<TRIPOS>SUBSTRUCTURE
     1 3JQ         1

