### 
### Created by X-TOOL on Mon Sep 10 21:13:17 2018
### 

@<TRIPOS>MOLECULE
4w9p_ligand
   71    74     1     0     0
SMALL
GAST_HUCK


@<TRIPOS>ATOM
      1 CAB        28.9730    1.5170  -11.4240 C.3       1 3JR         0.0567
      2 OAY        28.1660    0.3270  -11.5600 O.3       1 3JR        -0.3275
      3 CBF        27.0370    0.4230  -12.3490 C.ar      1 3JR         0.1114
      4 CAM        26.6070    1.5680  -12.9800 C.ar      1 3JR        -0.0129
      5 CBE        26.3200   -0.7380  -12.4540 C.ar      1 3JR         0.1079
      6 OAX        26.7830   -1.8390  -11.7850 O.3       1 3JR        -0.3322
      7 CAA        26.1020   -3.1020  -11.9000 C.3       1 3JR         0.0545
      8 CAK        25.2000   -0.7870  -13.2610 C.ar      1 3JR        -0.0498
      9 CAJ        24.7870    0.3660  -13.9070 C.ar      1 3JR        -0.0530
     10 CBD        25.4980    1.5450  -13.7950 C.ar      1 3JR         0.0712
     11 OAZ        25.2280    2.7390  -14.4260 O.3       1 3JR        -0.3259
     12 CAR        24.1520    2.8930  -15.3910 C.3       1 3JR         0.0881
     13 CAV        22.7940    2.9500  -14.7000 C.3       1 3JR         0.0613
     14 NBL        22.5770    4.2290  -14.0000 N.am      1 3JR        -0.2687
     15 C          22.5700    4.2340  -12.6240 C.2       1 3JR         0.2006
     16 O          22.8470    3.1780  -12.0160 O.2       1 3JR        -0.3948
     17 CAU        22.2800    5.4210  -14.8480 C.3       1 3JR         0.0410
     18 CBJ        20.8630    5.9850  -14.5960 C.3       1 3JR         0.0276
     19 CBH        20.3920    6.8870  -15.7860 C.3       1 3JR         0.0846
     20 OAG        19.9970    6.0430  -16.8500 O.3       1 3JR        -0.3891
     21 CAP        21.4470    7.8780  -16.2080 C.3       1 3JR         0.0705
     22 OAF        20.7560    9.0870  -16.7680 O.3       1 3JR        -0.3925
     23 CBK        20.8810    6.8170  -13.3120 C.3       1 3JR         0.0508
     24 CAT        19.6780    6.4660  -12.3890 C.3       1 3JR        -0.0322
     25 CAQ        19.8440    5.1170  -11.7060 C.3       1 3JR        -0.0475
     26 CB         21.1720    5.1270  -10.8880 C.3       1 3JR        -0.0156
     27 CA         22.3590    5.3980  -11.8370 C.3       1 3JR         0.1298
     28 N          22.1960    6.6730  -12.5980 N.am      1 3JR        -0.2088
     29 SBN        22.8050    8.0470  -12.0050 S.o2      1 3JR         0.0731
     30 OAD        23.7820    7.6330  -10.9170 O.2       1 3JR        -0.1500
     31 OAE        21.7740    9.0700  -11.7060 O.2       1 3JR        -0.1500
     32 CBG        23.7750    8.6690  -13.3460 C.ar      1 3JR         0.1095
     33 CAN        24.9160    8.0250  -13.7410 C.ar      1 3JR        -0.0210
     34 CBB        25.6390    8.4830  -14.7940 C.ar      1 3JR         0.0428
     35 CLA        27.0290    7.6270  -15.2550 Cl        1 3JR        -0.0706
     36 CAL        25.3090    9.6220  -15.4650 C.ar      1 3JR        -0.0338
     37 CBC        24.1650   10.2740  -15.0640 C.ar      1 3JR         0.0428
     38 CLB        23.6860   11.7040  -15.8750 Cl        1 3JR        -0.0706
     39 CAO        23.3960    9.8200  -14.0090 C.ar      1 3JR        -0.0210
     40 H          29.8345    1.3035  -10.7742 H         1 3JR         0.0573
     41 H          28.3685    2.3211  -10.9790 H         1 3JR         0.0573
     42 H          29.3307    1.8328  -12.4151 H         1 3JR         0.0573
     43 H          27.1467    2.4966  -12.8338 H         1 3JR         0.0436
     44 H          26.6237   -3.8564  -11.2928 H         1 3JR         0.0568
     45 H          26.0946   -3.4201  -12.9530 H         1 3JR         0.0568
     46 H          25.0674   -2.9947  -11.5421 H         1 3JR         0.0568
     47 H          24.6526   -1.7142  -13.3867 H         1 3JR         0.0483
     48 H          23.8881    0.3430  -14.5125 H         1 3JR         0.0422
     49 H          24.1663    2.0385  -16.0835 H         1 3JR         0.0630
     50 H          24.3067    3.8247  -15.9550 H         1 3JR         0.0630
     51 H          22.7348    2.1313  -13.9677 H         1 3JR         0.0549
     52 H          22.0061    2.8227  -15.4569 H         1 3JR         0.0549
     53 H          22.3618    5.1312  -15.9060 H         1 3JR         0.0526
     54 H          23.0175    6.2060  -14.6247 H         1 3JR         0.0526
     55 H          20.1588    5.1479  -14.4804 H         1 3JR         0.0365
     56 H          19.5134    7.4608  -15.4562 H         1 3JR         0.0620
     57 H          20.7340    5.5067  -17.1177 H         1 3JR         0.2099
     58 H          22.0937    7.4292  -16.9764 H         1 3JR         0.0583
     59 H          22.0563    8.1664  -15.3387 H         1 3JR         0.0583
     60 H          20.1970    9.4681  -16.1012 H         1 3JR         0.2095
     61 H          20.7760    7.8734  -13.6000 H         1 3JR         0.0520
     62 H          18.7614    6.4435  -12.9968 H         1 3JR         0.0284
     63 H          19.5869    7.2439  -11.6166 H         1 3JR         0.0284
     64 H          19.8831    4.3211  -12.4643 H         1 3JR         0.0268
     65 H          18.9949    4.9380  -11.0300 H         1 3JR         0.0268
     66 H          21.3089    4.1512  -10.3991 H         1 3JR         0.0308
     67 H          21.1260    5.9168  -10.1237 H         1 3JR         0.0308
     68 H          23.2567    5.5286  -11.2149 H         1 3JR         0.0756
     69 H          25.2454    7.1406  -13.2077 H         1 3JR         0.0644
     70 H          25.9198    9.9977  -16.2779 H         1 3JR         0.0629
     71 H          22.5066   10.3604  -13.7057 H         1 3JR         0.0644
@<TRIPOS>BOND
     1    1    2 1  
     2    2    3 1  
     3    3    4 ar 
     4    3    5 ar 
     5    4   10 ar 
     6    5    6 1  
     7    5    8 ar 
     8    6    7 1  
     9    8    9 ar 
    10    9   10 ar 
    11   10   11 1  
    12   11   12 1  
    13   12   13 1  
    14   13   14 1  
    15   14   15 am 
    16   14   17 1  
    17   15   16 2  
    18   15   27 1  
    19   17   18 1  
    20   18   19 1  
    21   18   23 1  
    22   19   20 1  
    23   19   21 1  
    24   21   22 1  
    25   23   24 1  
    26   23   28 1  
    27   24   25 1  
    28   25   26 1  
    29   26   27 1  
    30   27   28 1  
    31   28   29 am 
    32   29   30 2  
    33   29   31 2  
    34   29   32 1  
    35   32   33 ar 
    36   32   39 ar 
    37   33   34 ar 
    38   34   35 1  
    39   34   36 ar 
    40   36   37 ar 
    41   37   38 1  
    42   37   39 ar 
    43    1   40 1  
    44    1   41 1  
    45    1   42 1  
    46    4   43 1  
    47    7   44 1  
    48    7   45 1  
    49    7   46 1  
    50    8   47 1  
    51    9   48 1  
    52   12   49 1  
    53   12   50 1  
    54   13   51 1  
    55   13   52 1  
    56   17   53 1  
    57   17   54 1  
    58   18   55 1  
    59   19   56 1  
    60   20   57 1  
    61   21   58 1  
    62   21   59 1  
    63   22   60 1  
    64   23   61 1  
    65   24   62 1  
    66   24   63 1  
    67   25   64 1  
    68   25   65 1  
    69   26   66 1  
    70   26   67 1  
    71   27   68 1  
    72   33   69 1  
    73   36   70 1  
    74   39   71 1  
@<TRIPOS>SUBSTRUCTURE
     1 3JR         1

