### 
### Created by X-TOOL on Mon Sep 10 21:13:16 2018
### 

@<TRIPOS>MOLECULE
4w9q_ligand
   67    70     1     0     0
SMALL
GAST_HUCK


@<TRIPOS>ATOM
      1 CAC        15.9990   -9.8230  -20.5860 C.3       1 3JP         0.0567
      2 OAW        16.7890  -10.7150  -19.7870 O.3       1 3JP        -0.3275
      3 CBE        16.3760  -12.0030  -19.6820 C.ar      1 3JP         0.1114
      4 CAO        15.1460  -12.4310  -20.1650 C.ar      1 3JP        -0.0129
      5 CBD        17.2320  -12.8950  -19.0570 C.ar      1 3JP         0.1079
      6 OAV        18.4230  -12.3890  -18.6070 O.3       1 3JP        -0.3322
      7 CAB        19.2740  -13.2820  -17.8800 C.3       1 3JP         0.0545
      8 CAK        16.8340  -14.2260  -18.9390 C.ar      1 3JP        -0.0498
      9 CAJ        15.6000  -14.6600  -19.4190 C.ar      1 3JP        -0.0530
     10 CBB        14.7490  -13.7550  -20.0510 C.ar      1 3JP         0.0712
     11 OAX        13.5160  -14.0680  -20.5650 O.3       1 3JP        -0.3259
     12 CAQ        13.1540  -15.4440  -20.6740 C.3       1 3JP         0.0881
     13 CAT        12.6440  -15.9700  -19.3410 C.3       1 3JP         0.0615
     14 NBI        11.3480  -15.3840  -18.9630 N.am      1 3JP        -0.2665
     15 C          11.2850  -14.5170  -17.9440 C.2       1 3JP         0.2008
     16 O          12.3420  -14.2320  -17.3940 O.2       1 3JP        -0.3948
     17 CAU        10.1600  -15.8190  -19.7320 C.3       1 3JP         0.0487
     18 CBF         9.1040  -16.5370  -18.8880 C.3       1 3JP         0.0273
     19 CAI         8.1080  -17.2490  -19.8110 C.2       1 3JP        -0.0825
     20 CAA         8.4740  -18.3540  -20.5660 C.2       1 3JP        -0.1171
     21 CBH         8.3130  -15.5570  -17.9940 C.3       1 3JP         0.0585
     22 CAS         8.2860  -16.0300  -16.5280 C.3       1 3JP        -0.0302
     23 CAP         9.6050  -15.7480  -15.8360 C.3       1 3JP        -0.0473
     24 CB          9.9220  -14.2670  -15.9170 C.3       1 3JP        -0.0156
     25 CA         10.0590  -13.8450  -17.3800 C.3       1 3JP         0.1300
     26 N           8.8510  -14.1710  -18.2100 N.am      1 3JP        -0.2067
     27 SBK         7.7440  -13.0210  -18.2020 S.o2      1 3JP         0.0732
     28 OAE         8.2890  -11.6940  -18.1560 O.2       1 3JP        -0.1499
     29 OAF         6.4210  -13.3620  -17.6970 O.2       1 3JP        -0.1499
     30 CBC         7.3290  -13.0580  -19.9110 C.ar      1 3JP         0.1095
     31 CAM         8.2540  -12.6040  -20.8430 C.ar      1 3JP        -0.0210
     32 CAZ         7.9530  -12.6160  -22.1970 C.ar      1 3JP         0.0428
     33 CLA         9.1040  -12.0430  -23.3360 Cl        1 3JP        -0.0706
     34 CAL         6.7250  -13.0920  -22.6350 C.ar      1 3JP        -0.0338
     35 CBA         5.7920  -13.5510  -21.7120 C.ar      1 3JP         0.0428
     36 CLB         4.2730  -14.1470  -22.2820 Cl        1 3JP        -0.0706
     37 CAN         6.0970  -13.5240  -20.3490 C.ar      1 3JP        -0.0210
     38 H          16.4545   -8.8218  -20.5769 H         1 3JP         0.0573
     39 H          14.9806   -9.7663  -20.1741 H         1 3JP         0.0573
     40 H          15.9562  -10.1969  -21.6196 H         1 3JP         0.0573
     41 H          14.4837  -11.7165  -20.6402 H         1 3JP         0.0436
     42 H          20.1900  -12.7522  -17.5794 H         1 3JP         0.0568
     43 H          19.5383  -14.1379  -18.5184 H         1 3JP         0.0568
     44 H          18.7476  -13.6418  -16.9837 H         1 3JP         0.0568
     45 H          17.4987  -14.9383  -18.4637 H         1 3JP         0.0483
     46 H          15.3034  -15.6960  -19.3015 H         1 3JP         0.0422
     47 H          14.0356  -16.0268  -20.9793 H         1 3JP         0.0630
     48 H          12.3634  -15.5511  -21.4313 H         1 3JP         0.0630
     49 H          13.3812  -15.7287  -18.5611 H         1 3JP         0.0549
     50 H          12.5301  -17.0617  -19.4127 H         1 3JP         0.0549
     51 H          10.4929  -16.5036  -20.5260 H         1 3JP         0.0552
     52 H           9.6960  -14.9304  -20.1848 H         1 3JP         0.0552
     53 H           9.6068  -17.2780  -18.2492 H         1 3JP         0.0516
     54 H           7.0863  -16.8776  -19.8757 H         1 3JP         0.0676
     55 H           7.7434  -18.8380  -21.2124 H         1 3JP         0.0290
     56 H           9.4919  -18.7373  -20.5122 H         1 3JP         0.0290
     57 H           7.2689  -15.5545  -18.3402 H         1 3JP         0.0545
     58 H           8.0926  -17.1126  -16.5039 H         1 3JP         0.0286
     59 H           7.4814  -15.5018  -15.9954 H         1 3JP         0.0286
     60 H          10.4052  -16.3200  -16.3283 H         1 3JP         0.0268
     61 H           9.5352  -16.0491  -14.7803 H         1 3JP         0.0268
     62 H          10.8661  -14.0664  -15.3894 H         1 3JP         0.0308
     63 H           9.1098  -13.6936  -15.4463 H         1 3JP         0.0308
     64 H          10.2043  -12.7551  -17.4125 H         1 3JP         0.0756
     65 H           9.2182  -12.2376  -20.5095 H         1 3JP         0.0644
     66 H           6.4939  -13.1059  -23.6940 H         1 3JP         0.0629
     67 H           5.3656  -13.8698  -19.6275 H         1 3JP         0.0644
@<TRIPOS>BOND
     1    1    2 1  
     2    2    3 1  
     3    3    4 ar 
     4    3    5 ar 
     5    4   10 ar 
     6    5    6 1  
     7    5    8 ar 
     8    6    7 1  
     9    8    9 ar 
    10    9   10 ar 
    11   10   11 1  
    12   11   12 1  
    13   12   13 1  
    14   13   14 1  
    15   14   15 am 
    16   14   17 1  
    17   15   16 2  
    18   15   25 1  
    19   17   18 1  
    20   18   19 1  
    21   18   21 1  
    22   19   20 2  
    23   21   22 1  
    24   21   26 1  
    25   22   23 1  
    26   23   24 1  
    27   24   25 1  
    28   25   26 1  
    29   26   27 am 
    30   27   28 2  
    31   27   29 2  
    32   27   30 1  
    33   30   31 ar 
    34   30   37 ar 
    35   31   32 ar 
    36   32   33 1  
    37   32   34 ar 
    38   34   35 ar 
    39   35   36 1  
    40   35   37 ar 
    41    1   38 1  
    42    1   39 1  
    43    1   40 1  
    44    4   41 1  
    45    7   42 1  
    46    7   43 1  
    47    7   44 1  
    48    8   45 1  
    49    9   46 1  
    50   12   47 1  
    51   12   48 1  
    52   13   49 1  
    53   13   50 1  
    54   17   51 1  
    55   17   52 1  
    56   18   53 1  
    57   19   54 1  
    58   20   55 1  
    59   20   56 1  
    60   21   57 1  
    61   22   58 1  
    62   22   59 1  
    63   23   60 1  
    64   23   61 1  
    65   24   62 1  
    66   24   63 1  
    67   25   64 1  
    68   31   65 1  
    69   34   66 1  
    70   37   67 1  
@<TRIPOS>SUBSTRUCTURE
     1 3JP         1

