### 
### Created by X-TOOL on Mon Sep 10 21:13:17 2018
### 

@<TRIPOS>MOLECULE
4w9s_ligand
   27    29     1     0     0
SMALL
GAST_HUCK


@<TRIPOS>ATOM
      1 O01         9.0120   19.7740   -8.5830 O.3       1 3K1        -0.3434
      2 C02         9.6970   20.5830   -9.4680 C.2       1 3K1         0.1518
      3 C03        10.0240   20.1430  -10.7210 C.2       1 3K1         0.0763
      4 N04        10.7070   20.9520  -11.5710 N.pl3     1 3K1        -0.2443
      5 C05        11.0740   22.1630  -11.1140 C.2       1 3K1         0.1593
      6 C06        11.7870   23.1480  -11.9880 C.ar      1 3K1         0.0499
      7 C07        12.4580   24.2190  -11.4050 C.ar      1 3K1        -0.0352
      8 C08        13.0610   25.1660  -12.2320 C.ar      1 3K1        -0.0366
      9 C09        12.9420   25.0430  -13.6110 C.ar      1 3K1         0.0463
     10 C10        12.2550   23.9910  -14.1850 C.ar      1 3K1        -0.0366
     11 C11        11.6490   23.0430  -13.3730 C.ar      1 3K1        -0.0352
     12 C12        13.5820   26.0810  -14.4900 C.2       1 3K1         0.1904
     13 N13        13.2410   26.4140  -15.7440 N.2       1 3K1        -0.2038
     14 N14        14.0750   27.3980  -16.1170 N.2       1 3K1        -0.1360
     15 N15        14.8940   27.6880  -15.1020 N.2       1 3K1        -0.0619
     16 N16        14.5610   26.8710  -14.0910 N.pl3     1 3K1        -0.1493
     17 N17        10.7530   22.6340   -9.9040 N.2       1 3K1        -0.2582
     18 C18        10.1040   21.8570   -9.0480 C.2       1 3K1         0.1722
     19 O19         9.8770   22.2810   -7.9500 O.2       1 3K1        -0.4193
     20 H           8.1727   19.5352   -8.9585 H         1 3K1         0.2391
     21 H           9.7359   19.1416  -11.0376 H         1 3K1         0.0950
     22 H          10.9354   20.6502  -12.5289 H         1 3K1         0.2333
     23 H          12.5109   24.3153  -10.3266 H         1 3K1         0.0699
     24 H          13.6178   25.9911  -11.8028 H         1 3K1         0.0676
     25 H          12.1897   23.9065  -15.2637 H         1 3K1         0.0676
     26 H          11.0763   22.2320  -13.8082 H         1 3K1         0.0699
     27 H          14.9972   26.8619  -13.1580 H         1 3K1         0.2712
@<TRIPOS>BOND
     1    1    2 1  
     2    2    3 2  
     3    2   18 1  
     4    3    4 1  
     5    4    5 1  
     6    5    6 1  
     7    5   17 2  
     8    6    7 ar 
     9    6   11 ar 
    10    7    8 ar 
    11    8    9 ar 
    12    9   10 ar 
    13    9   12 1  
    14   10   11 ar 
    15   12   13 2  
    16   12   16 1  
    17   13   14 1  
    18   14   15 2  
    19   15   16 1  
    20   17   18 1  
    21   18   19 2  
    22    1   20 1  
    23    3   21 1  
    24    4   22 1  
    25    7   23 1  
    26    8   24 1  
    27   10   25 1  
    28   11   26 1  
    29   16   27 1  
@<TRIPOS>SUBSTRUCTURE
     1 3K1         1

