### 
### Created by X-TOOL on Mon Sep 10 21:13:23 2018
### 

@<TRIPOS>MOLECULE
4wa9_ligand
   46    49     1     0     0
SMALL
GAST_HUCK


@<TRIPOS>ATOM
      1 O81        14.1460  158.8920   36.9950 O.2       1 AXI        -0.3884
      2 C80        13.1110  158.9860   37.6350 C.2       1 AXI         0.2009
      3 N82        12.4620  160.2570   37.7450 N.am      1 AXI        -0.2903
      4 C88        13.0120  161.4260   37.0760 C.3       1 AXI         0.0189
      5 C23        12.5590  157.7730   38.3130 C.ar      1 AXI         0.0639
      6 C22        12.2660  157.8050   39.6760 C.ar      1 AXI        -0.0473
      7 C21        11.7670  156.6730   40.3080 C.ar      1 AXI        -0.0628
      8 C20        11.5580  155.5010   39.5740 C.ar      1 AXI        -0.0630
      9 C18        12.3520  156.5920   37.5790 C.ar      1 AXI         0.0505
     10 C19        11.8560  155.4710   38.2080 C.ar      1 AXI        -0.0416
     11 S24        12.7010  156.5180   35.8190 S.3       1 AXI        -0.0405
     12 C07        11.4490  155.4060   35.1740 C.ar      1 AXI         0.0240
     13 C08        10.0940  155.6050   35.5100 C.ar      1 AXI        -0.0554
     14 C09         9.1060  154.7310   35.0210 C.ar      1 AXI        -0.0658
     15 C12        11.8290  154.3550   34.3550 C.ar      1 AXI        -0.0205
     16 C11        10.8200  153.4660   33.8530 C.ar      1 AXI         0.0863
     17 N15        10.9130  152.3630   33.0240 N.pl3     1 AXI        -0.2114
     18 N14         9.6460  151.8660   32.8370 N.2       1 AXI        -0.1947
     19 C13         8.7500  152.6100   33.5180 C.2       1 AXI         0.0609
     20 C10         9.4900  153.6500   34.1780 C.ar      1 AXI         0.0144
     21 C16         7.2670  152.3500   33.5450 C.2       1 AXI        -0.0397
     22 C17         6.3800  153.1480   34.2220 C.2       1 AXI        -0.0391
     23 C02         4.9250  152.7650   34.2910 C.ar      1 AXI         0.0395
     24 N03         4.4220  151.8900   33.3980 N.ar      1 AXI        -0.2976
     25 C04         3.1180  151.5270   33.4310 C.ar      1 AXI         0.0067
     26 C05         2.2730  152.0660   34.3980 C.ar      1 AXI        -0.0365
     27 C06         2.7710  152.9720   35.3270 C.ar      1 AXI        -0.0443
     28 C01         4.1180  153.3270   35.2680 C.ar      1 AXI        -0.0306
     29 H1         11.6249  160.3420   38.2854 H         1 AXI         0.1839
     30 H2         12.3747  162.2990   37.2802 H         1 AXI         0.0483
     31 H3         13.0488  161.2445   35.9917 H         1 AXI         0.0483
     32 H4         14.0283  161.6184   37.4503 H         1 AXI         0.0483
     33 H5         12.4278  158.7145   40.2432 H         1 AXI         0.0652
     34 H6         11.5401  156.6980   41.3677 H         1 AXI         0.0573
     35 H7         11.1655  154.6169   40.0633 H         1 AXI         0.0636
     36 H8         11.6959  154.5610   37.6411 H         1 AXI         0.0581
     37 H9          9.8125  156.4350   36.1479 H         1 AXI         0.0506
     38 H10         8.0646  154.8789   35.2830 H         1 AXI         0.0585
     39 H11        12.8715  154.2065   34.0975 H         1 AXI         0.0501
     40 H12        11.7794  151.9814   32.6183 H         1 AXI         0.2486
     41 H13         6.8808  151.4887   33.0020 H         1 AXI         0.0684
     42 H14         6.7277  154.0578   34.7092 H         1 AXI         0.0607
     43 H15         2.7327  150.8186   32.7066 H         1 AXI         0.0821
     44 H16         1.2280  151.7792   34.4261 H         1 AXI         0.0689
     45 H17         2.1225  153.3958   36.0852 H         1 AXI         0.0726
     46 H18         4.5297  154.0348   35.9784 H         1 AXI         0.0702
@<TRIPOS>BOND
     1    1    2 2  
     2    2    3 am 
     3    2    5 1  
     4    3    4 1  
     5    5    6 ar 
     6    5    9 ar 
     7    6    7 ar 
     8    7    8 ar 
     9    8   10 ar 
    10    9   10 ar 
    11    9   11 1  
    12   11   12 1  
    13   12   13 ar 
    14   12   15 ar 
    15   13   14 ar 
    16   14   20 ar 
    17   15   16 ar 
    18   16   17 1  
    19   16   20 ar 
    20   17   18 1  
    21   18   19 2  
    22   19   20 1  
    23   19   21 1  
    24   21   22 2  
    25   22   23 1  
    26   23   24 ar 
    27   23   28 ar 
    28   24   25 ar 
    29   25   26 ar 
    30   26   27 ar 
    31   27   28 ar 
    32    3   29 1  
    33    4   30 1  
    34    4   31 1  
    35    4   32 1  
    36    6   33 1  
    37    7   34 1  
    38    8   35 1  
    39   10   36 1  
    40   13   37 1  
    41   14   38 1  
    42   15   39 1  
    43   17   40 1  
    44   21   41 1  
    45   22   42 1  
    46   25   43 1  
    47   26   44 1  
    48   27   45 1  
    49   28   46 1  
@<TRIPOS>SUBSTRUCTURE
     1 AXI         1

