### 
### Created by X-TOOL on Mon Sep 10 21:13:19 2018
### 

@<TRIPOS>MOLECULE
4waf_ligand
   55    59     1     0     0
SMALL
GAST_HUCK


@<TRIPOS>ATOM
      1 C1         -2.6790   12.4200  -18.0750 C.3       1 3K6         0.0701
      2 C2         -3.3220   12.6130  -16.7070 C.3       1 3K6         0.0942
      3 C3         -1.8860   10.9240  -13.9840 C.2       1 3K6        -0.0044
      4 O1          0.0820    3.5740  -14.6180 O.2       1 3K6        -0.1510
      5 C11         2.7400    4.4840  -15.2210 C.3       1 3K6         0.0178
      6 C12         3.0550    4.0110  -12.8170 C.3       1 3K6         0.0178
      7 C13        -2.1680   10.4540  -16.1170 C.2       1 3K6         0.1075
      8 C14        -2.1990    9.9680  -17.5330 C.3       1 3K6         0.0966
      9 C15        -2.8480   10.6390  -19.8270 C.ar      1 3K6         0.0542
     10 C16        -1.9370    9.8000  -20.4700 C.ar      1 3K6        -0.0335
     11 C17        -2.0130    9.6560  -21.8450 C.ar      1 3K6        -0.0226
     12 C18        -3.8050   11.0650  -21.9780 C.ar      1 3K6         0.1203
     13 C19        -5.4850   12.4650  -21.5360 C.2       1 3K6         0.0208
     14 C20        -4.9370   12.1620  -20.3300 C.2       1 3K6        -0.0606
     15 C21        -3.8440   11.2730  -20.5910 C.ar      1 3K6         0.0203
     16 S           0.5860    4.5100  -13.6520 S.o2      1 3K6         0.0670
     17 O           0.3520    4.2740  -12.2640 O.2       1 3K6        -0.1510
     18 N2          2.1980    4.5850  -13.8610 N.am      1 3K6        -0.2409
     19 C8         -0.0670    6.0890  -14.0430 C.ar      1 3K6         0.1011
     20 C7          0.0250    6.5760  -15.3410 C.ar      1 3K6        -0.0427
     21 C6         -0.4480    7.8430  -15.6310 C.ar      1 3K6        -0.0637
     22 C9         -0.6340    6.8630  -13.0420 C.ar      1 3K6        -0.0427
     23 C10        -1.1060    8.1260  -13.3380 C.ar      1 3K6        -0.0637
     24 C5         -1.0310    8.6300  -14.6390 C.ar      1 3K6        -0.0415
     25 C4         -1.6290    9.9480  -14.9570 C.2       1 3K6         0.0040
     26 N1         -2.5540   11.9460  -14.4660 N.2       1 3K6        -0.2255
     27 N          -2.7220   11.6660  -15.8010 N.pl3     1 3K6        -0.1952
     28 N3         -2.7000   10.9930  -18.4550 N.pl3     1 3K6        -0.2801
     29 C          -1.2720   13.0140  -18.1690 C.3       1 3K6        -0.0389
     30 N5         -4.8060   11.8060  -22.5340 N.pl3     1 3K6        -0.2726
     31 N4         -2.9200   10.2770  -22.6140 N.ar      1 3K6        -0.3081
     32 H          -3.3009   12.9617  -18.8029 H         1 3K6         0.0586
     33 H          -4.4050   12.4326  -16.7737 H         1 3K6         0.0659
     34 H          -3.1422   13.6379  -16.3502 H         1 3K6         0.0659
     35 H          -1.5675   10.8434  -12.9457 H         1 3K6         0.0647
     36 H           3.8373    4.5526  -15.1844 H         1 3K6         0.0442
     37 H           2.3417    5.3042  -15.8363 H         1 3K6         0.0442
     38 H           2.4474    3.5195  -15.6617 H         1 3K6         0.0442
     39 H           4.1108    4.1372  -13.0989 H         1 3K6         0.0442
     40 H           2.8306    2.9399  -12.7062 H         1 3K6         0.0442
     41 H           2.8661    4.5258  -11.8634 H         1 3K6         0.0442
     42 H          -2.8545    9.0866  -17.5917 H         1 3K6         0.0753
     43 H          -1.1791    9.6872  -17.8345 H         1 3K6         0.0753
     44 H          -1.1816    9.2693  -19.9019 H         1 3K6         0.0477
     45 H          -1.2966    9.0022  -22.3292 H         1 3K6         0.0703
     46 H          -6.3340   13.1296  -21.6892 H         1 3K6         0.0903
     47 H          -5.2643   12.5238  -19.3564 H         1 3K6         0.0295
     48 H           0.4650    5.9664  -16.1220 H         1 3K6         0.0617
     49 H          -0.3644    8.2282  -16.6408 H         1 3K6         0.0554
     50 H          -0.7063    6.4779  -12.0313 H         1 3K6         0.0617
     51 H          -1.5398    8.7337  -12.5521 H         1 3K6         0.0554
     52 H          -0.8675   12.8408  -19.1772 H         1 3K6         0.0253
     53 H          -0.6203   12.5328  -17.4249 H         1 3K6         0.0253
     54 H          -1.3166   14.0954  -17.9726 H         1 3K6         0.0253
     55 H          -5.0192   11.8629  -23.5401 H         1 3K6         0.2287
@<TRIPOS>BOND
     1    2    1 1  
     2   28    1 1  
     3    1   29 1  
     4   27    2 1  
     5   25    3 1  
     6    3   26 2  
     7   16    4 2  
     8   18    5 1  
     9   18    6 1  
    10    7    8 1  
    11   25    7 2  
    12    7   27 1  
    13    8   28 1  
    14    9   10 ar 
    15    9   15 ar 
    16   28    9 1  
    17   10   11 ar 
    18   11   31 ar 
    19   15   12 ar 
    20   12   30 1  
    21   12   31 ar 
    22   14   13 2  
    23   13   30 1  
    24   15   14 1  
    25   16   17 2  
    26   16   18 am 
    27   19   16 1  
    28   20   19 ar 
    29   22   19 ar 
    30   21   20 ar 
    31   24   21 ar 
    32   23   22 ar 
    33   24   23 ar 
    34   24   25 1  
    35   26   27 1  
    36    1   32 1  
    37    2   33 1  
    38    2   34 1  
    39    3   35 1  
    40    5   36 1  
    41    5   37 1  
    42    5   38 1  
    43    6   39 1  
    44    6   40 1  
    45    6   41 1  
    46    8   42 1  
    47    8   43 1  
    48   10   44 1  
    49   11   45 1  
    50   13   46 1  
    51   14   47 1  
    52   20   48 1  
    53   21   49 1  
    54   22   50 1  
    55   23   51 1  
    56   29   52 1  
    57   29   53 1  
    58   29   54 1  
    59   30   55 1  
@<TRIPOS>SUBSTRUCTURE
     1 3K6         1

