### 
### Created by X-TOOL on Mon Sep 10 21:13:25 2018
### 

@<TRIPOS>MOLECULE
4wag_ligand
   37    39     1     0     0
SMALL
GAST_HUCK


@<TRIPOS>ATOM
      1 C1         37.6170   22.7080  -11.8360 C.ar      1 3K7        -0.0398
      2 C2         36.3810   22.9810  -12.3990 C.ar      1 3K7        -0.0238
      3 C3         36.2740   23.0390  -13.7780 C.ar      1 3K7        -0.0791
      4 C4         37.3700   22.8700  -14.5940 C.ar      1 3K7        -0.0456
      5 C5         38.5940   22.6080  -14.0300 C.ar      1 3K7         0.1151
      6 C6         38.7200   22.5270  -12.6580 C.ar      1 3K7         0.1145
      7 O1         39.6460   22.4450  -14.8780 O.3       1 3K7        -0.3275
      8 O2         39.9300   22.2730  -12.0950 O.3       1 3K7        -0.3262
      9 C7         35.1670   23.1640  -11.5500 C.2       1 3K7         0.1045
     10 C8         34.7020   22.5520  -10.2970 C.2       1 3K7         0.0039
     11 N9         33.5130   23.1300  -10.0500 N.2       1 3K7        -0.3210
     12 C10        33.2370   24.0170  -11.0350 C.2       1 3K7         0.1896
     13 N11        34.2250   24.0280  -11.9260 N.pl3     1 3K7        -0.1452
     14 C12        32.1570   24.8540  -11.2410 C.2       1 3K7         0.1050
     15 C13        32.1140   25.6840  -12.3500 C.2       1 3K7        -0.0030
     16 C14        33.1600   25.6690  -13.2580 C.2       1 3K7         0.1288
     17 N18        34.2040   24.8550  -13.0510 N.2       1 3K7        -0.1613
     18 C9         35.3930   21.5130   -9.4670 C.3       1 3K7        -0.0320
     19 CL         33.1390   26.7250  -14.7030 Cl        1 3K7        -0.0469
     20 N12        31.1410   24.8620  -10.3550 N.pl3     1 3K7        -0.3245
     21 C11        40.9760   23.2150  -12.2510 C.3       1 3K7         0.0568
     22 C15        39.7910   23.4100  -15.9150 C.3       1 3K7         0.0562
     23 H1         37.7218   22.6362  -10.7595 H         1 3K7         0.0456
     24 H2         35.3040   23.2219  -14.2261 H         1 3K7         0.0453
     25 H3         37.2675   22.9431  -15.6707 H         1 3K7         0.0502
     26 H4         31.2624   26.3445  -12.5068 H         1 3K7         0.0489
     27 H5         34.7732   21.2719   -8.5908 H         1 3K7         0.0371
     28 H6         36.3669   21.8994   -9.1320 H         1 3K7         0.0371
     29 H7         35.5460   20.6051  -10.0688 H         1 3K7         0.0371
     30 H8         31.1719   24.2456   -9.5304 H         1 3K7         0.1783
     31 H9         30.3338   25.4846  -10.5026 H         1 3K7         0.1783
     32 H10        41.8769   22.8513  -11.7352 H         1 3K7         0.0573
     33 H11        40.6694   24.1785  -11.8179 H         1 3K7         0.0573
     34 H12        41.1942   23.3468  -13.3210 H         1 3K7         0.0573
     35 H13        40.6732   23.1638  -16.5242 H         1 3K7         0.0572
     36 H14        39.9187   24.4085  -15.4715 H         1 3K7         0.0572
     37 H15        38.8932   23.4031  -16.5505 H         1 3K7         0.0572
@<TRIPOS>BOND
     1    1    2 ar 
     2    1    6 ar 
     3    2    3 ar 
     4    2    9 1  
     5    3    4 ar 
     6    4    5 ar 
     7    5    6 ar 
     8    5    7 1  
     9    6    8 1  
    10    7   22 1  
    11    8   21 1  
    12    9   10 2  
    13    9   13 1  
    14   10   11 1  
    15   10   18 1  
    16   11   12 2  
    17   12   13 1  
    18   12   14 1  
    19   13   17 1  
    20   14   15 2  
    21   14   20 1  
    22   15   16 1  
    23   16   17 2  
    24   16   19 1  
    25    1   23 1  
    26    3   24 1  
    27    4   25 1  
    28   15   26 1  
    29   18   27 1  
    30   18   28 1  
    31   18   29 1  
    32   20   30 1  
    33   20   31 1  
    34   21   32 1  
    35   21   33 1  
    36   21   34 1  
    37   22   35 1  
    38   22   36 1  
    39   22   37 1  
@<TRIPOS>SUBSTRUCTURE
     1 3K7         1

