### 
### Created by X-TOOL on Mon Sep 10 21:13:23 2018
### 

@<TRIPOS>MOLECULE
4wbg_ligand
   45    45     1     0     0
SMALL
GAST_HUCK


@<TRIPOS>ATOM
      1 C7         15.5950   -7.6930   20.9690 C.3       1 AZR        -0.0411
      2 S8         23.0840  -10.4430   17.6920 S.3       1 AZR         0.0150
      3 O9         19.0270   -5.4280   19.1620 O.2       1 AZR        -0.3724
      4 O10        18.1730   -9.9280   18.4110 O.2       1 AZR        -0.3862
      5 O11        18.5240  -10.3470   21.9480 O.3       1 AZR        -0.2177
      6 N12        16.1700   -5.4010   20.1400 N.am      1 AZR        -0.2736
      7 N13        18.5270   -8.1270   19.7280 N.am      1 AZR        -0.2643
      8 N14        19.5700  -10.5190   21.2420 N.2       1 AZR        -0.1296
      9 N15        22.0860  -11.0860   20.0220 N.2       1 AZR        -0.3138
     10 N16        24.3070  -11.8390   19.6690 N.pl3     1 AZR        -0.2979
     11 S17        16.0450   -4.3510   21.2830 S.o2      1 AZR        -0.1198
     12 C18        16.6930   -6.7300   20.5040 C.3       1 AZR         0.0707
     13 C19        17.4760   -7.2240   19.2840 C.3       1 AZR         0.1312
     14 C20        17.9800   -5.9390   18.7480 C.2       1 AZR         0.1263
     15 C21        18.7560   -9.3770   19.3160 C.2       1 AZR         0.2188
     16 C22        19.7710  -10.1330   20.0390 C.2       1 AZR         0.1485
     17 C23        18.4040  -10.8680   23.3020 C.3       1 AZR         0.1563
     18 C24        21.0810  -10.4080   19.3960 C.2       1 AZR         0.0260
     19 C25        21.4580   -9.9710   18.1270 C.2       1 AZR         0.0081
     20 C26        23.1860  -11.1940   19.2480 C.2       1 AZR         0.1779
     21 C27        19.4640  -10.2400   24.2240 C.3       1 AZR        -0.0232
     22 C28        17.0050  -10.5120   23.8310 C.3       1 AZR        -0.0232
     23 C29        18.5380  -12.3960   23.2580 C.2       1 AZR         0.0845
     24 O30        17.5850  -13.0600   22.7750 O.co2     1 AZR        -0.5445
     25 O31        19.5780  -12.9680   23.6850 O.co2     1 AZR        -0.5445
     26 O32        15.1690   -3.2970   20.8760 O.co2     1 AZR        -0.4676
     27 O33        15.4300   -5.0990   22.6070 O.co2     1 AZR        -0.4676
     28 O34        17.3550   -3.8450   21.6450 O.co2     1 AZR        -0.4676
     29 H1         16.0436   -8.6640   21.2259 H         1 AZR         0.0250
     30 H2         14.8614   -7.8304   20.1610 H         1 AZR         0.0250
     31 H3         15.0921   -7.2759   21.8539 H         1 AZR         0.0250
     32 H4         15.9069   -5.1832   19.2001 H         1 AZR         0.1646
     33 H5         19.1511   -7.7701   20.4231 H         1 AZR         0.1876
     34 H6         24.3309  -12.2743   20.6022 H         1 AZR         0.1863
     35 H7         25.1320  -11.8921   19.0546 H         1 AZR         0.1863
     36 H8         17.3955   -6.6129   21.3423 H         1 AZR         0.0557
     37 H9         16.8321   -7.7363   18.5540 H         1 AZR         0.0809
     38 H10        17.4138   -5.4308   17.9689 H         1 AZR         0.1374
     39 H11        20.8057   -9.3941   17.4730 H         1 AZR         0.0635
     40 H12        19.3543  -10.6477   25.2397 H         1 AZR         0.0256
     41 H13        19.3271   -9.1489   24.2502 H         1 AZR         0.0256
     42 H14        20.4682  -10.4745   23.8412 H         1 AZR         0.0256
     43 H15        16.8915  -10.8967   24.8553 H         1 AZR         0.0256
     44 H16        16.2413  -10.9656   23.1822 H         1 AZR         0.0256
     45 H17        16.8813   -9.4190   23.8341 H         1 AZR         0.0256
@<TRIPOS>BOND
     1   12    1 1  
     2    2   19 1  
     3   20    2 1  
     4   14    3 2  
     5   15    4 2  
     6    8    5 1  
     7    5   17 1  
     8    6   11 am 
     9   12    6 1  
    10    7   13 1  
    11   15    7 am 
    12   16    8 2  
    13   18    9 1  
    14    9   20 2  
    15   20   10 1  
    16   11   26 ar 
    17   11   27 ar 
    18   11   28 ar 
    19   13   12 1  
    20   13   14 1  
    21   16   15 1  
    22   16   18 1  
    23   17   21 1  
    24   17   22 1  
    25   17   23 1  
    26   18   19 2  
    27   23   24 ar 
    28   23   25 ar 
    29    1   29 1  
    30    1   30 1  
    31    1   31 1  
    32    6   32 1  
    33    7   33 1  
    34   10   34 1  
    35   10   35 1  
    36   12   36 1  
    37   13   37 1  
    38   14   38 1  
    39   19   39 1  
    40   21   40 1  
    41   21   41 1  
    42   21   42 1  
    43   22   43 1  
    44   22   44 1  
    45   22   45 1  
@<TRIPOS>SUBSTRUCTURE
     1 AZR         1

