### 
### Created by X-TOOL on Mon Sep 10 21:13:20 2018
### 

@<TRIPOS>MOLECULE
4wbo_ligand
   35    37     1     0     0
SMALL
GAST_HUCK


@<TRIPOS>ATOM
      1 NAA        42.9610  -55.8460   -3.0460 N.ar      1 ANW        -0.2453
      2 NAB        43.1430  -55.9260   -5.4710 N.pl3     1 ANW        -0.3188
      3 CAC        41.0230  -52.8920    4.5380 C.3       1 ANW        -0.0540
      4 CAD        42.4510  -53.3740    4.2920 C.3       1 ANW        -0.0164
      5 CAE        42.9640  -54.2260    5.4540 C.3       1 ANW        -0.0540
      6 CAF        42.5340  -54.0940    2.9980 C.ar      1 ANW        -0.0441
      7 CAG        42.6240  -53.3200    1.8440 C.ar      1 ANW        -0.0484
      8 CAH        42.7110  -53.9310    0.5940 C.ar      1 ANW         0.0593
      9 CAI        42.7090  -55.3210    0.5100 C.ar      1 ANW         0.1381
     10 CAJ        42.6180  -56.0980    1.6590 C.ar      1 ANW        -0.0257
     11 CAK        42.5310  -55.4900    2.9030 C.ar      1 ANW        -0.0616
     12 CAL        42.8790  -55.2030   -1.8630 C.ar      1 ANW         0.2001
     13 CAM        43.0500  -55.1610   -4.2020 C.ar      1 ANW         0.1182
     14 CAN        43.0550  -53.7700   -4.2030 C.ar      1 ANW         0.0501
     15 CAO        42.9710  -53.0830   -2.9970 C.ar      1 ANW        -0.0285
     16 CAP        42.8820  -53.8100   -1.8120 C.ar      1 ANW         0.0825
     17 CAQ        42.7970  -53.1720   -0.5770 C.2       1 ANW         0.1436
     18 CAR        43.1640  -53.0180   -5.4980 C.2       1 ANW         0.0581
     19 OAS        42.7940  -55.9330   -0.7100 O.3       1 ANW        -0.2319
     20 OAT        42.7990  -51.9230   -0.5250 O.2       1 ANW        -0.3922
     21 OAU        43.0200  -53.6660   -6.5570 O.co2     1 ANW        -0.5655
     22 OAV        43.4110  -51.7850   -5.4980 O.co2     1 ANW        -0.5655
     23 H          43.2121  -55.4269   -6.3693 H         1 ANW         0.1800
     24 H          43.1385  -56.9558   -5.4530 H         1 ANW         0.1800
     25 H          40.9761  -52.3604    5.4999 H         1 ANW         0.0252
     26 H          40.3434  -53.7566    4.5634 H         1 ANW         0.0252
     27 H          40.7209  -52.2118    3.7280 H         1 ANW         0.0252
     28 H          43.0977  -52.4869    4.2230 H         1 ANW         0.0438
     29 H          43.9923  -54.5542    5.2420 H         1 ANW         0.0252
     30 H          42.3162  -55.1064    5.5771 H         1 ANW         0.0252
     31 H          42.9526  -53.6302    6.3786 H         1 ANW         0.0252
     32 H          42.6264  -52.2385    1.9179 H         1 ANW         0.0579
     33 H          42.6150  -57.1793    1.5830 H         1 ANW         0.0558
     34 H          42.4608  -56.0952    3.7996 H         1 ANW         0.0574
     35 H          42.9747  -51.9991   -2.9792 H         1 ANW         0.0757
@<TRIPOS>BOND
     1   12    1 ar 
     2    1   13 ar 
     3   13    2 1  
     4    4    3 1  
     5    4    5 1  
     6    6    4 1  
     7    7    6 ar 
     8   11    6 ar 
     9    8    7 ar 
    10    9    8 ar 
    11    8   17 1  
    12    9   10 ar 
    13   19    9 1  
    14   10   11 ar 
    15   12   16 ar 
    16   12   19 1  
    17   13   14 ar 
    18   14   15 ar 
    19   14   18 1  
    20   15   16 ar 
    21   16   17 1  
    22   17   20 2  
    23   18   21 ar 
    24   18   22 ar 
    25    2   23 1  
    26    2   24 1  
    27    3   25 1  
    28    3   26 1  
    29    3   27 1  
    30    4   28 1  
    31    5   29 1  
    32    5   30 1  
    33    5   31 1  
    34    7   32 1  
    35   10   33 1  
    36   11   34 1  
    37   15   35 1  
@<TRIPOS>SUBSTRUCTURE
     1 ANW         1

