### 
### Created by X-TOOL on Mon Sep 10 21:13:24 2018
### 

@<TRIPOS>MOLECULE
4wcf_ligand
   20    21     1     0     0
SMALL
GAST_HUCK


@<TRIPOS>ATOM
      1 NAM         5.6720  -12.9010   15.6160 N.pl3     1 3KN        -0.3247
      2 CAI         5.8820  -14.1500   15.2850 C.ar      1 3KN         0.0725
      3 CAH         4.8490  -15.0840   15.3840 C.ar      1 3KN        -0.0135
      4 CAL         5.1300  -16.3960   15.0320 C.ar      1 3KN        -0.0017
      5 NAK         6.4330  -16.7170   14.5830 N.ar      1 3KN        -0.3124
      6 CAJ         7.4690  -15.7510   14.4750 C.ar      1 3KN         0.0112
      7 CAG         7.1690  -14.4430   14.8180 C.ar      1 3KN         0.0633
      8 CAE         8.1070  -13.4870   14.7950 C.2       1 3KN         0.1236
      9 SAA         9.7800  -13.6360   14.3300 S.3       1 3KN         0.0568
     10 NAD         7.8900  -12.2340   15.2260 N.2       1 3KN        -0.2694
     11 NAC         8.9770  -11.3770   15.1960 N.2       1 3KN        -0.2569
     12 CAB        10.1100  -11.9380   14.7450 C.2       1 3KN         0.1941
     13 NAF        11.2770  -11.2950   14.6340 N.pl3     1 3KN        -0.2961
     14 H1          4.7489  -12.6098   15.9681 H         1 3KN         0.1791
     15 H2          6.4298  -12.2095   15.5243 H         1 3KN         0.1791
     16 H3          3.8615  -14.7939   15.7242 H         1 3KN         0.0611
     17 H4          4.3654  -17.1614   15.0996 H         1 3KN         0.0790
     18 H5          8.4605  -16.0281   14.1357 H         1 3KN         0.0808
     19 H6         11.3473  -10.3045   14.9075 H         1 3KN         0.1870
     20 H7         12.1057  -11.7902   14.2749 H         1 3KN         0.1870
@<TRIPOS>BOND
     1    1    2 1  
     2    2    3 ar 
     3    2    7 ar 
     4    3    4 ar 
     5    4    5 ar 
     6    5    6 ar 
     7    6    7 ar 
     8    7    8 1  
     9    8    9 1  
    10    8   10 2  
    11    9   12 1  
    12   10   11 1  
    13   11   12 2  
    14   12   13 1  
    15    1   14 1  
    16    1   15 1  
    17    3   16 1  
    18    4   17 1  
    19    6   18 1  
    20   13   19 1  
    21   13   20 1  
@<TRIPOS>SUBSTRUCTURE
     1 3KN         1

