### 
### Created by X-TOOL on Mon Sep 10 21:13:20 2018
### 

@<TRIPOS>MOLECULE
4wcu_ligand
   55    57     1     0     0
SMALL
GAST_HUCK


@<TRIPOS>ATOM
      1 C1         21.2970   -2.5960   -5.1150 C.ar      1 3KQ         0.0215
      2 C2         21.6640   -3.5930   -4.0860 C.ar      1 3KQ         0.0720
      3 C3         21.4780   -3.2870   -2.7420 C.ar      1 3KQ         0.0176
      4 C5         20.6060   -1.1470   -3.2380 C.ar      1 3KQ         0.0176
      5 C6         20.7470   -1.3170   -4.6150 C.ar      1 3KQ         0.0720
      6 O25        27.5880    0.6410   -7.3990 O.2       1 3KQ        -0.3939
      7 C24        26.4160    0.3100   -7.3410 C.2       1 3KQ         0.2086
      8 N26        25.8360   -0.1460   -6.2270 N.am      1 3KQ        -0.2734
      9 C27        26.2950    0.2470   -4.8980 C.3       1 3KQ         0.0645
     10 C28        25.1550    0.7130   -4.0020 C.ar      1 3KQ        -0.0210
     11 C33        25.3700    0.8400   -2.6250 C.ar      1 3KQ        -0.0584
     12 C32        24.3400    1.2500   -1.7780 C.ar      1 3KQ        -0.0685
     13 C31        23.0870    1.5490   -2.3100 C.ar      1 3KQ        -0.0687
     14 C30        22.8580    1.4310   -3.6830 C.ar      1 3KQ        -0.0685
     15 C29        23.8920    1.0140   -4.5260 C.ar      1 3KQ        -0.0584
     16 C23        25.5840    0.4170   -8.5990 C.3       1 3KQ         0.1579
     17 O22        24.2890   -0.1700   -8.4760 O.3       1 3KQ        -0.2988
     18 C17        23.8680   -1.2350   -9.2410 C.ar      1 3KQ         0.1356
     19 C16        24.1570   -1.3430  -10.7050 C.ar      1 3KQ         0.1538
     20 O20        24.8790   -0.3660  -11.3560 O.3       1 3KQ        -0.3286
     21 C21        24.2540    0.8330  -11.8150 C.3       1 3KQ         0.0541
     22 C15        23.6400   -2.5560  -11.4200 C.ar      1 3KQ         0.1171
     23 O18        23.8780   -2.7230  -12.7570 O.3       1 3KQ        -0.3245
     24 C19        23.4170   -3.8610  -13.4990 C.3       1 3KQ         0.0577
     25 C14        22.9200   -3.5330  -10.7120 C.ar      1 3KQ        -0.0452
     26 C13        22.6490   -3.4240   -9.3470 C.ar      1 3KQ        -0.0697
     27 C12        23.0830   -2.3310   -8.5990 C.ar      1 3KQ         0.0449
     28 C10        22.7670   -2.2440   -7.1370 C.2       1 3KQ         0.1306
     29 O11        23.5440   -1.6360   -6.4120 O.2       1 3KQ        -0.3871
     30 C9         21.4850   -2.8720   -6.5960 C.3       1 3KQ         0.0599
     31 CL7        20.2600   -0.0290   -5.7620 Cl        1 3KQ        -0.0668
     32 N4         20.9690   -2.1000   -2.3570 N.ar      1 3KQ        -0.3052
     33 CL8        22.3300   -5.1700   -4.5720 Cl        1 3KQ        -0.0668
     34 H          21.7480   -4.0183   -1.9887 H         1 3KQ         0.0809
     35 H          20.1909   -0.2180   -2.8641 H         1 3KQ         0.0809
     36 H          25.0635   -0.7761   -6.3061 H         1 3KQ         0.1878
     37 H          27.0192    1.0682   -5.0033 H         1 3KQ         0.0683
     38 H          26.7856   -0.6162   -4.4245 H         1 3KQ         0.0683
     39 H          26.3473    0.6174   -2.2121 H         1 3KQ         0.0557
     40 H          24.5134    1.3356   -0.7114 H         1 3KQ         0.0599
     41 H          22.2866    1.8746   -1.6555 H         1 3KQ         0.0559
     42 H          21.8816    1.6621   -4.0933 H         1 3KQ         0.0599
     43 H          23.7150    0.9231   -5.5916 H         1 3KQ         0.0557
     44 H          26.1199   -0.0896   -9.4152 H         1 3KQ         0.0858
     45 H          25.4616    1.4819   -8.8461 H         1 3KQ         0.0858
     46 H          25.0033    1.4731  -12.3037 H         1 3KQ         0.0568
     47 H          23.8158    1.3686  -10.9600 H         1 3KQ         0.0568
     48 H          23.4615    0.5810  -12.5350 H         1 3KQ         0.0568
     49 H          23.7319   -3.7664  -14.5487 H         1 3KQ         0.0575
     50 H          22.3193   -3.9114  -13.4487 H         1 3KQ         0.0575
     51 H          23.8463   -4.7778  -13.0687 H         1 3KQ         0.0575
     52 H          22.5611   -4.4051  -11.2465 H         1 3KQ         0.0443
     53 H          22.0864   -4.2098   -8.8560 H         1 3KQ         0.0527
     54 H          20.6272   -2.4578   -7.1461 H         1 3KQ         0.0666
     55 H          21.5296   -3.9600   -6.7516 H         1 3KQ         0.0666
@<TRIPOS>BOND
     1    1    2 ar 
     2    1    5 ar 
     3   30    1 1  
     4    2    3 ar 
     5    2   33 1  
     6    3   32 ar 
     7    5    4 ar 
     8    4   32 ar 
     9    5   31 1  
    10    7    6 2  
    11    7    8 am 
    12   16    7 1  
    13    8    9 1  
    14    9   10 1  
    15   10   11 ar 
    16   10   15 ar 
    17   11   12 ar 
    18   12   13 ar 
    19   14   13 ar 
    20   15   14 ar 
    21   17   16 1  
    22   18   17 1  
    23   18   19 ar 
    24   27   18 ar 
    25   19   20 1  
    26   19   22 ar 
    27   20   21 1  
    28   22   23 1  
    29   25   22 ar 
    30   23   24 1  
    31   26   25 ar 
    32   27   26 ar 
    33   28   27 1  
    34   28   29 2  
    35   28   30 1  
    36    3   34 1  
    37    4   35 1  
    38    8   36 1  
    39    9   37 1  
    40    9   38 1  
    41   11   39 1  
    42   12   40 1  
    43   13   41 1  
    44   14   42 1  
    45   15   43 1  
    46   16   44 1  
    47   16   45 1  
    48   21   46 1  
    49   21   47 1  
    50   21   48 1  
    51   24   49 1  
    52   24   50 1  
    53   24   51 1  
    54   25   52 1  
    55   26   53 1  
    56   30   54 1  
    57   30   55 1  
@<TRIPOS>SUBSTRUCTURE
     1 3KQ         1

