### 
### Created by X-TOOL on Mon Sep 10 21:13:23 2018
### 

@<TRIPOS>MOLECULE
4wet_ligand
   47    49     1     0     0
SMALL
GAST_HUCK


@<TRIPOS>ATOM
      1 O01         8.8060   27.6240   -6.8870 O.2       1 WEF        -0.3916
      2 C02         7.7440   27.5860   -7.4820 C.2       1 WEF         0.2113
      3 N03         6.5540   27.0970   -6.9450 N.am      1 WEF        -0.2710
      4 C04         6.3100   26.5670   -5.5950 C.3       1 WEF         0.1014
      5 C05         5.0900   27.2710   -4.8890 C.3       1 WEF         0.0107
      6 C06         5.0750   28.7980   -4.9360 C.ar      1 WEF        -0.0499
      7 C07         5.6290   29.6630   -3.9750 C.ar      1 WEF        -0.0686
      8 C08         5.5730   31.0590   -4.1160 C.ar      1 WEF        -0.0398
      9 C09         4.9590   31.6080   -5.2390 C.ar      1 WEF         0.0805
     10 O10         4.9040   32.9790   -5.3790 O.3       1 WEF        -0.3376
     11 C11         4.4020   30.7700   -6.2150 C.ar      1 WEF        -0.0398
     12 C12         4.4680   29.3890   -6.0550 C.ar      1 WEF        -0.0686
     13 C13         6.0650   25.0160   -5.6030 C.2       1 WEF         0.0617
     14 O14         5.9980   24.5020   -6.7470 O.co2     1 WEF        -0.5665
     15 O15         5.9720   24.4780   -4.4990 O.co2     1 WEF        -0.5665
     16 C16         7.7760   28.0930   -8.8860 C.2       1 WEF         0.1281
     17 C17         8.7470   28.1270   -9.8590 C.2       1 WEF         0.0415
     18 C18        10.1710   27.6450   -9.7180 C.3       1 WEF        -0.0186
     19 N19         8.3390   28.6820  -11.1150 N.2       1 WEF        -0.2732
     20 C20         7.0730   29.0870  -11.1180 C.2       1 WEF         0.1378
     21 C21         6.3390   29.6660  -12.2440 C.ar      1 WEF         0.0490
     22 C22         4.9250   29.7030  -12.3360 C.ar      1 WEF        -0.0196
     23 C23         4.2400   30.2320  -13.4420 C.ar      1 WEF        -0.0321
     24 C24         4.9570   30.7510  -14.5150 C.ar      1 WEF         0.0406
     25 C25         4.2890   31.3340  -15.7320 C.3       1 WEF         0.3675
     26 F26         5.1140   31.3480  -16.8110 F         1 WEF        -0.2304
     27 F27         3.8970   32.6170  -15.6410 F         1 WEF        -0.2304
     28 F28         3.2040   30.6730  -16.1510 F         1 WEF        -0.2304
     29 C29         6.3330   30.7040  -14.4430 C.ar      1 WEF        -0.0321
     30 C30         6.9910   30.1790  -13.3520 C.ar      1 WEF        -0.0196
     31 S31         6.3060   28.7680   -9.5610 S.3       1 WEF         0.0143
     32 H1          5.7635   27.1081   -7.5574 H         1 WEF         0.1860
     33 H2          7.2109   26.7664   -4.9962 H         1 WEF         0.0745
     34 H3          5.0928   26.9675   -3.8317 H         1 WEF         0.0446
     35 H4          4.1693   26.9111   -5.3714 H         1 WEF         0.0446
     36 H5          6.1124   29.2404   -3.1016 H         1 WEF         0.0530
     37 H6          6.0036   31.7032   -3.3579 H         1 WEF         0.0525
     38 H7          5.7866   33.3299   -5.3983 H         1 WEF         0.2458
     39 H8          3.9226   31.1951   -7.0894 H         1 WEF         0.0525
     40 H9          4.0375   28.7504   -6.8179 H         1 WEF         0.0530
     41 H10        10.7070   27.8030  -10.6655 H         1 WEF         0.0405
     42 H11        10.1725   26.5733   -9.4702 H         1 WEF         0.0405
     43 H12        10.6708   28.2076   -8.9158 H         1 WEF         0.0405
     44 H13         4.3441   29.3035  -11.5126 H         1 WEF         0.0729
     45 H14         3.1561   30.2358  -13.4594 H         1 WEF         0.0837
     46 H15         6.9156   31.0922  -15.2706 H         1 WEF         0.0837
     47 H16         8.0749   30.1672  -13.3620 H         1 WEF         0.0729
@<TRIPOS>BOND
     1    1    2 2  
     2    2    3 am 
     3    2   16 1  
     4    3    4 1  
     5    4    5 1  
     6    4   13 1  
     7    5    6 1  
     8    6    7 ar 
     9    6   12 ar 
    10    7    8 ar 
    11    8    9 ar 
    12    9   10 1  
    13    9   11 ar 
    14   11   12 ar 
    15   13   14 ar 
    16   13   15 ar 
    17   16   17 2  
    18   16   31 1  
    19   17   18 1  
    20   17   19 1  
    21   19   20 2  
    22   20   21 1  
    23   20   31 1  
    24   21   22 ar 
    25   21   30 ar 
    26   22   23 ar 
    27   23   24 ar 
    28   24   25 1  
    29   24   29 ar 
    30   25   26 1  
    31   25   27 1  
    32   25   28 1  
    33   29   30 ar 
    34    3   32 1  
    35    4   33 1  
    36    5   34 1  
    37    5   35 1  
    38    7   36 1  
    39    8   37 1  
    40   10   38 1  
    41   11   39 1  
    42   12   40 1  
    43   18   41 1  
    44   18   42 1  
    45   18   43 1  
    46   22   44 1  
    47   23   45 1  
    48   29   46 1  
    49   30   47 1  
@<TRIPOS>SUBSTRUCTURE
     1 WEF         1

