### 
### Created by X-TOOL on Mon Sep 10 21:13:22 2018
### 

@<TRIPOS>MOLECULE
4wey_ligand
   35    36     1     0     0
SMALL
GAST_HUCK


@<TRIPOS>ATOM
      1 O01         5.3710   27.8150   24.4160 O.2       1 EG6        -0.3917
      2 C02         5.9690   27.5730   23.3850 C.2       1 EG6         0.2096
      3 N03         7.1760   26.8170   23.3380 N.am      1 EG6        -0.2858
      4 C04         8.0470   26.1580   24.4010 C.3       1 EG6         0.0529
      5 C05         7.5080   26.2330   25.8380 C.3       1 EG6         0.0641
      6 O06         6.8340   25.0460   26.0890 O.3       1 EG6        -0.3930
      7 C10         5.3680   28.1040   22.0310 C.2       1 EG6         0.1280
      8 C11         6.0030   28.1660   20.8110 C.2       1 EG6         0.0415
      9 C12         7.4460   27.7440   20.5140 C.3       1 EG6        -0.0186
     10 N13         5.2610   28.6680   19.7250 N.2       1 EG6        -0.2732
     11 C14         4.0150   29.0360   20.0040 C.2       1 EG6         0.1378
     12 C15         3.0460   29.5710   19.0060 C.ar      1 EG6         0.0490
     13 C16         1.6280   29.6130   19.0710 C.ar      1 EG6        -0.0196
     14 C17         0.8450   30.1000   18.0140 C.ar      1 EG6        -0.0321
     15 C18         1.4410   30.5690   16.8410 C.ar      1 EG6         0.0406
     16 C19         0.6690   31.0860   15.6970 C.3       1 EG6         0.3675
     17 F20         0.7100   32.4490   15.5250 F         1 EG6        -0.2304
     18 F21        -0.6210   30.7730   15.7250 F         1 EG6        -0.2304
     19 F22         1.0770   30.6580   14.4810 F         1 EG6        -0.2304
     20 C23         2.8010   30.5070   16.7550 C.ar      1 EG6        -0.0321
     21 C24         3.5460   30.0210   17.7880 C.ar      1 EG6        -0.0196
     22 S25         3.6880   28.7300   21.7660 S.3       1 EG6         0.0143
     23 H1          7.5262   26.6923   22.4097 H         1 EG6         0.1835
     24 H2          9.0322   26.6469   24.3827 H         1 EG6         0.0541
     25 H3          8.1596   25.0963   24.1364 H         1 EG6         0.0541
     26 H4          6.8194   27.0850   25.9377 H         1 EG6         0.0577
     27 H5          8.3410   26.3498   26.5468 H         1 EG6         0.0577
     28 H6          6.4872   25.0609   26.9733 H         1 EG6         0.2095
     29 H7          7.6653   27.9117   19.4492 H         1 EG6         0.0405
     30 H8          7.5722   26.6772   20.7507 H         1 EG6         0.0405
     31 H9          8.1363   28.3402   21.1288 H         1 EG6         0.0405
     32 H10         1.1341   29.2567   19.9677 H         1 EG6         0.0729
     33 H11        -0.2348   30.1125   18.1085 H         1 EG6         0.0837
     34 H12         3.2959   30.8488   15.8532 H         1 EG6         0.0837
     35 H13         4.6203   29.9817   17.6485 H         1 EG6         0.0729
@<TRIPOS>BOND
     1    1    2 2  
     2    2    3 am 
     3    2    7 1  
     4    3    4 1  
     5    4    5 1  
     6    5    6 1  
     7    7    8 2  
     8    7   22 1  
     9    8    9 1  
    10    8   10 1  
    11   10   11 2  
    12   11   12 1  
    13   11   22 1  
    14   12   13 ar 
    15   12   21 ar 
    16   13   14 ar 
    17   14   15 ar 
    18   15   16 1  
    19   15   20 ar 
    20   16   17 1  
    21   16   18 1  
    22   16   19 1  
    23   20   21 ar 
    24    3   23 1  
    25    4   24 1  
    26    4   25 1  
    27    5   26 1  
    28    5   27 1  
    29    6   28 1  
    30    9   29 1  
    31    9   30 1  
    32    9   31 1  
    33   13   32 1  
    34   14   33 1  
    35   20   34 1  
    36   21   35 1  
@<TRIPOS>SUBSTRUCTURE
     1 EG6         1

