### 
### Created by X-TOOL on Mon Sep 10 21:13:23 2018
### 

@<TRIPOS>MOLECULE
4wf4_ligand
   26    27     1     0     0
SMALL
GAST_HUCK


@<TRIPOS>ATOM
      1 C01       -10.6750   19.3150   10.1950 C.3       1 WF4        -0.0212
      2 C02        -9.2810   19.9260   10.1620 C.2       1 WF4         0.0341
      3 C03        -8.5340   20.1140    9.0150 C.2       1 WF4         0.0901
      4 C04        -8.8610   19.7830    7.4980 C.2       1 WF4         0.0705
      5 O05        -8.1180   20.3080    6.6470 O.co2     1 WF4        -0.5632
      6 O06        -9.8220   19.0200    7.2680 O.co2     1 WF4        -0.5632
      7 S07        -6.9920   20.8520    9.5020 S.3       1 WF4         0.0099
      8 C08        -7.4290   20.8670   11.2180 C.2       1 WF4         0.1359
      9 C09        -6.5400   21.3870   12.2760 C.ar      1 WF4         0.0475
     10 C10        -5.1240   21.4410   12.1970 C.ar      1 WF4        -0.0203
     11 C11        -4.2980   21.9280   13.2180 C.ar      1 WF4        -0.0326
     12 C12        -4.8700   22.3980   14.3920 C.ar      1 WF4         0.0397
     13 C13        -4.0460   22.9510   15.5650 C.3       1 WF4         0.3667
     14 F14        -2.8270   22.4850   15.5890 F         1 WF4        -0.2311
     15 F15        -4.5960   22.6310   16.7000 F         1 WF4        -0.2311
     16 F16        -3.9730   24.2560   15.5620 F         1 WF4        -0.2311
     17 C17        -6.2330   22.3540   14.4980 C.ar      1 WF4        -0.0326
     18 C18        -7.0100   21.8720   13.4870 C.ar      1 WF4        -0.0203
     19 N19        -8.6580   20.3500   11.3900 N.2       1 WF4        -0.2777
     20 H1        -11.0370   19.2835   11.2333 H         1 WF4         0.0393
     21 H2        -10.6374   18.2935    9.7887 H         1 WF4         0.0393
     22 H3        -11.3579   19.9266    9.5871 H         1 WF4         0.0393
     23 H4         -4.6520   21.0828   11.2893 H         1 WF4         0.0725
     24 H5         -3.2213   21.9377   13.0923 H         1 WF4         0.0835
     25 H6         -6.7058   22.7103   15.4061 H         1 WF4         0.0835
     26 H7         -8.0828   21.8675   13.6424 H         1 WF4         0.0725
@<TRIPOS>BOND
     1    1    2 1  
     2    2    3 2  
     3    2   19 1  
     4    3    4 1  
     5    3    7 1  
     6    4    5 ar 
     7    4    6 ar 
     8    7    8 1  
     9    8    9 1  
    10    8   19 2  
    11    9   10 ar 
    12    9   18 ar 
    13   10   11 ar 
    14   11   12 ar 
    15   12   13 1  
    16   12   17 ar 
    17   13   14 1  
    18   13   15 1  
    19   13   16 1  
    20   17   18 ar 
    21    1   20 1  
    22    1   21 1  
    23    1   22 1  
    24   10   23 1  
    25   11   24 1  
    26   17   25 1  
    27   18   26 1  
@<TRIPOS>SUBSTRUCTURE
     1 WF4         1

