### 
### Created by X-TOOL on Mon Sep 10 21:13:23 2018
### 

@<TRIPOS>MOLECULE
4wf6_ligand
   31    31     1     0     0
SMALL
GAST_HUCK


@<TRIPOS>ATOM
      1 C1         12.4750   18.5270   27.4220 C.2       1 407         0.2203
      2 C2         11.7440   18.0850   26.1880 C.3       1 407         0.1251
      3 N3         13.5020   19.3530   27.2560 N.am      1 407        -0.1627
      4 O4         12.1270   18.1310   28.5210 O.2       1 407        -0.3949
      5 O5         14.1970   19.7980   28.3760 O.3       1 407        -0.2717
      6 C6         12.3740   16.8040   25.6540 C.3       1 407        -0.0280
      7 N7         10.3320   17.8860   26.4680 N.am      1 407        -0.2263
      8 S8          9.3020   19.0840   26.2030 S.o2      1 407         0.0671
      9 O9          8.0640   18.5490   25.7090 O.2       1 407        -0.1508
     10 O10         9.8400   19.9960   25.2340 O.2       1 407        -0.1508
     11 C18         9.0260   19.8600   27.5700 C.ar      1 407         0.0976
     12 C19         8.1040   19.3740   28.4910 C.ar      1 407        -0.0357
     13 C20         7.8750   20.0750   29.6730 C.ar      1 407        -0.0105
     14 C21         8.5580   21.2510   29.9280 C.ar      1 407         0.1329
     15 C22         9.4760   21.7420   29.0080 C.ar      1 407        -0.0331
     16 C23         9.7050   21.0480   27.8260 C.ar      1 407        -0.0440
     17 F24         8.3280   21.9190   31.0700 F         1 407        -0.1891
     18 C25         6.8850   19.5600   30.6840 C.3       1 407        -0.0303
     19 H1         11.8391   18.8695   25.4229 H         1 407         0.0750
     20 H2         13.7714   19.6504   26.3400 H         1 407         0.2217
     21 H3         14.8986   20.3771   28.1025 H         1 407         0.2490
     22 H4         11.8375   16.4809   24.7497 H         1 407         0.0272
     23 H5         12.3093   16.0168   26.4195 H         1 407         0.0272
     24 H6         13.4298   16.9898   25.4073 H         1 407         0.0272
     25 H7         10.0064   17.0096   26.8227 H         1 407         0.1705
     26 H8          7.5663   18.4544   28.2901 H         1 407         0.0565
     27 H9         10.0113   22.6624   29.2113 H         1 407         0.0586
     28 H10        10.4139   21.4326   27.1017 H         1 407         0.0568
     29 H11         6.4409   18.6226   30.3177 H         1 407         0.0383
     30 H12         6.0919   20.3073   30.8342 H         1 407         0.0383
     31 H13         7.3989   19.3738   31.6386 H         1 407         0.0383
@<TRIPOS>BOND
     1    1    2 1  
     2    1    3 am 
     3    1    4 2  
     4    2    6 1  
     5    2    7 1  
     6    3    5 1  
     7    7    8 am 
     8    8    9 2  
     9    8   10 2  
    10    8   11 1  
    11   11   12 ar 
    12   11   16 ar 
    13   12   13 ar 
    14   13   14 ar 
    15   13   18 1  
    16   14   15 ar 
    17   14   17 1  
    18   15   16 ar 
    19    2   19 1  
    20    3   20 1  
    21    5   21 1  
    22    6   22 1  
    23    6   23 1  
    24    6   24 1  
    25    7   25 1  
    26   12   26 1  
    27   15   27 1  
    28   16   28 1  
    29   18   29 1  
    30   18   30 1  
    31   18   31 1  
@<TRIPOS>SUBSTRUCTURE
     1 407         1

