### 
### Created by X-TOOL on Mon Sep 10 21:13:17 2018
### 

@<TRIPOS>MOLECULE
4wgi_ligand
   75    78     1     0     0
SMALL
GAST_HUCK


@<TRIPOS>ATOM
      1 C11        15.6540   55.3360   32.5450 C.2       1 3M6         0.3080
      2 C14        16.6000   53.3130   33.8780 C.ar      1 3M6         0.1104
      3 C15        16.8820   51.9470   33.8020 C.ar      1 3M6        -0.0046
      4 C16        17.4120   51.2690   34.9070 C.ar      1 3M6        -0.0440
      5 C25        12.1280   56.6980   33.7770 C.ar      1 3M6         0.1308
      6 C26        12.4800   56.2760   35.0900 C.ar      1 3M6         0.0987
      7 C01        10.4010   57.6350   29.0050 C.3       1 3M6        -0.0298
      8 C02         9.9210   58.5980   30.0500 C.3       1 3M6         0.0936
      9 N03        10.5200   58.2880   31.3240 N.am      1 3M6        -0.2589
     10 C04        11.5040   59.2140   31.8520 C.3       1 3M6         0.0405
     11 C05        12.9060   58.8690   31.3260 C.3       1 3M6         0.0089
     12 C06        13.9140   59.7790   31.9810 C.3       1 3M6        -0.0578
     13 C07        13.2770   57.4040   31.6060 C.3       1 3M6         0.1040
     14 C08        14.6620   57.1320   31.0390 C.3       1 3M6         0.0656
     15 N09        15.0460   55.7490   31.2670 N.am      1 3M6        -0.2508
     16 C10        14.8390   54.7530   30.2290 C.3       1 3M6         0.0240
     17 O12        15.8400   56.1540   33.4150 O.2       1 3M6        -0.3817
     18 N13        16.0180   53.9440   32.6870 N.am      1 3M6        -0.1927
     19 C17        17.6500   51.9550   36.0930 C.ar      1 3M6         0.0208
     20 C18        17.3620   53.3250   36.1890 C.ar      1 3M6        -0.0440
     21 C19        16.8290   54.0020   35.0770 C.ar      1 3M6        -0.0046
     22 C20        18.2330   51.1720   37.2880 C.3       1 3M6         0.3499
     23 F21        19.4920   50.8050   36.9950 F         1 3M6        -0.2443
     24 F22        18.2080   51.9290   38.4070 F         1 3M6        -0.2443
     25 F23        17.4790   50.0710   37.4850 F         1 3M6        -0.2443
     26 O24        13.2890   57.1160   33.0140 O.3       1 3M6        -0.3143
     27 N27        13.9050   56.2930   35.4690 N.am      1 3M6        -0.1888
     28 S28        14.4150   57.2240   36.7690 S.o2      1 3M6         0.0859
     29 O29        13.9130   56.7370   38.0450 O.2       1 3M6        -0.1455
     30 O30        15.8430   57.1760   36.8940 O.2       1 3M6        -0.1455
     31 C31        13.8040   58.9060   36.4700 C.ar      1 3M6         0.1096
     32 C32        12.6570   59.3340   37.1160 C.ar      1 3M6        -0.0365
     33 C33        12.1740   60.6250   36.8780 C.ar      1 3M6        -0.0263
     34 C34        12.8410   61.4530   36.0020 C.ar      1 3M6         0.1325
     35 F35        12.3770   62.6780   35.7740 F         1 3M6        -0.1834
     36 C36        13.9970   61.0140   35.3410 C.ar      1 3M6        -0.0263
     37 C37        14.4780   59.7410   35.5730 C.ar      1 3M6        -0.0365
     38 C38        11.5270   55.8390   35.9990 C.ar      1 3M6        -0.0493
     39 C39        10.1690   55.8180   35.6220 C.ar      1 3M6        -0.0839
     40 C40         9.8110   56.2320   34.3510 C.ar      1 3M6        -0.0682
     41 C41        10.7800   56.6900   33.4140 C.ar      1 3M6         0.0638
     42 C42        10.1670   57.0860   32.0470 C.2       1 3M6         0.1989
     43 O43         9.3560   56.3160   31.6030 O.2       1 3M6        -0.3912
     44 C44         8.4130   58.5570   30.1500 C.2       1 3M6         0.0599
     45 O45         7.8070   59.3580   30.9270 O.co2     1 3M6        -0.5666
     46 O46         7.7560   57.7100   29.4650 O.co2     1 3M6        -0.5666
     47 H          16.6893   51.4080   32.8815 H         1 3M6         0.0628
     48 H          17.6364   50.2107   34.8378 H         1 3M6         0.0802
     49 H           9.9374   57.8817   28.0385 H         1 3M6         0.0270
     50 H          10.1225   56.6110   29.2944 H         1 3M6         0.0270
     51 H          11.4950   57.7061   28.9156 H         1 3M6         0.0270
     52 H          10.2248   59.6139   29.7575 H         1 3M6         0.0724
     53 H          11.5048   59.1537   32.9503 H         1 3M6         0.0526
     54 H          11.2424   60.2362   31.5410 H         1 3M6         0.0526
     55 H          12.9247   59.0335   30.2385 H         1 3M6         0.0347
     56 H          14.9210   59.5383   31.6096 H         1 3M6         0.0234
     57 H          13.8819   59.6373   33.0714 H         1 3M6         0.0234
     58 H          13.6746   60.8252   31.7399 H         1 3M6         0.0234
     59 H          12.5427   56.7494   31.1139 H         1 3M6         0.0671
     60 H          15.3900   57.7948   31.5297 H         1 3M6         0.0550
     61 H          14.6553   57.3316   29.9573 H         1 3M6         0.0550
     62 H          15.1896   53.7733   30.5858 H         1 3M6         0.0484
     63 H          15.4031   55.0387   29.3289 H         1 3M6         0.0484
     64 H          13.7677   54.6931   29.9867 H         1 3M6         0.0484
     65 H          15.8576   53.3530   31.8964 H         1 3M6         0.2487
     66 H          17.5490   53.8582   37.1141 H         1 3M6         0.0802
     67 H          16.5950   55.0581   35.1475 H         1 3M6         0.0628
     68 H          14.5669   55.7503   34.9519 H         1 3M6         0.2125
     69 H          12.1372   58.6739   37.8009 H         1 3M6         0.0627
     70 H          11.2787   60.9725   37.3807 H         1 3M6         0.0604
     71 H          14.5114   61.6721   34.6500 H         1 3M6         0.0604
     72 H          15.3696   59.3919   35.0648 H         1 3M6         0.0627
     73 H          11.8243   55.5166   36.9903 H         1 3M6         0.0476
     74 H           9.4122   55.4808   36.3210 H         1 3M6         0.0491
     75 H           8.7666   56.2069   34.0616 H         1 3M6         0.0490
@<TRIPOS>BOND
     1   15    1 am 
     2    1   17 2  
     3    1   18 am 
     4    2    3 ar 
     5   18    2 1  
     6    2   21 ar 
     7    3    4 ar 
     8    4   19 ar 
     9    5    6 ar 
    10   26    5 1  
    11    5   41 ar 
    12    6   27 1  
    13    6   38 ar 
    14    8    7 1  
    15    9    8 1  
    16    8   44 1  
    17   10    9 1  
    18    9   42 am 
    19   11   10 1  
    20   11   12 1  
    21   13   11 1  
    22   14   13 1  
    23   13   26 1  
    24   14   15 1  
    25   15   16 1  
    26   19   20 ar 
    27   19   22 1  
    28   20   21 ar 
    29   22   23 1  
    30   22   24 1  
    31   22   25 1  
    32   27   28 am 
    33   28   29 2  
    34   28   30 2  
    35   28   31 1  
    36   31   32 ar 
    37   31   37 ar 
    38   32   33 ar 
    39   33   34 ar 
    40   34   35 1  
    41   34   36 ar 
    42   36   37 ar 
    43   38   39 ar 
    44   39   40 ar 
    45   40   41 ar 
    46   41   42 1  
    47   42   43 2  
    48   44   45 ar 
    49   44   46 ar 
    50    3   47 1  
    51    4   48 1  
    52    7   49 1  
    53    7   50 1  
    54    7   51 1  
    55    8   52 1  
    56   10   53 1  
    57   10   54 1  
    58   11   55 1  
    59   12   56 1  
    60   12   57 1  
    61   12   58 1  
    62   13   59 1  
    63   14   60 1  
    64   14   61 1  
    65   16   62 1  
    66   16   63 1  
    67   16   64 1  
    68   18   65 1  
    69   20   66 1  
    70   21   67 1  
    71   27   68 1  
    72   32   69 1  
    73   33   70 1  
    74   36   71 1  
    75   37   72 1  
    76   38   73 1  
    77   39   74 1  
    78   40   75 1  
@<TRIPOS>SUBSTRUCTURE
     1 3M6         1

