### 
### Created by X-TOOL on Mon Sep 10 21:13:16 2018
### 

@<TRIPOS>MOLECULE
4wh7_ligand
   14    14     1     0     0
SMALL
GAST_HUCK


@<TRIPOS>ATOM
      1 FAG        18.1310   -7.8960   -4.8580 F         1 8H8        -0.1747
      2 CAF        16.8970   -8.4290   -4.7590 C.ar      1 8H8         0.1612
      3 CAI        16.6790   -9.6100   -4.0580 C.ar      1 8H8         0.0124
      4 CAH        15.3910  -10.1340   -3.9690 C.ar      1 8H8         0.0967
      5 OAJ        15.1740  -11.2880   -3.2900 O.3       1 8H8        -0.3272
      6 CAE        14.3250   -9.4790   -4.5810 C.ar      1 8H8        -0.0249
      7 CAA        14.5480   -8.2960   -5.2730 C.ar      1 8H8        -0.0366
      8 CAB        15.8380   -7.7760   -5.3620 C.ar      1 8H8         0.1174
      9 CAC        16.0640   -6.6870   -6.0130 C.1       1 8H8         0.0872
     10 NAD        16.2870   -5.7130   -6.5960 N.1       1 8H8        -0.3409
     11 H          17.5082  -10.1212   -3.5824 H         1 8H8         0.0554
     12 H          15.6803  -11.9873   -3.6864 H         1 8H8         0.2519
     13 H          13.3245   -9.8914   -4.5173 H         1 8H8         0.0540
     14 H          13.7201   -7.7778   -5.7432 H         1 8H8         0.0682
@<TRIPOS>BOND
     1    1    2 1  
     2    2    3 ar 
     3    2    8 ar 
     4    3    4 ar 
     5    4    5 1  
     6    4    6 ar 
     7    6    7 ar 
     8    7    8 ar 
     9    8    9 1  
    10    9   10 3  
    11    3   11 1  
    12    5   12 1  
    13    6   13 1  
    14    7   14 1  
@<TRIPOS>SUBSTRUCTURE
     1 8H8         1

