### 
### Created by X-TOOL on Mon Sep 10 21:13:16 2018
### 

@<TRIPOS>MOLECULE
4wh9_ligand
   24    24     1     0     0
SMALL
GAST_HUCK


@<TRIPOS>ATOM
      1 OAQ        17.4910   -6.5850   -1.1770 O.co2     1 3M8        -0.4846
      2 SAN        18.4160   -5.6570   -1.8030 S.o2      1 3M8        -0.1906
      3 OAO        19.7190   -5.8250   -1.1830 O.co2     1 3M8        -0.4846
      4 OAP        17.8970   -4.2620   -1.6760 O.co2     1 3M8        -0.4846
      5 CAM        18.4760   -6.0250   -3.4330 C.3       1 3M8         0.0421
      6 CAL        19.1430   -7.4140   -3.5930 C.3       1 3M8         0.0254
      7 SAK        18.9160   -8.1720   -5.1790 S.3       1 3M8        -0.0930
      8 CAB        17.2820   -8.6470   -4.8980 C.ar      1 3M8         0.0421
      9 CAC        16.8960   -9.7670   -4.1220 C.ar      1 3M8        -0.0133
     10 CAD        15.5710  -10.1770   -4.0440 C.ar      1 3M8         0.0908
     11 OAI        15.2750  -11.3320   -3.4070 O.3       1 3M8        -0.3290
     12 CAE        14.4960   -9.5380   -4.6760 C.ar      1 3M8         0.0058
     13 CAF        14.9010   -8.3630   -5.3680 C.ar      1 3M8         0.1563
     14 FAH        13.9600   -7.7010   -6.0550 F         1 3M8        -0.1764
     15 CAA        16.2320   -7.9420   -5.5090 C.ar      1 3M8         0.1294
     16 CAG        16.4990   -6.8380   -6.2180 C.1       1 3M8         0.0815
     17 NAJ        16.7220   -5.9070   -6.8270 N.1       1 3M8        -0.3469
     18 H          19.0673   -5.2649   -3.9646 H         1 3M8         0.0478
     19 H          17.4569   -6.0518   -3.8462 H         1 3M8         0.0478
     20 H          18.7220   -8.0853   -2.8300 H         1 3M8         0.0420
     21 H          20.2232   -7.2962   -3.4220 H         1 3M8         0.0420
     22 H          17.6530  -10.3178   -3.5755 H         1 3M8         0.0481
     23 H          15.7215  -12.0524   -3.8361 H         1 3M8         0.2517
     24 H          13.4739   -9.8975   -4.6416 H         1 3M8         0.0501
@<TRIPOS>BOND
     1    1    2 ar 
     2    2    3 ar 
     3    2    4 ar 
     4    2    5 1  
     5    5    6 1  
     6    6    7 1  
     7    7    8 1  
     8    8    9 ar 
     9    8   15 ar 
    10    9   10 ar 
    11   10   11 1  
    12   10   12 ar 
    13   12   13 ar 
    14   13   14 1  
    15   13   15 ar 
    16   15   16 1  
    17   16   17 3  
    18    5   18 1  
    19    5   19 1  
    20    6   20 1  
    21    6   21 1  
    22    9   22 1  
    23   11   23 1  
    24   12   24 1  
@<TRIPOS>SUBSTRUCTURE
     1 3M8         1

