### 
### Created by X-TOOL on Mon Sep 10 21:13:17 2018
### 

@<TRIPOS>MOLECULE
4whq_ligand
   14    14     1     0     0
SMALL
GAST_HUCK


@<TRIPOS>ATOM
      1 C1        -16.8420  -51.4300  -33.6020 C.ar      1 3N8         0.1119
      2 C2        -18.2090  -51.2670  -33.7490 C.ar      1 3N8         0.1145
      3 C3        -18.7490  -50.6320  -34.8500 C.ar      1 3N8        -0.0084
      4 C4        -17.8800  -50.1390  -35.8100 C.ar      1 3N8         0.1117
      5 C5        -16.5030  -50.3060  -35.6850 C.ar      1 3N8        -0.0484
      6 C6        -15.9780  -50.9450  -34.5700 C.ar      1 3N8        -0.0433
      7 O7        -16.3860  -52.0550  -32.4880 O.3       1 3N8        -0.3395
      8 O8        -18.9960  -51.7610  -32.7940 O.3       1 3N8        -0.3378
      9 F9        -18.3730  -49.5210  -36.8920 F         1 3N8        -0.1957
     10 H         -19.8218  -50.5224  -34.9600 H         1 3N8         0.0496
     11 H         -15.8404  -49.9366  -36.4593 H         1 3N8         0.0483
     12 H         -14.9062  -51.0628  -34.4584 H         1 3N8         0.0500
     13 H         -15.8269  -51.4619  -31.9999 H         1 3N8         0.2429
     14 H         -18.4602  -52.1599  -32.1185 H         1 3N8         0.2442
@<TRIPOS>BOND
     1    1    2 ar 
     2    1    6 ar 
     3    1    7 1  
     4    2    3 ar 
     5    2    8 1  
     6    3    4 ar 
     7    4    5 ar 
     8    4    9 1  
     9    5    6 ar 
    10    3   10 1  
    11    5   11 1  
    12    6   12 1  
    13    7   13 1  
    14    8   14 1  
@<TRIPOS>SUBSTRUCTURE
     1 3N8         1

