### 
### Created by X-TOOL on Mon Sep 10 21:13:16 2018
### 

@<TRIPOS>MOLECULE
4whr_ligand
   14    14     1     0     0
SMALL
GAST_HUCK


@<TRIPOS>ATOM
      1 C1        -16.9390  -51.4850  -33.6980 C.ar      1 3N8         0.1119
      2 C2        -18.3020  -51.3280  -33.8530 C.ar      1 3N8         0.1145
      3 C3        -18.8200  -50.6450  -34.9470 C.ar      1 3N8        -0.0084
      4 C4        -17.9390  -50.1140  -35.8970 C.ar      1 3N8         0.1117
      5 C5        -16.5650  -50.2680  -35.7530 C.ar      1 3N8        -0.0484
      6 C6        -16.0690  -50.9540  -34.6530 C.ar      1 3N8        -0.0433
      7 O7        -16.4690  -52.1460  -32.5980 O.3       1 3N8        -0.3395
      8 O8        -19.1130  -51.8640  -32.9190 O.3       1 3N8        -0.3378
      9 F9        -18.4370  -49.4590  -36.9560 F         1 3N8        -0.1957
     10 H         -19.8911  -50.5251  -35.0632 H         1 3N8         0.0496
     11 H         -15.8876  -49.8564  -36.4925 H         1 3N8         0.0483
     12 H         -14.9987  -51.0785  -34.5343 H         1 3N8         0.0500
     13 H         -15.9175  -51.5620  -32.0906 H         1 3N8         0.2429
     14 H         -18.5877  -52.2888  -32.2512 H         1 3N8         0.2442
@<TRIPOS>BOND
     1    1    2 ar 
     2    1    6 ar 
     3    1    7 1  
     4    2    3 ar 
     5    2    8 1  
     6    3    4 ar 
     7    4    5 ar 
     8    4    9 1  
     9    5    6 ar 
    10    3   10 1  
    11    5   11 1  
    12    6   12 1  
    13    7   13 1  
    14    8   14 1  
@<TRIPOS>SUBSTRUCTURE
     1 3N8         1

