### 
### Created by X-TOOL on Mon Sep 10 21:13:16 2018
### 

@<TRIPOS>MOLECULE
4whs_ligand
   14    14     1     0     0
SMALL
GAST_HUCK


@<TRIPOS>ATOM
      1 C1        -16.9280  -51.4010  -33.5190 C.ar      1 3N8         0.1119
      2 C2        -18.3050  -51.2620  -33.6640 C.ar      1 3N8         0.1145
      3 C3        -18.8190  -50.5950  -34.7730 C.ar      1 3N8        -0.0084
      4 C4        -17.9520  -50.0650  -35.7380 C.ar      1 3N8         0.1117
      5 C5        -16.5800  -50.2230  -35.6020 C.ar      1 3N8        -0.0484
      6 C6        -16.0690  -50.8770  -34.4880 C.ar      1 3N8        -0.0433
      7 O7        -16.4650  -52.0460  -32.4110 O.3       1 3N8        -0.3395
      8 O8        -19.1550  -51.7760  -32.7250 O.3       1 3N8        -0.3378
      9 F9        -18.4460  -49.4270  -36.8130 F         1 3N8        -0.1957
     10 H         -19.8911  -50.4856  -34.8900 H         1 3N8         0.0496
     11 H         -15.9098  -49.8377  -36.3619 H         1 3N8         0.0483
     12 H         -14.9965  -50.9814  -34.3699 H         1 3N8         0.0500
     13 H         -15.9152  -51.4559  -31.9090 H         1 3N8         0.2429
     14 H         -18.6501  -52.1962  -32.0386 H         1 3N8         0.2442
@<TRIPOS>BOND
     1    1    2 ar 
     2    1    6 ar 
     3    1    7 1  
     4    2    3 ar 
     5    2    8 1  
     6    3    4 ar 
     7    4    5 ar 
     8    4    9 1  
     9    5    6 ar 
    10    3   10 1  
    11    5   11 1  
    12    6   12 1  
    13    7   13 1  
    14    8   14 1  
@<TRIPOS>SUBSTRUCTURE
     1 3N8         1

