### 
### Created by X-TOOL on Mon Sep 10 21:13:18 2018
### 

@<TRIPOS>MOLECULE
4whz_ligand
   59    63     1     0     0
SMALL
GAST_HUCK


@<TRIPOS>ATOM
      1 C30         3.2520  106.8380  141.2970 C.2       1 3NL         0.0608
      2 C27         1.3460  105.9770  142.0840 C.2       1 3NL         0.0202
      3 C26         2.4080  105.7420  141.2070 C.2       1 3NL         0.0735
      4 C31         3.2450  109.0390  142.5320 C.3       1 3NL         0.1202
      5 C23         1.7210  103.7400  139.8510 C.2       1 3NL         0.2200
      6 C13         6.6660   99.4520  140.5770 C.2       1 3NL         0.0231
      7 C16         4.8440   98.6360  139.6110 C.2       1 3NL         0.0749
      8 CL1         8.3500   92.4320  140.6220 Cl        1 3NL        -0.0832
      9 C02         8.1510   93.4850  142.0370 C.ar      1 3NL         0.0591
     10 C03         9.0140   93.3690  143.1260 C.ar      1 3NL        -0.0617
     11 C04         8.8470   94.2580  144.2260 C.ar      1 3NL        -0.0767
     12 C05         7.8010   95.1810  144.2200 C.ar      1 3NL        -0.0755
     13 C06         6.9060   95.2280  143.1690 C.ar      1 3NL        -0.0409
     14 C07         7.1660   94.4360  141.9860 C.ar      1 3NL         0.0810
     15 N08         6.2310   94.4830  140.9190 N.am      1 3NL        -0.2151
     16 C09         5.7520   95.7140  140.3610 C.2       1 3NL         0.3070
     17 O10         4.7730   95.6800  139.6000 O.2       1 3NL        -0.3844
     18 N11         6.4480   96.9810  140.6440 N.am      1 3NL        -0.2331
     19 C12         6.0360   98.2860  140.2370 C.2       1 3NL         0.0777
     20 N14         5.9010  100.4640  140.1370 N.2       1 3NL        -0.2111
     21 N15         4.8380   99.9670  139.5010 N.pl3     1 3NL        -0.1778
     22 C17         3.7960  100.6530  138.9600 C.ar      1 3NL         0.1110
     23 C18         3.0920  100.1520  137.8470 C.ar      1 3NL        -0.0222
     24 C19         1.9300  100.8040  137.4080 C.ar      1 3NL        -0.0607
     25 C20         1.5190  102.0020  137.9980 C.ar      1 3NL        -0.0490
     26 C21         2.2170  102.4940  139.1100 C.ar      1 3NL         0.0493
     27 C22         3.3240  101.8050  139.6060 C.ar      1 3NL        -0.0065
     28 O24         0.5350  103.9680  139.9190 O.2       1 3NL        -0.3786
     29 N25         2.6880  104.5440  140.4460 N.am      1 3NL        -0.2529
     30 N28         1.5310  107.1950  142.6280 N.2       1 3NL        -0.2246
     31 N29         2.7000  107.7190  142.1760 N.pl3     1 3NL        -0.2139
     32 C32         2.3810  110.2320  142.0800 C.3       1 3NL         0.0242
     33 C33         2.1200  110.9640  143.1670 C.3       1 3NL        -0.0304
     34 N34         3.1650  110.4890  144.2970 N.4       1 3NL         0.2293
     35 C35         3.3480  109.2070  144.0790 C.3       1 3NL        -0.0010
     36 H           4.1900  106.9707  140.7599 H         1 3NL         0.0763
     37 H           0.5193  105.2988  142.2901 H         1 3NL         0.0620
     38 H           4.2438  109.1242  142.0792 H         1 3NL         0.0722
     39 H           7.6132   99.5426  141.1067 H         1 3NL         0.0634
     40 H           4.0641   97.9544  139.2746 H         1 3NL         0.0766
     41 H           9.7956   92.6179  143.1352 H         1 3NL         0.0582
     42 H           9.5311   94.2175  145.0659 H         1 3NL         0.0487
     43 H           7.6893   95.8694  145.0499 H         1 3NL         0.0579
     44 H           6.0203   95.8501  143.2295 H         1 3NL         0.0501
     45 H           5.8922   93.6216  140.5406 H         1 3NL         0.2264
     46 H           7.2937   96.9211  141.1743 H         1 3NL         0.2131
     47 H           3.4468   99.2665  137.3321 H         1 3NL         0.0617
     48 H           1.3451  100.3740  136.6030 H         1 3NL         0.0610
     49 H           0.6695  102.5453  137.6002 H         1 3NL         0.0606
     50 H           3.8239  102.1632  140.4987 H         1 3NL         0.0633
     51 H           3.6451  104.2745  140.3400 H         1 3NL         0.2118
     52 H           1.4424  109.8705  141.6346 H         1 3NL         0.0350
     53 H           2.9287  110.8358  141.3414 H         1 3NL         0.0350
     54 H           1.0881  110.7883  143.5052 H         1 3NL         0.0815
     55 H           2.2570  112.0331  142.9476 H         1 3NL         0.0815
     56 H           2.7832  110.6401  145.2176 H         1 3NL         0.2015
     57 H           4.0348  110.9905  144.2075 H         1 3NL         0.2015
     58 H           4.3395  108.8923  144.4364 H         1 3NL         0.0845
     59 H           2.5710  108.6147  144.5843 H         1 3NL         0.0845
@<TRIPOS>BOND
     1    3    1 2  
     2    1   31 1  
     3    3    2 1  
     4    2   30 2  
     5   29    3 1  
     6   31    4 1  
     7    4   32 1  
     8    4   35 1  
     9   26    5 1  
    10    5   28 2  
    11    5   29 am 
    12    6   19 1  
    13   20    6 2  
    14    7   19 2  
    15   21    7 1  
    16    9    8 1  
    17    9   10 ar 
    18   14    9 ar 
    19   10   11 ar 
    20   12   11 ar 
    21   13   12 ar 
    22   14   13 ar 
    23   15   14 1  
    24   16   15 am 
    25   16   17 2  
    26   18   16 am 
    27   19   18 1  
    28   21   20 1  
    29   22   21 1  
    30   23   22 ar 
    31   22   27 ar 
    32   24   23 ar 
    33   25   24 ar 
    34   25   26 ar 
    35   26   27 ar 
    36   30   31 1  
    37   32   33 1  
    38   33   34 1  
    39   34   35 1  
    40    1   36 1  
    41    2   37 1  
    42    4   38 1  
    43    6   39 1  
    44    7   40 1  
    45   10   41 1  
    46   11   42 1  
    47   12   43 1  
    48   13   44 1  
    49   15   45 1  
    50   18   46 1  
    51   23   47 1  
    52   24   48 1  
    53   25   49 1  
    54   27   50 1  
    55   29   51 1  
    56   32   52 1  
    57   32   53 1  
    58   33   54 1  
    59   33   55 1  
    60   34   56 1  
    61   34   57 1  
    62   35   58 1  
    63   35   59 1  
@<TRIPOS>SUBSTRUCTURE
     1 3NL         1

