### 
### Created by X-TOOL on Mon Sep 10 21:13:26 2018
### 

@<TRIPOS>MOLECULE
4wi1_ligand
   41    43     1     0     0
SMALL
GAST_HUCK


@<TRIPOS>ATOM
      1 C13        -3.7490   25.6320   27.1190 C.2       1 3O6         0.2244
      2 C15        -1.7560   24.4440   27.9010 C.2       1 3O6         0.3256
      3 C20         1.6060   23.3070   30.4750 C.ar      1 3O6        -0.0418
      4 C21         2.5930   22.5770   29.8500 C.ar      1 3O6         0.1157
      5 C24         1.2350   22.3130   27.9010 C.ar      1 3O6        -0.0429
      6 C01        -2.0790   27.1340   26.0470 C.3       1 3O6         0.0731
      7 N02        -3.3650   26.8080   26.6490 N.pl3     1 3O6        -0.1470
      8 N03        -4.3830   27.6860   26.8180 N.2       1 3O6        -0.1659
      9 C04        -5.3980   27.0570   27.3840 C.2       1 3O6         0.1081
     10 C05        -5.0470   25.7250   27.5870 C.2       1 3O6         0.0415
     11 C06        -5.7960   24.7100   28.1730 C.ar      1 3O6        -0.0428
     12 C07        -5.2510   24.0290   29.2460 C.ar      1 3O6        -0.0670
     13 C08        -5.9560   23.0180   29.8670 C.ar      1 3O6        -0.0354
     14 C09        -7.2150   22.6880   29.4140 C.ar      1 3O6         0.1252
     15 F10        -7.8970   21.6940   30.0350 F         1 3O6        -0.1888
     16 C11        -7.7730   23.3630   28.3410 C.ar      1 3O6        -0.0354
     17 C12        -7.0590   24.3750   27.7220 C.ar      1 3O6        -0.0670
     18 N14        -2.9260   24.4560   27.0820 N.am      1 3O6        -0.1748
     19 O16        -1.4840   25.3640   28.6010 O.2       1 3O6        -0.3777
     20 N17        -0.9620   23.2560   27.8060 N.am      1 3O6        -0.2151
     21 C18         0.2500   23.0440   28.5310 C.ar      1 3O6         0.0636
     22 C19         0.4230   23.5450   29.8120 C.ar      1 3O6        -0.0429
     23 F22         3.7480   22.3340   30.5130 F         1 3O6        -0.1964
     24 C23         2.4190   22.0750   28.5700 C.ar      1 3O6        -0.0418
     25 C25        -6.7090   27.7280   27.7260 C.3       1 3O6         0.3799
     26 F26        -6.5420   29.0680   27.5810 F         1 3O6        -0.2210
     27 F27        -7.0450   27.4290   29.0130 F         1 3O6        -0.2210
     28 F28        -7.6680   27.2940   26.8610 F         1 3O6        -0.2210
     29 H1          1.7590   23.6898   31.4776 H         1 3O6         0.0566
     30 H2          1.0823   21.9318   26.8978 H         1 3O6         0.0493
     31 H3         -2.0683   28.1951   25.7572 H         1 3O6         0.0623
     32 H4         -1.9224   26.5089   25.1555 H         1 3O6         0.0623
     33 H5         -1.2753   26.9443   26.7737 H         1 3O6         0.0623
     34 H6         -4.2615   24.2915   29.6025 H         1 3O6         0.0543
     35 H7         -5.5219   22.4866   30.7062 H         1 3O6         0.0587
     36 H8         -8.7636   23.1004   27.9877 H         1 3O6         0.0587
     37 H9         -7.4915   24.9059   26.8817 H         1 3O6         0.0543
     38 H10        -3.1631   23.6748   26.5045 H         1 3O6         0.2388
     39 H11        -1.2757   22.5299   27.1941 H         1 3O6         0.2251
     40 H12        -0.3650   24.1183   30.2868 H         1 3O6         0.0493
     41 H13         3.2069   21.4996   28.0975 H         1 3O6         0.0566
@<TRIPOS>BOND
     1    1    7 1  
     2    1   10 2  
     3   18    1 1  
     4    2   18 am 
     5    2   19 2  
     6   20    2 am 
     7    4    3 ar 
     8    3   22 ar 
     9    4   23 1  
    10   24    4 ar 
    11   21    5 ar 
    12    5   24 ar 
    13    7    6 1  
    14    7    8 1  
    15    9    8 2  
    16   10    9 1  
    17    9   25 1  
    18   10   11 1  
    19   11   12 ar 
    20   11   17 ar 
    21   12   13 ar 
    22   13   14 ar 
    23   14   15 1  
    24   16   14 ar 
    25   17   16 ar 
    26   20   21 1  
    27   21   22 ar 
    28   25   26 1  
    29   25   27 1  
    30   25   28 1  
    31    3   29 1  
    32    5   30 1  
    33    6   31 1  
    34    6   32 1  
    35    6   33 1  
    36   12   34 1  
    37   13   35 1  
    38   16   36 1  
    39   17   37 1  
    40   18   38 1  
    41   20   39 1  
    42   22   40 1  
    43   24   41 1  
@<TRIPOS>SUBSTRUCTURE
     1 3O6         1

