### 
### Created by X-TOOL on Mon Sep 10 21:13:19 2018
### 

@<TRIPOS>MOLECULE
4wk2_ligand
   78    78     1     0     0
SMALL
GAST_HUCK


@<TRIPOS>ATOM
      1 N          27.6620   13.2040  -19.5390 N.4       1 GLY         0.2357
      2 CA         26.8670   13.4450  -20.7290 C.3       1 GLY         0.0545
      3 C          25.9270   12.2930  -21.0290 C.2       1 GLY         0.2236
      4 O          26.1230   11.5580  -21.9980 O.2       1 GLY        -0.3910
      5 N          24.9040   12.1400  -20.1920 N.am      1 ARG        -0.2613
      6 CA         23.9260   11.0690  -20.3440 C.3       1 ARG         0.1312
      7 C          22.6160   11.6210  -20.8950 C.2       1 ARG         0.2037
      8 O          22.2470   12.7630  -20.6150 O.2       1 ARG        -0.3944
      9 CB         23.6920   10.3690  -19.0050 C.3       1 ARG        -0.0092
     10 CG         24.9800    9.9970  -18.2860 C.3       1 ARG        -0.0156
     11 CD         24.7280    9.1240  -17.0690 C.3       1 ARG         0.0627
     12 NE         24.2510    7.7940  -17.4340 N.pl3     1 ARG        -0.2723
     13 CZ         24.1810    6.7650  -16.5950 C.cat     1 ARG         0.2882
     14 NH1        24.5650    6.9030  -15.3320 N.pl3     1 ARG        -0.2849
     15 NH2        23.7320    5.5930  -17.0200 N.pl3     1 ARG        -0.2849
     16 N          21.9160   10.8060  -21.6780 N.am      1 GLY        -0.2664
     17 CA         20.7030   11.2460  -22.3390 C.3       1 GLY         0.1201
     18 C          21.0170   12.3290  -23.3510 C.2       1 GLY         0.2008
     19 O          22.1310   12.3930  -23.8730 O.2       1 GLY        -0.3947
     20 N          20.0390   13.1840  -23.6300 N.am      1 ASP        -0.2624
     21 CA         20.2330   14.2870  -24.5630 C.3       1 ASP         0.1423
     22 C          20.8730   15.4800  -23.8630 C.2       1 ASP         0.2057
     23 O          20.1830   16.4000  -23.4230 O.2       1 ASP        -0.3943
     24 CB         18.9030   14.7000  -25.1940 C.3       1 ASP         0.0406
     25 CG         19.0580   15.8340  -26.1840 C.2       1 ASP         0.0393
     26 OD1        20.1440   15.9520  -26.7870 O.co2     1 ASP        -0.5688
     27 OD2        18.0940   16.6070  -26.3630 O.co2     1 ASP        -0.5688
     28 N          22.1970   15.4520  -23.7600 N.am      1 SER        -0.2615
     29 CA         22.9440   16.5400  -23.1450 C.3       1 SER         0.1541
     30 C          24.3430   16.6190  -23.7470 C.2       1 SER         0.2081
     31 O          24.8440   15.6280  -24.2780 O.2       1 SER        -0.3941
     32 CB         23.0300   16.3470  -21.6300 C.3       1 SER         0.0843
     33 OG         23.8420   15.2330  -21.3050 O.3       1 SER        -0.3903
     34 N          24.9810   17.8000  -23.6700 N.am      1 PRO        -0.2555
     35 CA         26.3300   17.9320  -24.2300 C.3       1 PRO         0.0972
     36 C          27.3500   17.0720  -23.4870 C.2       1 PRO         0.0603
     37 O          27.3010   16.9460  -22.2630 O.co2     1 PRO        -0.5666
     38 CB         26.6440   19.4250  -24.0550 C.3       1 PRO        -0.0159
     39 CG         25.3270   20.0840  -23.8220 C.3       1 PRO        -0.0288
     40 CD         24.4950   19.0730  -23.1120 C.3       1 PRO         0.0362
     41 OXT        28.2460   16.4830  -24.0930 O.co2     1 PRO        -0.5666
     42 H          28.2706   13.9909  -19.3765 H         1 GLY         0.2012
     43 H          28.2160   12.3718  -19.6679 H         1 GLY         0.2012
     44 H          27.0516   13.0819  -18.7462 H         1 GLY         0.2012
     45 H          27.5432   13.5835  -21.5855 H         1 GLY         0.1061
     46 H          26.2725   14.3584  -20.5797 H         1 GLY         0.1061
     47 H          24.8022   12.7820  -19.4320 H         1 ARG         0.1884
     48 H          24.3222   10.3324  -21.0584 H         1 ARG         0.0800
     49 H          23.1164    9.4496  -19.1878 H         1 ARG         0.0313
     50 H          23.1121   11.0418  -18.3562 H         1 ARG         0.0313
     51 H          25.4834   10.9196  -17.9616 H         1 ARG         0.0301
     52 H          25.6304    9.4507  -18.9849 H         1 ARG         0.0301
     53 H          23.9718    9.6099  -16.4349 H         1 ARG         0.0689
     54 H          25.6674    9.0212  -16.5060 H         1 ARG         0.0689
     55 H          23.9483    7.6423  -18.4068 H         1 ARG         0.2642
     56 H          24.5087    6.1026  -14.6862 H         1 ARG         0.2615
     57 H          24.9193    7.8105  -14.9977 H         1 ARG         0.2615
     58 H          23.4327    5.4804  -17.9991 H         1 ARG         0.2615
     59 H          23.6823    4.7945  -16.3712 H         1 ARG         0.2615
     60 H          22.2335    9.8676  -21.8142 H         1 GLY         0.1881
     61 H          20.0044   11.6432  -21.5879 H         1 GLY         0.0763
     62 H          20.2404   10.3914  -22.8543 H         1 GLY         0.0763
     63 H          19.1488   13.0681  -23.1895 H         1 ASP         0.1884
     64 H          20.9083   13.9492  -25.3629 H         1 ASP         0.0819
     65 H          18.2181   15.0205  -24.3952 H         1 ASP         0.0478
     66 H          18.4759   13.8315  -25.7167 H         1 ASP         0.0478
     67 H          22.6951   14.6609  -24.1151 H         1 SER         0.1884
     68 H          22.4190   17.4850  -23.3483 H         1 SER         0.0823
     69 H          22.0183   16.1833  -21.2303 H         1 SER         0.0606
     70 H          23.4617   17.2512  -21.1762 H         1 SER         0.0606
     71 H          23.4711   14.4486  -21.6918 H         1 SER         0.2097
     72 H          26.3340   17.6545  -25.2944 H         1 PRO         0.0728
     73 H          27.1198   19.8267  -24.9617 H         1 PRO         0.0306
     74 H          27.3091   19.5795  -23.1926 H         1 PRO         0.0306
     75 H          24.8613   20.3610  -24.7792 H         1 PRO         0.0286
     76 H          25.4518   20.9833  -23.2011 H         1 PRO         0.0286
     77 H          24.6592   19.1176  -22.0252 H         1 PRO         0.0524
     78 H          23.4261   19.2177  -23.3276 H         1 PRO         0.0524
@<TRIPOS>BOND
     1    1    2 1  
     2    2    3 1  
     3    3    4 2  
     4    3    5 am 
     5    5    6 1  
     6    6    7 1  
     7    6    9 1  
     8    7    8 2  
     9    7   16 am 
    10    9   10 1  
    11   10   11 1  
    12   11   12 1  
    13   12   13 ar 
    14   13   14 ar 
    15   13   15 ar 
    16   16   17 1  
    17   17   18 1  
    18   18   19 2  
    19   18   20 am 
    20   20   21 1  
    21   21   22 1  
    22   21   24 1  
    23   22   23 2  
    24   22   28 am 
    25   24   25 1  
    26   25   26 ar 
    27   25   27 ar 
    28   28   29 1  
    29   29   30 1  
    30   29   32 1  
    31   30   31 2  
    32   30   34 am 
    33   32   33 1  
    34   34   35 1  
    35   34   40 1  
    36   35   36 1  
    37   35   38 1  
    38   36   37 ar 
    39   36   41 ar 
    40   38   39 1  
    41   39   40 1  
    42    1   42 1  
    43    1   43 1  
    44    1   44 1  
    45    2   45 1  
    46    2   46 1  
    47    5   47 1  
    48    6   48 1  
    49    9   49 1  
    50    9   50 1  
    51   10   51 1  
    52   10   52 1  
    53   11   53 1  
    54   11   54 1  
    55   12   55 1  
    56   14   56 1  
    57   14   57 1  
    58   15   58 1  
    59   15   59 1  
    60   16   60 1  
    61   17   61 1  
    62   17   62 1  
    63   20   63 1  
    64   21   64 1  
    65   24   65 1  
    66   24   66 1  
    67   28   67 1  
    68   29   68 1  
    69   32   69 1  
    70   32   70 1  
    71   33   71 1  
    72   35   72 1  
    73   38   73 1  
    74   38   74 1  
    75   39   75 1  
    76   39   76 1  
    77   40   77 1  
    78   40   78 1  
@<TRIPOS>SUBSTRUCTURE
     1 GLY         1

