### 
### Created by X-TOOL on Mon Sep 10 21:13:18 2018
### 

@<TRIPOS>MOLECULE
4wk7_ligand
   35    36     1     0     0
SMALL
GAST_HUCK


@<TRIPOS>ATOM
      1 C7         -8.4350    5.3180   24.0190 C.2       1 3PQ         0.2543
      2 C6        -10.1970    4.5250   25.5150 C.3       1 3PQ        -0.0299
      3 N1         -7.2140    5.7270   24.4580 N.am      1 3PQ        -0.1827
      4 C5         -8.8620    4.1820   24.8950 C.3       1 3PQ         0.1556
      5 C2         -6.8000    5.0540   25.5620 C.2       1 3PQ         0.2874
      6 C16        -3.4170    0.6430   21.9340 C.ar      1 3PQ        -0.0322
      7 C21        -4.2130    2.1890   20.3020 C.ar      1 3PQ        -0.0322
      8 C17        -2.3340    0.3590   21.1250 C.ar      1 3PQ        -0.0567
      9 C20        -3.1310    1.9050   19.4980 C.ar      1 3PQ        -0.0567
     10 C13        -5.5900    1.2230   23.4880 C.3       1 3PQ         0.1590
     11 C9         -8.9320    2.9250   24.0490 C.3       1 3PQ         0.0640
     12 C15        -4.3600    1.5630   21.5200 C.ar      1 3PQ         0.0947
     13 C18        -2.1870    0.9880   19.9070 C.ar      1 3PQ         0.0285
     14 C11        -6.8590    1.6520   24.1860 C.2       1 3PQ         0.2069
     15 N4         -7.7970    4.1680   25.8690 N.am      1 3PQ        -0.2553
     16 N10        -7.6420    2.5610   23.5130 N.am      1 3PQ        -0.2833
     17 O8         -9.0740    5.7700   23.0820 O.2       1 3PQ        -0.3313
     18 O3         -5.7340    5.2270   26.1350 O.2       1 3PQ        -0.3912
     19 O12        -7.1580    1.2110   25.2850 O.2       1 3PQ        -0.3941
     20 O14        -5.4880    1.9250   22.2530 O.3       1 3PQ        -0.2973
     21 CL1        -0.8330    0.6350   18.8830 Cl        1 3PQ        -0.0810
     22 H         -10.5239    3.6980   26.1624 H         1 3PQ         0.0242
     23 H         -10.9404    4.6842   24.7201 H         1 3PQ         0.0242
     24 H         -10.0983    5.4424   26.1138 H         1 3PQ         0.0242
     25 H          -6.6788    6.4463   24.0150 H         1 3PQ         0.2259
     26 H          -3.5263    0.1453   22.8908 H         1 3PQ         0.0543
     27 H          -4.9533    2.9097   19.9740 H         1 3PQ         0.0543
     28 H          -1.5943   -0.3637   21.4501 H         1 3PQ         0.0595
     29 H          -3.0219    2.4038   18.5418 H         1 3PQ         0.0595
     30 H          -5.6207    0.1402   23.2967 H         1 3PQ         0.0859
     31 H          -4.7217    1.4591   24.1206 H         1 3PQ         0.0859
     32 H          -9.6276    3.0970   23.2144 H         1 3PQ         0.0532
     33 H          -9.3039    2.0981   24.6718 H         1 3PQ         0.0532
     34 H          -7.7885    3.5780   26.6764 H         1 3PQ         0.1840
     35 H          -7.3196    2.9671   22.6579 H         1 3PQ         0.1850
@<TRIPOS>BOND
     1    1    3 am 
     2    4    1 1  
     3    1   17 2  
     4    4    2 1  
     5    5    3 am 
     6   11    4 1  
     7    4   15 1  
     8   15    5 am 
     9    5   18 2  
    10    6    8 ar 
    11   12    6 ar 
    12    7    9 ar 
    13   12    7 ar 
    14    8   13 ar 
    15    9   13 ar 
    16   14   10 1  
    17   10   20 1  
    18   16   11 1  
    19   20   12 1  
    20   13   21 1  
    21   14   16 am 
    22   14   19 2  
    23    2   22 1  
    24    2   23 1  
    25    2   24 1  
    26    3   25 1  
    27    6   26 1  
    28    7   27 1  
    29    8   28 1  
    30    9   29 1  
    31   10   30 1  
    32   10   31 1  
    33   11   32 1  
    34   11   33 1  
    35   15   34 1  
    36   16   35 1  
@<TRIPOS>SUBSTRUCTURE
     1 3PQ         1

