### 
### Created by X-TOOL on Mon Sep 10 21:13:21 2018
### 

@<TRIPOS>MOLECULE
4wkb_ligand
   40    42     1     0     0
SMALL
GAST_HUCK


@<TRIPOS>ATOM
      1 C2         14.7240   -6.7530   19.1230 C.ar      1 TDI         0.0439
      2 C4         12.9990   -7.6870   20.3370 C.ar      1 TDI         0.0483
      3 C5         13.7960   -8.8820   20.5720 C.ar      1 TDI         0.1304
      4 C6         15.1360   -8.8840   20.0250 C.ar      1 TDI         0.1459
      5 CS5         8.7900   -9.6320   14.9250 C.3       1 TDI        -0.0181
      6 S          10.0120   -8.4120   15.2510 S.3       1 TDI        -0.1636
      7 C5'        10.1510   -8.4870   17.0080 C.3       1 TDI         0.0036
      8 C4'         9.0800   -7.6910   17.7560 C.3       1 TDI         0.0391
      9 C1'         9.1320   -8.0240   19.2540 C.3       1 TDI        -0.0248
     10 N1'         9.6520   -6.7900   19.9080 N.4       1 TDI         0.2442
     11 C10        10.5180   -7.0180   21.0860 C.3       1 TDI        -0.0117
     12 C9         11.7070   -7.9270   20.9560 C.2       1 TDI         0.0166
     13 C8         11.8230   -9.1690   21.5470 C.2       1 TDI         0.0326
     14 N7         13.0450   -9.7110   21.3090 N.pl3     1 TDI        -0.2768
     15 N6         15.9460   -9.9510   20.2070 N.pl3     1 TDI        -0.3157
     16 N1         15.5430   -7.8240   19.3210 N.ar      1 TDI        -0.2741
     17 N3         13.4710   -6.6490   19.6010 N.ar      1 TDI        -0.3132
     18 C2'        10.2960   -5.9770   18.8370 C.3       1 TDI        -0.0040
     19 C3'         9.3270   -6.1950   17.6890 C.3       1 TDI         0.1032
     20 O3'         8.0700   -5.5400   17.9470 O.3       1 TDI        -0.3860
     21 H1         15.1099   -5.9257   18.5385 H         1 TDI         0.0956
     22 H2          8.6064   -9.6868   13.8418 H         1 TDI         0.0340
     23 H3          7.8569   -9.3636   15.4419 H         1 TDI         0.0340
     24 H4          9.1418  -10.6093   15.2871 H         1 TDI         0.0340
     25 H5         11.1370   -8.0915   17.2933 H         1 TDI         0.0382
     26 H6         10.0755   -9.5404   17.3154 H         1 TDI         0.0382
     27 H7          8.0917   -7.9326   17.3378 H         1 TDI         0.0388
     28 H8          9.8075   -8.8724   19.4378 H         1 TDI         0.0818
     29 H9          8.1275   -8.2667   19.6308 H         1 TDI         0.0818
     30 H10         8.8560   -6.2721   20.2461 H         1 TDI         0.2042
     31 H11         9.8795   -7.4354   21.8785 H         1 TDI         0.0901
     32 H12        10.8979   -6.0349   21.4009 H         1 TDI         0.0901
     33 H13        11.0378   -9.6508   22.1277 H         1 TDI         0.0886
     34 H14        13.3525  -10.6335   21.6487 H         1 TDI         0.2266
     35 H15        16.8987   -9.9471   19.8155 H         1 TDI         0.1805
     36 H16        15.6104  -10.7679   20.7371 H         1 TDI         0.1805
     37 H17        11.3013   -6.3516   18.5942 H         1 TDI         0.0840
     38 H18        10.3582   -4.9152   19.1175 H         1 TDI         0.0840
     39 H19         9.7492   -5.8749   16.7250 H         1 TDI         0.0652
     40 H20         8.2159   -4.6071   18.0516 H         1 TDI         0.2100
@<TRIPOS>BOND
     1    1   16 ar 
     2   17    1 ar 
     3    2    3 ar 
     4   12    2 1  
     5    2   17 ar 
     6    3    4 ar 
     7    3   14 1  
     8    4   15 1  
     9    4   16 ar 
    10    6    5 1  
    11    7    6 1  
    12    8    7 1  
    13    9    8 1  
    14    8   19 1  
    15   10    9 1  
    16   11   10 1  
    17   10   18 1  
    18   11   12 1  
    19   12   13 2  
    20   13   14 1  
    21   18   19 1  
    22   19   20 1  
    23    1   21 1  
    24    5   22 1  
    25    5   23 1  
    26    5   24 1  
    27    7   25 1  
    28    7   26 1  
    29    8   27 1  
    30    9   28 1  
    31    9   29 1  
    32   10   30 1  
    33   11   31 1  
    34   11   32 1  
    35   13   33 1  
    36   14   34 1  
    37   15   35 1  
    38   15   36 1  
    39   18   37 1  
    40   18   38 1  
    41   19   39 1  
    42   20   40 1  
@<TRIPOS>SUBSTRUCTURE
     1 TDI         1

