### 
### Created by X-TOOL on Mon Sep 10 21:13:21 2018
### 

@<TRIPOS>MOLECULE
4wkc_ligand
   49    51     1     0     0
SMALL
GAST_HUCK


@<TRIPOS>ATOM
      1 C2        -24.8840    2.6730  -21.8620 C.ar      1 BIG         0.0439
      2 C5        -22.3190    2.7200  -22.8710 C.ar      1 BIG         0.1304
      3 C4        -23.0080    1.4960  -22.5170 C.ar      1 BIG         0.0483
      4 C8        -20.9670    1.0310  -23.3400 C.2       1 BIG         0.0326
      5 O3'       -25.0960   -3.6270  -24.6570 O.3       1 BIG        -0.3860
      6 C3'       -25.1540   -2.1810  -24.6120 C.3       1 BIG         0.1032
      7 C4'       -24.2660   -1.5530  -25.6690 C.3       1 BIG         0.0391
      8 C5'       -24.6300   -0.1050  -26.0100 C.3       1 BIG         0.0039
      9 S5'       -26.1760    0.0960  -26.8720 S.3       1 BIG        -0.1602
     10 C20       -25.6440    0.5420  -28.4870 C.3       1 BIG        -0.0063
     11 C21       -25.0320   -0.6310  -29.2010 C.3       1 BIG        -0.0442
     12 C22       -24.8630   -0.2900  -30.6750 C.3       1 BIG        -0.0552
     13 C23       -26.1850   -0.2900  -31.4080 C.3       1 BIG        -0.0653
     14 C1'       -22.8730   -1.5950  -25.0160 C.3       1 BIG        -0.0248
     15 N1'       -23.1240   -1.8440  -23.5660 N.4       1 BIG         0.2442
     16 C2'       -24.5720   -1.6650  -23.3170 C.3       1 BIG        -0.0040
     17 C10       -22.2740   -1.0640  -22.6400 C.3       1 BIG        -0.0117
     18 N7        -21.0980    2.3910  -23.3430 N.pl3     1 BIG        -0.2768
     19 C6        -23.0620    3.9470  -22.6620 C.ar      1 BIG         0.1459
     20 N6        -22.5020    5.1340  -22.9530 N.pl3     1 BIG        -0.3157
     21 N3        -24.2810    1.4760  -22.0190 N.ar      1 BIG        -0.3132
     22 C9        -22.0990    0.4090  -22.8440 C.2       1 BIG         0.0166
     23 N1        -24.3290    3.8640  -22.1730 N.ar      1 BIG        -0.2741
     24 H1        -25.8890    2.6788  -21.4559 H         1 BIG         0.0956
     25 H2        -20.0804    0.5015  -23.6856 H         1 BIG         0.0886
     26 H3        -25.6619   -3.9866  -23.9840 H         1 BIG         0.2100
     27 H4        -26.1972   -1.8538  -24.7335 H         1 BIG         0.0652
     28 H5        -24.2901   -2.1530  -26.5906 H         1 BIG         0.0388
     29 H6        -23.8302    0.3088  -26.6417 H         1 BIG         0.0382
     30 H7        -24.6863    0.4637  -25.0701 H         1 BIG         0.0382
     31 H8        -24.8961    1.3449  -28.4095 H         1 BIG         0.0376
     32 H9        -26.5093    0.9012  -29.0634 H         1 BIG         0.0376
     33 H10       -25.6896   -1.5069  -29.0995 H         1 BIG         0.0273
     34 H11       -24.0495   -0.8572  -28.7612 H         1 BIG         0.0273
     35 H12       -24.1992   -1.0346  -31.1386 H         1 BIG         0.0263
     36 H13       -24.4095    0.7086  -30.7594 H         1 BIG         0.0263
     37 H14       -26.0176   -0.0397  -32.4660 H         1 BIG         0.0230
     38 H15       -26.8548    0.4565  -30.9562 H         1 BIG         0.0230
     39 H16       -26.6446   -1.2867  -31.3354 H         1 BIG         0.0230
     40 H17       -22.3522   -0.6365  -25.1576 H         1 BIG         0.0818
     41 H18       -22.2697   -2.4074  -25.4474 H         1 BIG         0.0818
     42 H19       -22.9066   -2.8128  -23.3921 H         1 BIG         0.2042
     43 H20       -24.9104   -2.2608  -22.4565 H         1 BIG         0.0840
     44 H21       -24.8258   -0.6073  -23.1533 H         1 BIG         0.0840
     45 H22       -21.2697   -1.5111  -22.6782 H         1 BIG         0.0901
     46 H23       -22.6966   -1.1969  -21.6331 H         1 BIG         0.0901
     47 H24       -20.3792    3.0591  -23.6558 H         1 BIG         0.2266
     48 H25       -23.0324    6.0042  -22.8034 H         1 BIG         0.1805
     49 H26       -21.5425    5.1733  -23.3255 H         1 BIG         0.1805
@<TRIPOS>BOND
     1   21    1 ar 
     2    1   23 ar 
     3    3    2 ar 
     4   18    2 1  
     5    2   19 ar 
     6    3   21 ar 
     7   22    3 1  
     8    4   18 1  
     9   22    4 2  
    10    6    5 1  
    11    6    7 1  
    12   16    6 1  
    13    7    8 1  
    14   14    7 1  
    15    8    9 1  
    16    9   10 1  
    17   10   11 1  
    18   11   12 1  
    19   12   13 1  
    20   15   14 1  
    21   15   16 1  
    22   17   15 1  
    23   17   22 1  
    24   19   20 1  
    25   19   23 ar 
    26    1   24 1  
    27    4   25 1  
    28    5   26 1  
    29    6   27 1  
    30    7   28 1  
    31    8   29 1  
    32    8   30 1  
    33   10   31 1  
    34   10   32 1  
    35   11   33 1  
    36   11   34 1  
    37   12   35 1  
    38   12   36 1  
    39   13   37 1  
    40   13   38 1  
    41   13   39 1  
    42   14   40 1  
    43   14   41 1  
    44   15   42 1  
    45   16   43 1  
    46   16   44 1  
    47   17   45 1  
    48   17   46 1  
    49   18   47 1  
    50   20   48 1  
    51   20   49 1  
@<TRIPOS>SUBSTRUCTURE
     1 BIG         1

