### 
### Created by X-TOOL on Mon Sep 10 21:13:18 2018
### 

@<TRIPOS>MOLECULE
4wke_ligand
   37    40     1     0     0
SMALL
GAST_HUCK


@<TRIPOS>ATOM
      1 C7         -8.9900    2.9950   24.4590 C.3       1 3PU         0.0375
      2 C6         -4.6850    0.8260   23.1280 C.2       1 3PU        -0.0220
      3 C1         -3.2580    2.1280   19.5020 C.ar      1 3PU        -0.0570
      4 C5         -2.7720    0.6310   21.3350 C.ar      1 3PU        -0.0530
      5 C4        -11.4460    5.0720   28.0770 C.2       1 3PU         0.0687
      6 C3        -12.0620    4.7960   26.8770 C.2       1 3PU         0.0608
      7 C2         -4.4210    2.5860   20.0550 C.ar      1 3PU        -0.0275
      8 C8         -2.4610    1.1900   20.1070 C.ar      1 3PU         0.0278
      9 C9         -4.7100    2.0240   21.2680 C.ar      1 3PU         0.1287
     10 C10        -3.9530    1.0760   21.9300 C.ar      1 3PU        -0.0001
     11 C11        -5.8100    1.6260   23.1070 C.2       1 3PU         0.1913
     12 C12        -9.9760    4.4900   26.2430 C.2       1 3PU         0.1215
     13 C13        -8.5150    5.3800   24.5130 C.2       1 3PU         0.2096
     14 C14        -6.6570    5.0070   25.7390 C.2       1 3PU         0.2765
     15 C15        -6.8980    1.8070   24.0240 C.2       1 3PU         0.2371
     16 C16        -8.8060    4.1880   25.3780 C.3       1 3PU         0.1667
     17 N17       -11.2280    4.4670   25.8380 N.2       1 3PU        -0.2498
     18 N18        -7.2220    5.7430   24.7350 N.am      1 3PU        -0.1940
     19 N19        -7.5940    4.1070   26.1510 N.am      1 3PU        -0.2921
     20 N20        -7.8110    2.7670   23.6470 N.am      1 3PU        -0.2926
     21 O21        -9.3100    5.9120   23.7540 O.2       1 3PU        -0.3599
     22 O22        -5.5240    5.1500   26.1650 O.2       1 3PU        -0.3922
     23 O23        -6.9940    1.1720   25.0600 O.2       1 3PU        -0.3827
     24 O24        -5.8220    2.3560   21.9620 O.3       1 3PU        -0.2414
     25 S25        -9.7440    4.9150   27.8940 S.3       1 3PU         0.0298
     26 CL2        -1.0510    0.7800   19.1930 Cl        1 3PU        -0.0797
     27 H          -9.8493    3.1813   23.7981 H         1 3PU         0.0412
     28 H          -9.1835    2.1000   25.0685 H         1 3PU         0.0412
     29 H          -4.4067    0.1294   23.9174 H         1 3PU         0.0460
     30 H          -2.9514    2.5244   18.5408 H         1 3PU         0.0569
     31 H          -2.1353   -0.1089   21.8064 H         1 3PU         0.0575
     32 H         -11.9573    5.3469   28.9984 H         1 3PU         0.1255
     33 H         -13.1439    4.8363   26.7596 H         1 3PU         0.0857
     34 H          -5.0544    3.3248   19.5774 H         1 3PU         0.0568
     35 H          -6.7444    6.4595   24.2265 H         1 3PU         0.2246
     36 H          -7.4555    3.4639   26.9041 H         1 3PU         0.1696
     37 H          -7.6612    3.3042   22.8170 H         1 3PU         0.1829
@<TRIPOS>BOND
     1    1   16 1  
     2   20    1 1  
     3    2   10 1  
     4   11    2 2  
     5    7    3 ar 
     6    3    8 ar 
     7    4    8 ar 
     8   10    4 ar 
     9    5    6 2  
    10   25    5 1  
    11   17    6 1  
    12    9    7 ar 
    13    8   26 1  
    14    9   10 ar 
    15   24    9 1  
    16   15   11 1  
    17   11   24 1  
    18   16   12 1  
    19   12   17 2  
    20   12   25 1  
    21   16   13 1  
    22   13   18 am 
    23   13   21 2  
    24   18   14 am 
    25   14   19 am 
    26   14   22 2  
    27   15   20 am 
    28   15   23 2  
    29   16   19 1  
    30    1   27 1  
    31    1   28 1  
    32    2   29 1  
    33    3   30 1  
    34    4   31 1  
    35    5   32 1  
    36    6   33 1  
    37    7   34 1  
    38   18   35 1  
    39   19   36 1  
    40   20   37 1  
@<TRIPOS>SUBSTRUCTURE
     1 3PU         1

