### 
### Created by X-TOOL on Mon Sep 10 21:13:18 2018
### 

@<TRIPOS>MOLECULE
4wki_ligand
   41    44     1     0     0
SMALL
GAST_HUCK


@<TRIPOS>ATOM
      1 C4        -12.3310    4.7470   26.6310 C.2       1 3PW         0.0499
      2 C5        -11.7400    5.8310   27.2360 C.2       1 3PW         0.0927
      3 C6         -2.9740    0.8700   21.2020 C.ar      1 3PW        -0.0530
      4 C7         -4.8790    1.0570   23.0010 C.2       1 3PW        -0.0220
      5 C8         -9.1960    3.2560   24.2280 C.3       1 3PW         0.0379
      6 C10        -4.9200    2.2520   21.1350 C.ar      1 3PW         0.1287
      7 C13       -10.3080    4.7910   25.8910 C.2       1 3PW         0.1396
      8 C15        -6.8740    5.1760   25.5930 C.2       1 3PW         0.2765
      9 C17        -9.0610    4.4610   25.1470 C.3       1 3PW         0.1745
     10 C1         -9.5050    6.8620   27.1550 C.3       1 3PW         0.0557
     11 C2         -3.4740    2.3590   19.3590 C.ar      1 3PW        -0.0570
     12 C3         -4.6390    2.8120   19.9190 C.ar      1 3PW        -0.0275
     13 C9         -2.6690    1.4280   19.9710 C.ar      1 3PW         0.0278
     14 C11        -4.1550    1.3110   21.7990 C.ar      1 3PW        -0.0001
     15 C12        -6.0110    1.8460   22.9760 C.2       1 3PW         0.1913
     16 C14        -8.6700    5.6150   24.2750 C.2       1 3PW         0.2098
     17 C16        -7.1010    2.0400   23.8830 C.2       1 3PW         0.2371
     18 N18       -11.4380    4.1160   25.8010 N.2       1 3PW        -0.2673
     19 N19        -7.3670    5.9140   24.5630 N.am      1 3PW        -0.1940
     20 N20        -7.9000    4.3720   26.0150 N.am      1 3PW        -0.2918
     21 N21        -7.9930    3.0100   23.4640 N.am      1 3PW        -0.2927
     22 N22       -10.4630    5.8440   26.7560 N.pl3     1 3PW        -0.2264
     23 O23        -9.3980    6.1500   23.4550 O.2       1 3PW        -0.3602
     24 O24        -5.7330    5.2490   26.0300 O.2       1 3PW        -0.3922
     25 O25        -7.2030    1.4230   24.9350 O.2       1 3PW        -0.3827
     26 O26        -6.0310    2.5770   21.8330 O.3       1 3PW        -0.2414
     27 CL2        -1.2520    1.0100   19.0770 Cl        1 3PW        -0.0797
     28 H         -13.3619    4.4333   26.7881 H         1 3PW         0.0759
     29 H         -12.1916    6.5259   27.9425 H         1 3PW         0.1332
     30 H          -2.3326    0.1341   21.6734 H         1 3PW         0.0575
     31 H          -4.5915    0.3672   23.7931 H         1 3PW         0.0460
     32 H         -10.0275    3.4347   23.5304 H         1 3PW         0.0411
     33 H          -9.4145    2.3679   24.8392 H         1 3PW         0.0411
     34 H          -9.9790    7.5519   27.8687 H         1 3PW         0.0603
     35 H          -9.1744    7.4222   26.2680 H         1 3PW         0.0603
     36 H          -8.6367    6.3823   27.6303 H         1 3PW         0.0603
     37 H          -3.1746    2.7507   18.3936 H         1 3PW         0.0569
     38 H          -5.2789    3.5461   19.4428 H         1 3PW         0.0568
     39 H          -6.8342    6.6013   24.0693 H         1 3PW         0.2246
     40 H          -7.8547    3.7906   26.8274 H         1 3PW         0.1695
     41 H          -7.8070    3.5392   22.6361 H         1 3PW         0.1829
@<TRIPOS>BOND
     1    2    1 2  
     2   18    1 1  
     3   22    2 1  
     4    3   13 ar 
     5   14    3 ar 
     6    4   14 1  
     7   15    4 2  
     8    5    9 1  
     9   21    5 1  
    10    6   12 ar 
    11    6   14 ar 
    12   26    6 1  
    13    9    7 1  
    14    7   18 2  
    15    7   22 1  
    16    8   19 am 
    17   20    8 am 
    18    8   24 2  
    19    9   16 1  
    20    9   20 1  
    21   22   10 1  
    22   12   11 ar 
    23   11   13 ar 
    24   13   27 1  
    25   17   15 1  
    26   15   26 1  
    27   16   19 am 
    28   16   23 2  
    29   17   21 am 
    30   17   25 2  
    31    1   28 1  
    32    2   29 1  
    33    3   30 1  
    34    4   31 1  
    35    5   32 1  
    36    5   33 1  
    37   10   34 1  
    38   10   35 1  
    39   10   36 1  
    40   11   37 1  
    41   12   38 1  
    42   19   39 1  
    43   20   40 1  
    44   21   41 1  
@<TRIPOS>SUBSTRUCTURE
     1 3PW         1

