### 
### Created by X-TOOL on Mon Sep 10 21:13:21 2018
### 

@<TRIPOS>MOLECULE
4wkn_ligand
   40    42     1     0     0
SMALL
GAST_HUCK


@<TRIPOS>ATOM
      1 C2          8.0250   48.7900  -37.0790 C.ar      1 TDI         0.0439
      2 C4          9.5770   48.9810  -35.3500 C.ar      1 TDI         0.0483
      3 C5         10.0410   50.1780  -35.8700 C.ar      1 TDI         0.1304
      4 C6          9.4460   50.6650  -37.0370 C.ar      1 TDI         0.1459
      5 CS5        14.2060   44.2620  -37.8620 C.3       1 TDI        -0.0181
      6 S          12.4850   44.6540  -37.9410 S.3       1 TDI        -0.1636
      7 C5'        12.1830   45.8050  -36.6490 C.3       1 TDI         0.0036
      8 C4'        12.1030   45.1310  -35.2750 C.3       1 TDI         0.0391
      9 C1'        12.0830   46.1990  -34.1730 C.3       1 TDI        -0.0248
     10 N1'        10.7200   46.1700  -33.5910 N.4       1 TDI         0.2442
     11 C10        10.1780   47.4860  -33.2460 C.3       1 TDI        -0.0117
     12 C9         10.3150   48.6520  -34.2070 C.2       1 TDI         0.0166
     13 C8         11.2110   49.7100  -34.0520 C.2       1 TDI         0.0326
     14 N7         11.0210   50.6080  -35.0590 N.pl3     1 TDI        -0.2768
     15 N6          9.8550   51.8410  -37.5920 N.pl3     1 TDI        -0.3157
     16 N1          8.4430   49.9560  -37.6180 N.ar      1 TDI        -0.2741
     17 N3          8.5760   48.2890  -35.9550 N.ar      1 TDI        -0.3132
     18 C2'         9.8630   45.4430  -34.5710 C.3       1 TDI        -0.0040
     19 C3'        10.8080   44.3650  -35.0770 C.3       1 TDI         0.1032
     20 O3'        11.0000   43.3570  -34.0740 O.3       1 TDI        -0.3860
     21 H1          7.2248   48.2422  -37.5633 H         1 TDI         0.0956
     22 H2         14.4543   43.5399  -38.6538 H         1 TDI         0.0340
     23 H3         14.4375   43.8235  -36.8801 H         1 TDI         0.0340
     24 H4         14.7977   45.1785  -38.0030 H         1 TDI         0.0340
     25 H5         11.2300   46.3173  -36.8475 H         1 TDI         0.0382
     26 H6         12.9994   46.5421  -36.6342 H         1 TDI         0.0382
     27 H7         12.9650   44.4588  -35.1520 H         1 TDI         0.0388
     28 H8         12.2940   47.1907  -34.5996 H         1 TDI         0.0818
     29 H9         12.8316   45.9648  -33.4018 H         1 TDI         0.0818
     30 H10        10.7555   45.6347  -32.7376 H         1 TDI         0.2042
     31 H11        10.6655   47.7916  -32.3085 H         1 TDI         0.0901
     32 H12         9.1010   47.3471  -33.0709 H         1 TDI         0.0901
     33 H13        11.9454   49.8033  -33.2533 H         1 TDI         0.0886
     34 H14        11.5491   51.4840  -35.1798 H         1 TDI         0.2266
     35 H15         9.4072   52.1876  -38.4524 H         1 TDI         0.1805
     36 H16        10.6118   52.3829  -37.1510 H         1 TDI         0.1805
     37 H17         9.5385   46.1054  -35.3870 H         1 TDI         0.0840
     38 H18         8.9808   45.0040  -34.0822 H         1 TDI         0.0840
     39 H19        10.4486   43.9125  -36.0130 H         1 TDI         0.0652
     40 H20        10.1634   42.9606  -33.8608 H         1 TDI         0.2100
@<TRIPOS>BOND
     1    1   16 ar 
     2   17    1 ar 
     3    2    3 ar 
     4   12    2 1  
     5    2   17 ar 
     6    3    4 ar 
     7    3   14 1  
     8    4   15 1  
     9    4   16 ar 
    10    6    5 1  
    11    7    6 1  
    12    8    7 1  
    13    9    8 1  
    14    8   19 1  
    15   10    9 1  
    16   11   10 1  
    17   10   18 1  
    18   11   12 1  
    19   12   13 2  
    20   13   14 1  
    21   18   19 1  
    22   19   20 1  
    23    1   21 1  
    24    5   22 1  
    25    5   23 1  
    26    5   24 1  
    27    7   25 1  
    28    7   26 1  
    29    8   27 1  
    30    9   28 1  
    31    9   29 1  
    32   10   30 1  
    33   11   31 1  
    34   11   32 1  
    35   13   33 1  
    36   14   34 1  
    37   15   35 1  
    38   15   36 1  
    39   18   37 1  
    40   18   38 1  
    41   19   39 1  
    42   20   40 1  
@<TRIPOS>SUBSTRUCTURE
     1 TDI         1

