### 
### Created by X-TOOL on Mon Sep 10 21:13:21 2018
### 

@<TRIPOS>MOLECULE
4wko_ligand
   50    52     1     0     0
SMALL
GAST_HUCK


@<TRIPOS>ATOM
      1 C         -39.7660  -43.6330   17.4330 C.3       1 HCE         0.0442
      2 OXT       -39.9670  -42.2300   17.2750 O.3       1 HCE        -0.3950
      3 CA        -38.5790  -44.0430   16.5820 C.3       1 HCE        -0.0290
      4 CB        -38.8410  -43.9300   15.0770 C.3       1 HCE        -0.0419
      5 CG        -37.7190  -44.6750   14.3600 C.3       1 HCE        -0.0062
      6 S5'       -37.9440  -44.8530   12.6160 S.3       1 HCE        -0.1602
      7 C5'       -36.6250  -45.9320   12.1770 C.3       1 HCE         0.0039
      8 C4'       -35.2700  -45.2190   12.1260 C.3       1 HCE         0.0391
      9 C1'       -34.1620  -46.2560   12.0980 C.3       1 HCE        -0.0248
     10 C3'       -35.0770  -44.4360   10.8450 C.3       1 HCE         0.1032
     11 O3'       -34.0400  -43.4560   10.9550 O.3       1 HCE        -0.3860
     12 C2'       -34.6000  -45.4910    9.8710 C.3       1 HCE        -0.0040
     13 N1'       -33.6150  -46.2050   10.7180 N.4       1 HCE         0.2442
     14 C10       -33.2430  -47.5050   10.1520 C.3       1 HCE        -0.0117
     15 C9        -34.1880  -48.6710   10.2950 C.2       1 HCE         0.0166
     16 C8        -34.0580  -49.7450   11.1860 C.2       1 HCE         0.0326
     17 N7        -35.0720  -50.6460   11.0070 N.pl3     1 HCE        -0.2768
     18 C5        -35.8960  -50.2440   10.0250 C.ar      1 HCE         0.1304
     19 C4        -35.3920  -48.9830    9.5070 C.ar      1 HCE         0.0483
     20 N3        -36.0130  -48.3160    8.5040 N.ar      1 HCE        -0.3132
     21 C2        -37.1390  -48.8450    7.9660 C.ar      1 HCE         0.0439
     22 N1        -37.6930  -50.0160    8.3940 N.ar      1 HCE        -0.2741
     23 C6        -37.1310  -50.7500    9.3910 C.ar      1 HCE         0.1459
     24 N6        -37.6800  -51.9240    9.8130 N.pl3     1 HCE        -0.3157
     25 H1        -40.6642  -44.1767   17.1050 H         1 HCE         0.0557
     26 H2        -39.5634  -43.8631   18.4894 H         1 HCE         0.0557
     27 H3        -40.7082  -41.9560   17.8024 H         1 HCE         0.2094
     28 H4        -38.3278  -45.0884   16.8145 H         1 HCE         0.0287
     29 H5        -37.7270  -43.3957   16.8370 H         1 HCE         0.0287
     30 H6        -38.8431  -42.8725   14.7743 H         1 HCE         0.0274
     31 H7        -39.8117  -44.3843   14.8294 H         1 HCE         0.0274
     32 H8        -37.6405  -45.6804   14.7993 H         1 HCE         0.0376
     33 H9        -36.7808  -44.1264   14.5297 H         1 HCE         0.0376
     34 H10       -36.8352  -46.3595   11.1855 H         1 HCE         0.0382
     35 H11       -36.5694  -46.7406   12.9207 H         1 HCE         0.0382
     36 H12       -35.1712  -44.5572   12.9990 H         1 HCE         0.0388
     37 H13       -34.5642  -47.2562   12.3166 H         1 HCE         0.0818
     38 H14       -33.3814  -46.0063   12.8317 H         1 HCE         0.0818
     39 H15       -36.0165  -43.9642   10.5215 H         1 HCE         0.0652
     40 H16       -33.9558  -42.9918   10.1304 H         1 HCE         0.2100
     41 H17       -34.1263  -45.0430    8.9851 H         1 HCE         0.0840
     42 H18       -35.4195  -46.1526    9.5536 H         1 HCE         0.0840
     43 H19       -32.7721  -45.6531   10.7480 H         1 HCE         0.2042
     44 H20       -32.2948  -47.8010   10.6245 H         1 HCE         0.0901
     45 H21       -33.0836  -47.3518    9.0745 H         1 HCE         0.0901
     46 H22       -33.2599  -49.8482   11.9197 H         1 HCE         0.0886
     47 H23       -35.1877  -51.5133   11.5504 H         1 HCE         0.2266
     48 H24       -37.6231  -48.3115    7.1560 H         1 HCE         0.0956
     49 H25       -38.5409  -52.2779    9.3719 H         1 HCE         0.1805
     50 H26       -37.2340  -52.4573   10.5730 H         1 HCE         0.1805
@<TRIPOS>BOND
     1    1    2 1  
     2    1    3 1  
     3    3    4 1  
     4    4    5 1  
     5    5    6 1  
     6    6    7 1  
     7    7    8 1  
     8    8    9 1  
     9    8   10 1  
    10    9   13 1  
    11   10   11 1  
    12   10   12 1  
    13   12   13 1  
    14   13   14 1  
    15   14   15 1  
    16   15   16 2  
    17   15   19 1  
    18   16   17 1  
    19   17   18 1  
    20   18   19 ar 
    21   18   23 ar 
    22   19   20 ar 
    23   20   21 ar 
    24   21   22 ar 
    25   22   23 ar 
    26   23   24 1  
    27    1   25 1  
    28    1   26 1  
    29    2   27 1  
    30    3   28 1  
    31    3   29 1  
    32    4   30 1  
    33    4   31 1  
    34    5   32 1  
    35    5   33 1  
    36    7   34 1  
    37    7   35 1  
    38    8   36 1  
    39    9   37 1  
    40    9   38 1  
    41   10   39 1  
    42   11   40 1  
    43   12   41 1  
    44   12   42 1  
    45   13   43 1  
    46   14   44 1  
    47   14   45 1  
    48   16   46 1  
    49   17   47 1  
    50   21   48 1  
    51   24   49 1  
    52   24   50 1  
@<TRIPOS>SUBSTRUCTURE
     1 HCE         1

