### 
### Created by X-TOOL on Mon Sep 10 21:13:23 2018
### 

@<TRIPOS>MOLECULE
4wkp_ligand
   54    56     1     0     0
SMALL
GAST_HUCK


@<TRIPOS>ATOM
      1 C5'        38.0090   74.0000   22.7500 C.3       1 3QA        -0.0338
      2 C4'        37.0560   73.1830   23.6190 C.3       1 3QA         0.0309
      3 C3'        35.7020   73.8410   23.8060 C.3       1 3QA         0.1025
      4 O3'        34.6550   72.8720   23.8910 O.3       1 3QA        -0.3861
      5 C2'        35.8130   74.5080   25.1440 C.3       1 3QA        -0.0040
      6 C1'        37.6140   73.0080   25.0300 C.3       1 3QA        -0.0255
      7 C8         39.4480   74.4090   27.8180 C.2       1 3QA         0.0326
      8 N7         40.3040   75.4670   27.8790 N.pl3     1 3QA        -0.2768
      9 C5         39.6800   76.5810   27.4730 C.ar      1 3QA         0.1304
     10 C6         40.0480   77.9860   27.3030 C.ar      1 3QA         0.1459
     11 N1         39.1020   78.8460   26.8430 N.ar      1 3QA        -0.2741
     12 C2         37.8660   78.4130   26.5510 C.ar      1 3QA         0.0439
     13 N3         37.4420   77.1510   26.6710 N.ar      1 3QA        -0.3132
     14 C4         38.3170   76.2270   27.1400 C.ar      1 3QA         0.0483
     15 N1'        36.5250   73.4640   25.9080 N.4       1 3QA         0.2442
     16 C6'        37.5720   73.8990   21.2940 C.3       1 3QA        -0.0057
     17 S6'        38.9170   74.1740   20.1890 S.3       1 3QA        -0.1585
     18 C20        39.9820   72.7620   20.1870 C.3       1 3QA         0.0171
     19 C21        39.5860   71.8140   19.0640 C.3       1 3QA         0.0567
     20 O22        39.8150   72.4250   17.7790 O.3       1 3QA        -0.3767
     21 C10        36.9810   73.8820   27.2340 C.3       1 3QA        -0.0117
     22 C9         38.1860   74.7840   27.3540 C.2       1 3QA         0.0166
     23 N6         41.2970   78.3590   27.6070 N.pl3     1 3QA        -0.3157
     24 C23        40.3790   71.5270   16.8120 C.3       1 3QA         0.0708
     25 C24        39.3660   70.4480   16.4190 C.3       1 3QA         0.0676
     26 O25        38.9700   70.6230   15.0590 O.3       1 3QA        -0.3927
     27 H1         39.0310   73.6070   22.8553 H         1 3QA         0.0278
     28 H2         37.9862   75.0526   23.0686 H         1 3QA         0.0278
     29 H3         36.9202   72.1985   23.1476 H         1 3QA         0.0380
     30 H4         35.4947   74.5617   23.0012 H         1 3QA         0.0651
     31 H5         33.8231   73.3157   24.0075 H         1 3QA         0.2100
     32 H6         34.8235   74.7221   25.5742 H         1 3QA         0.0840
     33 H7         36.3970   75.4384   25.0866 H         1 3QA         0.0840
     34 H8         38.5141   73.6240   25.1728 H         1 3QA         0.0818
     35 H9         37.8568   71.9531   25.2254 H         1 3QA         0.0818
     36 H10        39.7164   73.3914   28.0980 H         1 3QA         0.0886
     37 H11        41.2845   75.4179   28.1907 H         1 3QA         0.2266
     38 H12        37.1540   79.1456   26.1886 H         1 3QA         0.0956
     39 H13        35.8906   72.6941   26.0521 H         1 3QA         0.2042
     40 H14        36.7936   74.6522   21.1024 H         1 3QA         0.0376
     41 H15        37.1623   72.8942   21.1137 H         1 3QA         0.0376
     42 H16        39.8970   72.2400   21.1515 H         1 3QA         0.0399
     43 H17        41.0214   73.0897   20.0377 H         1 3QA         0.0399
     44 H18        38.5189   71.5650   19.1607 H         1 3QA         0.0568
     45 H19        40.1853   70.8947   19.1389 H         1 3QA         0.0568
     46 H20        37.2096   72.9655   27.7977 H         1 3QA         0.0901
     47 H21        36.1399   74.4060   27.7115 H         1 3QA         0.0901
     48 H22        41.5821   79.3425   27.4963 H         1 3QA         0.1805
     49 H23        41.9730   77.6625   27.9516 H         1 3QA         0.1805
     50 H24        41.2698   71.0461   17.2423 H         1 3QA         0.0583
     51 H25        40.6664   72.0959   15.9155 H         1 3QA         0.0583
     52 H26        38.4817   70.5245   17.0687 H         1 3QA         0.0580
     53 H27        39.8251   69.4558   16.5400 H         1 3QA         0.0580
     54 H28        38.3421   69.9499   14.8240 H         1 3QA         0.2095
@<TRIPOS>BOND
     1    2    1 1  
     2    1   16 1  
     3    2    3 1  
     4    6    2 1  
     5    3    4 1  
     6    5    3 1  
     7   15    5 1  
     8   15    6 1  
     9    7    8 1  
    10   22    7 2  
    11    9    8 1  
    12    9   10 ar 
    13   14    9 ar 
    14   10   11 ar 
    15   10   23 1  
    16   12   11 ar 
    17   13   12 ar 
    18   14   13 ar 
    19   22   14 1  
    20   21   15 1  
    21   16   17 1  
    22   17   18 1  
    23   18   19 1  
    24   19   20 1  
    25   20   24 1  
    26   21   22 1  
    27   24   25 1  
    28   25   26 1  
    29    1   27 1  
    30    1   28 1  
    31    2   29 1  
    32    3   30 1  
    33    4   31 1  
    34    5   32 1  
    35    5   33 1  
    36    6   34 1  
    37    6   35 1  
    38    7   36 1  
    39    8   37 1  
    40   12   38 1  
    41   15   39 1  
    42   16   40 1  
    43   16   41 1  
    44   18   42 1  
    45   18   43 1  
    46   19   44 1  
    47   19   45 1  
    48   21   46 1  
    49   21   47 1  
    50   23   48 1  
    51   23   49 1  
    52   24   50 1  
    53   24   51 1  
    54   25   52 1  
    55   25   53 1  
    56   26   54 1  
@<TRIPOS>SUBSTRUCTURE
     1 3QA         1

