### 
### Created by X-TOOL on Mon Sep 10 21:13:18 2018
### 

@<TRIPOS>MOLECULE
4wlb_ligand
   64    66     1     0     0
SMALL
GAST_HUCK


@<TRIPOS>ATOM
      1 C4        -23.9550    5.5260   -5.9280 C.3       1 3QQ         0.0340
      2 C6        -21.6750    5.5060   -5.1260 C.3       1 3QQ         0.0614
      3 C11       -20.5100    3.3780   -2.1940 C.ar      1 3QQ        -0.0349
      4 C7        -21.1010    5.0740   -3.7880 C.ar      1 3QQ        -0.0282
      5 C8        -20.6110    6.0350   -2.9190 C.ar      1 3QQ        -0.0605
      6 C9        -20.0770    5.6740   -1.6970 C.ar      1 3QQ        -0.0349
      7 C10       -20.0240    4.3430   -1.3230 C.ar      1 3QQ         0.1248
      8 C12       -21.0480    3.7410   -3.4200 C.ar      1 3QQ        -0.0605
      9 C3        -25.2110    5.1690   -3.7880 C.3       1 3QQ        -0.0612
     10 C1        -25.8640    6.9780   -5.3520 C.3       1 3QQ        -0.0612
     11 C2        -24.6790    6.2100   -4.7680 C.3       1 3QQ        -0.0294
     12 N5        -22.8340    4.6830   -5.4940 N.am      1 3QQ        -0.2237
     13 F13       -19.4890    3.9950   -0.1210 F         1 3QQ        -0.1893
     14 S14       -22.4410    3.6900   -6.7790 S.o2      1 3QQ         0.0723
     15 O15       -21.1120    3.2330   -6.5590 O.2       1 3QQ        -0.1506
     16 O16       -23.5790    2.8460   -6.9000 O.2       1 3QQ        -0.1506
     17 C17       -22.3750    4.5910   -8.2910 C.ar      1 3QQ         0.1219
     18 C18       -21.1460    5.0150   -8.7790 C.ar      1 3QQ        -0.0274
     19 C19       -21.1220    5.6900   -9.9900 C.ar      1 3QQ        -0.0143
     20 C20       -22.3050    5.9260  -10.6680 C.ar      1 3QQ         0.1114
     21 N21       -23.4620    5.5040  -10.1680 N.ar      1 3QQ        -0.2835
     22 C22       -23.5220    4.8520   -9.0210 C.ar      1 3QQ         0.0225
     23 N23       -22.2740    6.6170  -11.8790 N.pl3     1 3QQ        -0.3050
     24 C24       -23.4620    6.5780  -12.7390 C.3       1 3QQ         0.0409
     25 C25       -24.3920    7.7610  -12.4530 C.3       1 3QQ        -0.0130
     26 C26       -23.7660    9.1150  -12.8420 C.3       1 3QQ         0.0313
     27 N27       -23.0540    9.0950  -14.1400 N.am      1 3QQ        -0.2385
     28 C28       -22.3270    7.8870  -14.5680 C.3       1 3QQ         0.0313
     29 C29       -23.0570    6.5870  -14.2140 C.3       1 3QQ        -0.0130
     30 S30       -22.8910   10.4870  -15.0450 S.o2      1 3QQ         0.0385
     31 O31       -22.6990   10.1120  -16.4060 O.2       1 3QQ        -0.1556
     32 O32       -23.9230   11.3990  -14.6840 O.2       1 3QQ        -0.1556
     33 C33       -21.2610   11.1020  -14.4820 C.3       1 3QQ         0.0734
     34 H         -23.5673    6.3020   -6.6044 H         1 3QQ         0.0482
     35 H         -24.6772    4.8962   -6.4682 H         1 3QQ         0.0482
     36 H         -20.9002    5.4020   -5.8999 H         1 3QQ         0.0633
     37 H         -21.9881    6.5584   -5.0598 H         1 3QQ         0.0633
     38 H         -20.4688    2.3316   -1.9139 H         1 3QQ         0.0587
     39 H         -20.6469    7.0812   -3.2007 H         1 3QQ         0.0548
     40 H         -19.6975    6.4376   -1.0277 H         1 3QQ         0.0587
     41 H         -21.4276    2.9790   -4.0911 H         1 3QQ         0.0548
     42 H         -25.7286    5.6756   -2.9601 H         1 3QQ         0.0233
     43 H         -24.3729    4.5783   -3.3897 H         1 3QQ         0.0233
     44 H         -25.9151    4.5025   -4.3075 H         1 3QQ         0.0233
     45 H         -25.4970    7.7339   -6.0619 H         1 3QQ         0.0233
     46 H         -26.4152    7.4747   -4.5399 H         1 3QQ         0.0233
     47 H         -26.5328    6.2783   -5.8746 H         1 3QQ         0.0233
     48 H         -23.9947    6.8971   -4.2487 H         1 3QQ         0.0311
     49 H         -20.2317    4.8238   -8.2290 H         1 3QQ         0.0719
     50 H         -20.1802    6.0315  -10.4040 H         1 3QQ         0.0611
     51 H         -24.4823    4.5167   -8.6461 H         1 3QQ         0.0801
     52 H         -21.4355    7.1432  -12.1634 H         1 3QQ         0.1805
     53 H         -24.0087    5.6465  -12.5308 H         1 3QQ         0.0554
     54 H         -24.6228    7.7757  -11.3776 H         1 3QQ         0.0303
     55 H         -25.3212    7.6251  -13.0257 H         1 3QQ         0.0303
     56 H         -23.0499    9.4036  -12.0585 H         1 3QQ         0.0478
     57 H         -24.5691    9.8645  -12.8989 H         1 3QQ         0.0478
     58 H         -21.3421    7.8795  -14.0782 H         1 3QQ         0.0478
     59 H         -22.1936    7.9272  -15.6591 H         1 3QQ         0.0478
     60 H         -23.9595    6.4988  -14.8367 H         1 3QQ         0.0303
     61 H         -22.3909    5.7340  -14.4107 H         1 3QQ         0.0303
     62 H         -21.0201   12.0371  -15.0088 H         1 3QQ         0.0482
     63 H         -20.4895   10.3489  -14.7004 H         1 3QQ         0.0482
     64 H         -21.2941   11.2895  -13.3986 H         1 3QQ         0.0482
@<TRIPOS>BOND
     1    1   11 1  
     2   12    1 1  
     3    4    2 1  
     4    2   12 1  
     5    3    7 ar 
     6    8    3 ar 
     7    4    5 ar 
     8    4    8 ar 
     9    5    6 ar 
    10    6    7 ar 
    11    7   13 1  
    12   11    9 1  
    13   11   10 1  
    14   12   14 am 
    15   14   15 2  
    16   14   16 2  
    17   14   17 1  
    18   17   18 ar 
    19   17   22 ar 
    20   18   19 ar 
    21   19   20 ar 
    22   20   21 ar 
    23   20   23 1  
    24   21   22 ar 
    25   23   24 1  
    26   24   25 1  
    27   24   29 1  
    28   25   26 1  
    29   26   27 1  
    30   27   28 1  
    31   27   30 am 
    32   28   29 1  
    33   30   31 2  
    34   30   32 2  
    35   30   33 1  
    36    1   34 1  
    37    1   35 1  
    38    2   36 1  
    39    2   37 1  
    40    3   38 1  
    41    5   39 1  
    42    6   40 1  
    43    8   41 1  
    44    9   42 1  
    45    9   43 1  
    46    9   44 1  
    47   10   45 1  
    48   10   46 1  
    49   10   47 1  
    50   11   48 1  
    51   18   49 1  
    52   19   50 1  
    53   22   51 1  
    54   23   52 1  
    55   24   53 1  
    56   25   54 1  
    57   25   55 1  
    58   26   56 1  
    59   26   57 1  
    60   28   58 1  
    61   28   59 1  
    62   29   60 1  
    63   29   61 1  
    64   33   62 1  
    65   33   63 1  
    66   33   64 1  
@<TRIPOS>SUBSTRUCTURE
     1 3QQ         1

