### 
### Created by X-TOOL on Mon Sep 10 21:13:17 2018
### 

@<TRIPOS>MOLECULE
4wm9_ligand
   30    30     1     0     0
SMALL
GAST_HUCK


@<TRIPOS>ATOM
      1 OAC        29.7880   -1.2800   14.6990 O.2       1 NXL        -0.3828
      2 CAN        29.7200   -0.1800   13.8710 C.2       1 NXL         0.1743
      3 N          30.5750    0.8060   13.8150 N.am      1 NXL        -0.2479
      4 CAJ        30.4230    1.9530   12.8650 C.3       1 NXL         0.0807
      5 CA         31.7560    0.8940   14.7010 C.3       1 NXL         0.1340
      6 C          31.4290    1.8250   15.8510 C.2       1 NXL         0.1996
      7 O          30.3180    2.3180   16.0070 O.2       1 NXL        -0.3947
      8 NAA        32.3790    2.1000   16.7070 N.am      1 NXL        -0.2989
      9 CB         33.0060    1.3700   13.9690 C.3       1 NXL        -0.0069
     10 CAH        32.8760    2.1790   12.9060 C.3       1 NXL        -0.0025
     11 CAO        31.6650    2.1090   11.9840 C.3       1 NXL         0.0316
     12 NAK        31.7900    1.0630   10.9740 N.4       1 NXL         0.4138
     13 OAL        31.7590   -0.3090   11.3880 O.3       1 NXL        -0.2010
     14 SAR        32.0580   -1.7860   10.8090 S.o2      1 NXL        -0.0327
     15 OAD        31.8900   -2.6590   11.9580 O.co2     1 NXL        -0.4578
     16 OAE        33.4300   -2.0570   10.3420 O.co2     1 NXL        -0.4578
     17 OAG        31.1330   -2.1520    9.7290 O.co2     1 NXL        -0.4578
     18 H1         28.8675   -0.1277   13.1954 H         1 NXL         0.1547
     19 H2         30.2726    2.8783   13.4405 H         1 NXL         0.0583
     20 H3         29.5478    1.7740   12.2231 H         1 NXL         0.0583
     21 H4         31.9607   -0.1086   15.1047 H         1 NXL         0.0804
     22 H5         32.1964    2.7109   17.4774 H         1 NXL         0.1815
     23 H6         33.2879    1.6994   16.5911 H         1 NXL         0.1815
     24 H7         33.5385    0.4711   13.6250 H         1 NXL         0.0314
     25 H8         33.6252    1.9039   14.7049 H         1 NXL         0.0314
     26 H9         33.7569    1.9993   12.2721 H         1 NXL         0.0323
     27 H10        32.9080    3.2073   13.2953 H         1 NXL         0.0323
     28 H11        31.5851    3.0667   11.4488 H         1 NXL         0.0882
     29 H12        32.6693    1.2099   10.5036 H         1 NXL         0.2382
     30 H13        31.0336    1.1915   10.3202 H         1 NXL         0.2382
@<TRIPOS>BOND
     1    1    2 2  
     2    2    3 am 
     3    3    4 1  
     4    3    5 1  
     5    4   11 1  
     6    5    6 1  
     7    5    9 1  
     8    6    7 2  
     9    6    8 am 
    10    9   10 1  
    11   10   11 1  
    12   11   12 1  
    13   12   13 1  
    14   13   14 1  
    15   14   15 ar 
    16   14   16 ar 
    17   14   17 ar 
    18    2   18 1  
    19    4   19 1  
    20    4   20 1  
    21    5   21 1  
    22    8   22 1  
    23    8   23 1  
    24    9   24 1  
    25    9   25 1  
    26   10   26 1  
    27   10   27 1  
    28   11   28 1  
    29   12   29 1  
    30   12   30 1  
@<TRIPOS>SUBSTRUCTURE
     1 NXL         1

