### 
### Created by X-TOOL on Mon Sep 10 21:13:19 2018
### 

@<TRIPOS>MOLECULE
4wmc_ligand
   30    30     1     0     0
SMALL
GAST_HUCK


@<TRIPOS>ATOM
      1 OAC        42.2230   35.8110   54.9110 O.2       1 NXL        -0.3828
      2 CAN        42.0580   36.3180   53.8050 C.2       1 NXL         0.1743
      3 N          42.7950   35.9040   52.7790 N.am      1 NXL        -0.2479
      4 CAJ        42.4630   36.1560   51.3780 C.3       1 NXL         0.0807
      5 CA         43.9770   35.0750   53.0710 C.3       1 NXL         0.1340
      6 C          45.2900   35.5780   52.5200 C.2       1 NXL         0.1996
      7 O          45.4710   36.7660   52.3550 O.2       1 NXL        -0.3947
      8 NAA        46.2540   34.7050   52.2160 N.am      1 NXL        -0.2989
      9 CB         43.6670   33.7270   52.4330 C.3       1 NXL        -0.0069
     10 CAH        43.2480   33.8360   50.9590 C.3       1 NXL        -0.0025
     11 CAO        42.0870   34.8180   50.7540 C.3       1 NXL         0.0316
     12 NAK        40.7950   34.2830   51.2620 N.4       1 NXL         0.4138
     13 OAL        40.8420   33.7490   52.5190 O.3       1 NXL        -0.2010
     14 SAR        39.4340   33.2060   53.0210 S.o2      1 NXL        -0.0327
     15 OAD        39.3610   33.0720   54.4540 O.co2     1 NXL        -0.4578
     16 OAE        38.4200   34.1520   52.6740 O.co2     1 NXL        -0.4578
     17 OAG        39.1970   31.7730   52.3590 O.co2     1 NXL        -0.4578
     18 H1         41.3138   37.1007   53.6656 H         1 NXL         0.1547
     19 H2         43.3318   36.5838   50.8563 H         1 NXL         0.0583
     20 H3         41.6153   36.8538   51.3116 H         1 NXL         0.0583
     21 H4         44.0796   34.9703   54.1612 H         1 NXL         0.0804
     22 H5         47.1262   35.0304   51.8507 H         1 NXL         0.1815
     23 H6         46.1036   33.7260   52.3537 H         1 NXL         0.1815
     24 H7         42.8479   33.2545   52.9950 H         1 NXL         0.0314
     25 H8         44.5659   33.0961   52.4949 H         1 NXL         0.0314
     26 H9         42.9369   32.8420   50.6054 H         1 NXL         0.0323
     27 H10        44.1110   34.1810   50.3706 H         1 NXL         0.0323
     28 H11        41.9663   34.9755   49.6721 H         1 NXL         0.0882
     29 H12        40.4846   33.5630   50.6285 H         1 NXL         0.2382
     30 H13        40.1258   35.0368   51.2680 H         1 NXL         0.2382
@<TRIPOS>BOND
     1    1    2 2  
     2    2    3 am 
     3    3    4 1  
     4    3    5 1  
     5    4   11 1  
     6    5    6 1  
     7    5    9 1  
     8    6    7 2  
     9    6    8 am 
    10    9   10 1  
    11   10   11 1  
    12   11   12 1  
    13   12   13 1  
    14   13   14 1  
    15   14   15 ar 
    16   14   16 ar 
    17   14   17 ar 
    18    2   18 1  
    19    4   19 1  
    20    4   20 1  
    21    5   21 1  
    22    8   22 1  
    23    8   23 1  
    24    9   24 1  
    25    9   25 1  
    26   10   26 1  
    27   10   27 1  
    28   11   28 1  
    29   12   29 1  
    30   12   30 1  
@<TRIPOS>SUBSTRUCTURE
     1 NXL         1

