### 
### Created by X-TOOL on Mon Sep 10 21:13:21 2018
### 

@<TRIPOS>MOLECULE
4wmu_ligand
   44    46     1     0     0
SMALL
GAST_HUCK


@<TRIPOS>ATOM
      1 OAC        16.2800  190.3830   33.6500 O.co2     1 19H        -0.5634
      2 CAQ        16.4200  191.6130   33.3890 C.2       1 19H         0.0764
      3 OAD        17.3110  191.9690   32.5810 O.co2     1 19H        -0.5634
      4 CAW        15.5420  192.6930   34.0460 C.2       1 19H         0.0880
      5 NAO        15.0420  193.7880   33.4300 N.pl3     1 19H        -0.2794
      6 CAY        14.3180  194.5460   34.3310 C.ar      1 19H         0.0634
      7 CAK        13.6110  195.7500   34.1880 C.ar      1 19H        -0.0287
      8 CAT        12.9430  196.3140   35.2840 C.ar      1 19H         0.0268
      9 CL2        12.0610  197.8250   35.1240 Cl        1 19H        -0.0785
     10 CAG        12.9840  195.6750   36.5220 C.ar      1 19H        -0.0636
     11 CAH        13.6770  194.4770   36.6630 C.ar      1 19H        -0.0715
     12 CAZ        14.3570  193.9080   35.5630 C.ar      1 19H        -0.0143
     13 CAX        15.1440  192.7350   35.3940 C.2       1 19H        -0.0278
     14 CAN        15.4950  191.6740   36.4600 C.3       1 19H        -0.0291
     15 CAL        14.5530  190.4820   36.3890 C.3       1 19H        -0.0194
     16 CAM        13.1290  190.8670   36.8230 C.3       1 19H         0.0715
     17 OAP        13.2570  191.4410   38.1450 O.3       1 19H        -0.3210
     18 CAU        12.0340  191.6560   38.8340 C.ar      1 19H         0.0784
     19 CAI        10.8310  191.6830   38.1250 C.ar      1 19H        -0.0385
     20 CAR         9.6540  191.8940   38.8250 C.ar      1 19H        -0.0474
     21 CAA         8.3130  191.9170   38.0480 C.3       1 19H        -0.0345
     22 CAV         9.6810  192.0800   40.2130 C.ar      1 19H         0.0295
     23 CL1         8.2070  192.3420   41.1020 Cl        1 19H        -0.0937
     24 CAS        10.8850  192.0560   40.9100 C.ar      1 19H        -0.0474
     25 CAB        10.9330  192.2650   42.4470 C.3       1 19H        -0.0345
     26 CAJ        12.0670  191.8440   40.2150 C.ar      1 19H        -0.0385
     27 H1         15.1802  194.0225   32.4366 H         1 19H         0.2209
     28 H2         13.5813  196.2465   33.2249 H         1 19H         0.0550
     29 H3         12.4762  196.1113   37.3745 H         1 19H         0.0520
     30 H4         13.6954  193.9762   37.6242 H         1 19H         0.0554
     31 H5         15.4194  192.1307   37.4578 H         1 19H         0.0369
     32 H6         16.5251  191.3263   36.2930 H         1 19H         0.0369
     33 H7         14.9278  189.6893   37.0533 H         1 19H         0.0307
     34 H8         14.5236  190.1099   35.3543 H         1 19H         0.0307
     35 H9         12.4847  189.9760   36.8539 H         1 19H         0.0615
     36 H10        12.7029  191.6037   36.1260 H         1 19H         0.0615
     37 H11        10.8184  191.5419   37.0503 H         1 19H         0.0424
     38 H12         8.5066  191.7530   36.9777 H         1 19H         0.0390
     39 H13         7.8253  192.8931   38.1870 H         1 19H         0.0390
     40 H14         7.6554  191.1212   38.4278 H         1 19H         0.0390
     41 H15        11.9758  192.2083   42.7923 H         1 19H         0.0390
     42 H16        10.3397  191.4822   42.9422 H         1 19H         0.0390
     43 H17        10.5176  193.2526   42.6959 H         1 19H         0.0390
     44 H18        13.0129  191.8246   40.7440 H         1 19H         0.0424
@<TRIPOS>BOND
     1    1    2 ar 
     2    2    3 ar 
     3    2    4 1  
     4    4    5 1  
     5    4   13 2  
     6    5    6 1  
     7    6    7 ar 
     8    6   12 ar 
     9    7    8 ar 
    10    8    9 1  
    11    8   10 ar 
    12   10   11 ar 
    13   11   12 ar 
    14   12   13 1  
    15   13   14 1  
    16   14   15 1  
    17   15   16 1  
    18   16   17 1  
    19   17   18 1  
    20   18   19 ar 
    21   18   26 ar 
    22   19   20 ar 
    23   20   21 1  
    24   20   22 ar 
    25   22   23 1  
    26   22   24 ar 
    27   24   25 1  
    28   24   26 ar 
    29    5   27 1  
    30    7   28 1  
    31   10   29 1  
    32   11   30 1  
    33   14   31 1  
    34   14   32 1  
    35   15   33 1  
    36   15   34 1  
    37   16   35 1  
    38   16   36 1  
    39   19   37 1  
    40   21   38 1  
    41   21   39 1  
    42   21   40 1  
    43   25   41 1  
    44   25   42 1  
    45   25   43 1  
    46   26   44 1  
@<TRIPOS>SUBSTRUCTURE
     1 19H         1

