### 
### Created by X-TOOL on Mon Sep 10 21:13:23 2018
### 

@<TRIPOS>MOLECULE
4wmv_ligand
   17    18     1     0     0
SMALL
GAST_HUCK


@<TRIPOS>ATOM
      1 C13       113.8430  193.2530   35.7090 C.2       1 3R4         0.0548
      2 O01       116.8690  192.3560   34.0880 O.co2     1 3R4        -0.5603
      3 C02       115.6510  192.0810   34.2560 C.2       1 3R4         0.0736
      4 O03       115.2480  190.8890   34.1280 O.co2     1 3R4        -0.5603
      5 C04       114.6810  193.1940   34.6080 C.2       1 3R4         0.0786
      6 S05       114.4000  194.6550   33.7280 S.3       1 3R4        -0.0284
      7 C06       113.2020  195.3120   34.7920 C.ar      1 3R4         0.0390
      8 C07       112.4600  196.4940   34.7780 C.ar      1 3R4        -0.0146
      9 C08       111.5460  196.7520   35.7970 C.ar      1 3R4         0.1260
     10 F09       110.8340  197.8900   35.7810 F         1 3R4        -0.1865
     11 C10       111.3780  195.8280   36.8300 C.ar      1 3R4        -0.0354
     12 C11       112.1150  194.6530   36.8470 C.ar      1 3R4        -0.0643
     13 C12       113.0340  194.3960   35.8160 C.ar      1 3R4        -0.0082
     14 CL14      113.7900  191.9730   36.8920 Cl        1 3R4        -0.0833
     15 H1        112.5948  197.2101   33.9754 H         1 3R4         0.0556
     16 H2        110.6675  196.0300   37.6234 H         1 3R4         0.0555
     17 H3        111.9827  193.9377   37.6507 H         1 3R4         0.0579
@<TRIPOS>BOND
     1    5    1 2  
     2    1   13 1  
     3    1   14 1  
     4    3    2 ar 
     5    3    4 ar 
     6    3    5 1  
     7    5    6 1  
     8    6    7 1  
     9    7    8 ar 
    10    7   13 ar 
    11    8    9 ar 
    12    9   10 1  
    13    9   11 ar 
    14   11   12 ar 
    15   12   13 ar 
    16    8   15 1  
    17   11   16 1  
    18   12   17 1  
@<TRIPOS>SUBSTRUCTURE
     1 3R4         1

