### 
### Created by X-TOOL on Mon Sep 10 21:13:23 2018
### 

@<TRIPOS>MOLECULE
4wmx_ligand
   33    34     1     0     0
SMALL
GAST_HUCK


@<TRIPOS>ATOM
      1 C10        10.8890  192.2890   37.9830 C.ar      1 3R7        -0.0356
      2 C11        11.3990  192.4330   36.7000 C.ar      1 3R7         0.0776
      3 O01        10.2780  192.8920   33.2820 O.co2     1 3R7        -0.5663
      4 C02        11.0900  192.7880   34.2350 C.2       1 3R7         0.0531
      5 O03        12.3360  192.8210   34.0330 O.co2     1 3R7        -0.5663
      6 C04        10.5330  192.6330   35.6380 C.ar      1 3R7         0.0261
      7 C05         9.1600  192.6840   35.8430 C.ar      1 3R7        -0.0626
      8 C06         8.6480  192.5430   37.1250 C.ar      1 3R7        -0.0683
      9 C07         9.5120  192.3430   38.1960 C.ar      1 3R7        -0.0394
     10 C08         8.9300  192.1870   39.6020 C.2       1 3R7        -0.0639
     11 C09         9.7170  192.0300   40.6520 C.2       1 3R7        -0.0969
     12 N12        12.8310  192.3820   36.4530 N.am      1 3R7        -0.1840
     13 S13        13.8020  193.5700   37.2160 S.o2      1 3R7         0.0903
     14 O14        13.6590  193.4600   38.6580 O.2       1 3R7        -0.1444
     15 O15        15.2270  193.4250   36.9460 O.2       1 3R7        -0.1444
     16 C16        13.2210  195.2230   36.7620 C.ar      1 3R7         0.1143
     17 C17        13.6990  195.8280   35.6150 C.ar      1 3R7        -0.0345
     18 C18        13.2380  197.0940   35.2890 C.ar      1 3R7        -0.0599
     19 C19        12.3150  197.7320   36.1070 C.ar      1 3R7        -0.0616
     20 C20        11.8490  197.1190   37.2510 C.ar      1 3R7        -0.0599
     21 C21        12.3110  195.8610   37.5850 C.ar      1 3R7        -0.0345
     22 H1         11.5612  192.1346   38.8193 H         1 3R7         0.0486
     23 H2          8.4904  192.8335   35.0038 H         1 3R7         0.0607
     24 H3          7.5778  192.5886   37.2911 H         1 3R7         0.0490
     25 H4          7.8499  192.2056   39.7399 H         1 3R7         0.0618
     26 H5          9.2842  191.9205   41.6453 H         1 3R7         0.0551
     27 H6         10.7983  192.0101   40.5239 H         1 3R7         0.0551
     28 H7         13.2327  191.6824   35.8621 H         1 3R7         0.2181
     29 H8         14.4201  195.3226   34.9829 H         1 3R7         0.0637
     30 H9         13.5988  197.5870   34.3936 H         1 3R7         0.0618
     31 H10        11.9575  198.7210   35.8439 H         1 3R7         0.0618
     32 H11        11.1255  197.6207   37.8834 H         1 3R7         0.0618
     33 H12        11.9616  195.3755   38.4890 H         1 3R7         0.0637
@<TRIPOS>BOND
     1    2    1 ar 
     2    1    9 ar 
     3    6    2 ar 
     4    2   12 1  
     5    4    3 ar 
     6    4    5 ar 
     7    4    6 1  
     8    6    7 ar 
     9    7    8 ar 
    10    8    9 ar 
    11    9   10 1  
    12   10   11 2  
    13   12   13 am 
    14   13   14 2  
    15   13   15 2  
    16   13   16 1  
    17   16   17 ar 
    18   16   21 ar 
    19   17   18 ar 
    20   18   19 ar 
    21   19   20 ar 
    22   20   21 ar 
    23    1   22 1  
    24    7   23 1  
    25    8   24 1  
    26   10   25 1  
    27   11   26 1  
    28   11   27 1  
    29   12   28 1  
    30   17   29 1  
    31   18   30 1  
    32   19   31 1  
    33   20   32 1  
    34   21   33 1  
@<TRIPOS>SUBSTRUCTURE
     1 3R7         1

