### 
### Created by X-TOOL on Mon Sep 10 21:13:20 2018
### 

@<TRIPOS>MOLECULE
4wn1_ligand
   54    58     1     0     0
SMALL
GAST_HUCK


@<TRIPOS>ATOM
      1 C31        27.0660    5.1970   54.1440 C.ar      1 3SJ        -0.0569
      2 C30        27.3490    4.5280   55.3110 C.ar      1 3SJ        -0.0570
      3 C32        25.7760    5.5620   53.8530 C.ar      1 3SJ        -0.0472
      4 C25        23.5160    5.6390   54.4110 C.ar      1 3SJ        -0.0358
      5 C19        21.8590    3.2500   58.2460 C.ar      1 3SJ        -0.0566
      6 C20        20.6250    4.9540   57.1090 C.ar      1 3SJ        -0.0566
      7 C29        26.3320    4.2260   56.1820 C.ar      1 3SJ        -0.0412
      8 C21        20.7350    2.8860   58.9540 C.ar      1 3SJ        -0.0278
      9 C17        19.5000    4.6200   57.8100 C.ar      1 3SJ        -0.0278
     10 C26        22.5350    5.3260   55.3090 C.ar      1 3SJ        -0.0277
     11 C4         14.6780    1.3910   59.6910 C.2       1 3SJ         0.0448
     12 C27        24.7840    5.2530   54.7370 C.ar      1 3SJ         0.0048
     13 C18        21.8000    4.2780   57.3240 C.ar      1 3SJ        -0.0080
     14 C3         15.9380    1.8920   59.9440 C.2       1 3SJ        -0.0112
     15 C28        25.0350    4.5850   55.9170 C.ar      1 3SJ         0.0413
     16 C16        19.5750    3.5880   58.7050 C.ar      1 3SJ         0.0986
     17 C22        22.8690    4.6480   56.4610 C.ar      1 3SJ         0.0433
     18 C2         16.5460    1.9790   58.6650 C.2       1 3SJ         0.0427
     19 C12        17.6730    3.0440   61.2510 C.2       1 3SJ        -0.0713
     20 C11        18.3740    3.3750   62.3380 C.2       1 3SJ        -0.0129
     21 C9         16.1080    1.7110   62.3610 C.2       1 3SJ         0.0690
     22 C8         16.5240    2.2020   61.1980 C.2       1 3SJ        -0.0113
     23 C10        17.8860    2.8170   63.6060 C.2       1 3SJ         0.1977
     24 C7         13.5120    0.7120   57.5470 C.3       1 3SJ         0.0554
     25 C14        16.2610    1.4610   64.7550 C.3       1 3SJ         0.0589
     26 C1         17.8790    2.4370   58.3170 C.3       1 3SJ         0.1086
     27 N24        24.0910    4.2570   56.7940 N.ar      1 3SJ        -0.2971
     28 N6         15.7440    1.5750   57.6730 N.2       1 3SJ        -0.2260
     29 N5         14.6200    1.2300   58.3260 N.pl3     1 3SJ        -0.2235
     30 N13        16.7590    2.0230   63.5320 N.am      1 3SJ        -0.2129
     31 O23        18.4910    3.0930   64.6270 O.2       1 3SJ        -0.4219
     32 O15        18.4030    3.2960   59.3240 O.3       1 3SJ        -0.3034
     33 H          27.8647    5.4369   53.4515 H         1 3SJ         0.0633
     34 H          28.3685    4.2409   55.5419 H         1 3SJ         0.0649
     35 H          25.5481    6.0887   52.9334 H         1 3SJ         0.0651
     36 H          23.2989    6.1658   53.4888 H         1 3SJ         0.0763
     37 H          22.7942    2.7278   58.4127 H         1 3SJ         0.0626
     38 H          20.5890    5.7559   56.3805 H         1 3SJ         0.0626
     39 H          26.5586    3.6928   57.0982 H         1 3SJ         0.0633
     40 H          20.7615    2.0797   59.6781 H         1 3SJ         0.0556
     41 H          18.5717    5.1594   57.6605 H         1 3SJ         0.0556
     42 H          21.5060    5.6078   55.1174 H         1 3SJ         0.0689
     43 H          13.8964    1.1702   60.4165 H         1 3SJ         0.0908
     44 H          18.0151    3.4613   60.3051 H         1 3SJ         0.0642
     45 H          19.2517    4.0177   62.2877 H         1 3SJ         0.0416
     46 H          15.2405    1.0532   62.3872 H         1 3SJ         0.1197
     47 H          13.7822    0.7113   56.4807 H         1 3SJ         0.0595
     48 H          12.6272    1.3472   57.7006 H         1 3SJ         0.0595
     49 H          13.2862   -0.3154   57.8687 H         1 3SJ         0.0595
     50 H          15.3666    0.8566   64.5433 H         1 3SJ         0.0609
     51 H          15.9994    2.2715   65.4512 H         1 3SJ         0.0609
     52 H          17.0351    0.8241   65.2078 H         1 3SJ         0.0609
     53 H          17.8336    2.9854   57.3645 H         1 3SJ         0.0766
     54 H          18.5414    1.5657   58.2073 H         1 3SJ         0.0766
@<TRIPOS>BOND
     1    2    1 ar 
     2    3    1 ar 
     3    7    2 ar 
     4   12    3 ar 
     5   10    4 ar 
     6    4   12 ar 
     7    8    5 ar 
     8    5   13 ar 
     9    9    6 ar 
    10    6   13 ar 
    11   15    7 ar 
    12   16    8 ar 
    13   16    9 ar 
    14   17   10 ar 
    15   14   11 2  
    16   11   29 1  
    17   15   12 ar 
    18   13   17 1  
    19   18   14 1  
    20   14   22 1  
    21   27   15 ar 
    22   32   16 1  
    23   17   27 ar 
    24   26   18 1  
    25   18   28 2  
    26   19   20 2  
    27   22   19 1  
    28   20   23 1  
    29   22   21 2  
    30   21   30 1  
    31   30   23 am 
    32   23   31 2  
    33   29   24 1  
    34   30   25 1  
    35   26   32 1  
    36   28   29 1  
    37    1   33 1  
    38    2   34 1  
    39    3   35 1  
    40    4   36 1  
    41    5   37 1  
    42    6   38 1  
    43    7   39 1  
    44    8   40 1  
    45    9   41 1  
    46   10   42 1  
    47   11   43 1  
    48   19   44 1  
    49   20   45 1  
    50   21   46 1  
    51   24   47 1  
    52   24   48 1  
    53   24   49 1  
    54   25   50 1  
    55   25   51 1  
    56   25   52 1  
    57   26   53 1  
    58   26   54 1  
@<TRIPOS>SUBSTRUCTURE
     1 3SJ         1

