### 
### Created by X-TOOL on Mon Sep 10 21:13:20 2018
### 

@<TRIPOS>MOLECULE
4wn5_ligand
   65    64     1     0     0
SMALL
GAST_HUCK


@<TRIPOS>ATOM
      1 C17         7.8640  -47.6000  -10.0570 C.3       1 MVC        -0.0532
      2 C9          0.9800  -50.8650  -13.8290 C.3       1 MVC        -0.0515
      3 C8         -0.4270  -50.2390  -13.6190 C.3       1 MVC        -0.0529
      4 C16         7.3430  -48.8160  -10.8020 C.3       1 MVC        -0.0515
      5 C10         2.1000  -49.8370  -14.0400 C.3       1 MVC        -0.0464
      6 C7         -0.9210  -49.4600  -14.8570 C.3       1 MVC        -0.0530
      7 C24        -7.0630  -44.6340  -10.8190 C.3       1 MVC         0.1048
      8 C15         6.5610  -48.4310  -12.0370 C.3       1 MVC        -0.0464
      9 C11         3.4920  -50.4540  -14.2210 C.3       1 MVC        -0.0365
     10 C6         -2.3880  -48.9870  -14.7600 C.3       1 MVC        -0.0529
     11 C14         6.2130  -49.6250  -12.9280 C.3       1 MVC        -0.0365
     12 C12         4.0060  -51.0010  -12.8750 C.2       1 MVC        -0.0987
     13 C5         -2.6070  -48.0300  -13.5670 C.3       1 MVC        -0.0509
     14 C13         5.1950  -50.6000  -12.3140 C.2       1 MVC        -0.0987
     15 C4         -4.0410  -47.5430  -13.4370 C.3       1 MVC        -0.0348
     16 C3         -4.2020  -46.6220  -12.2390 C.3       1 MVC         0.0487
     17 C21        -8.0640  -42.8400   -9.3670 C.3       1 MVC         0.0726
     18 C22        -6.8000  -43.4060   -9.9700 C.3       1 MVC         0.1058
     19 O19        -6.5820  -46.5930  -12.6410 O.2       1 MVC        -0.3704
     20 C1         -5.6380  -46.1880  -12.0090 C.2       1 MVC         0.2338
     21 O25        -5.7530  -45.1500  -11.0860 O.3       1 MVC        -0.2742
     22 O23        -6.1430  -42.4360  -10.7650 O.3       1 MVC        -0.3869
     23 O20        -8.9140  -42.4040  -10.4100 O.3       1 MVC        -0.3924
     24 C18         8.5080  -47.9040   -8.7320 C.3       1 MVC        -0.0559
     25 C19         9.0870  -46.6680   -8.0920 C.3       1 MVC        -0.0653
     26 H1          7.0188  -46.9188   -9.8791 H         1 MVC         0.0265
     27 H2          8.6093  -47.1011  -10.6939 H         1 MVC         0.0265
     28 H3          0.9390  -51.5172  -14.7139 H         1 MVC         0.0267
     29 H4          1.2262  -51.4663  -12.9414 H         1 MVC         0.0267
     30 H5         -0.3815  -49.5489  -12.7636 H         1 MVC         0.0265
     31 H6         -1.1426  -51.0456  -13.4017 H         1 MVC         0.0265
     32 H7          6.6870  -49.3897  -10.1308 H         1 MVC         0.0267
     33 H8          8.1967  -49.4410  -11.1028 H         1 MVC         0.0267
     34 H9          2.1283  -49.1726  -13.1638 H         1 MVC         0.0285
     35 H10         1.8637  -49.2487  -14.9389 H         1 MVC         0.0285
     36 H11        -0.8262  -50.1133  -15.7368 H         1 MVC         0.0265
     37 H12        -0.2806  -48.5751  -14.9866 H         1 MVC         0.0265
     38 H13        -7.5754  -44.3622  -11.7537 H         1 MVC         0.0640
     39 H14        -7.6692  -45.3687  -10.2688 H         1 MVC         0.0640
     40 H15         7.1620  -47.7207  -12.6238 H         1 MVC         0.0285
     41 H16         5.6254  -47.9464  -11.7212 H         1 MVC         0.0285
     42 H17         4.1861  -49.6847  -14.5903 H         1 MVC         0.0388
     43 H18         3.4341  -51.2759  -14.9498 H         1 MVC         0.0388
     44 H19        -3.0375  -49.8659  -14.6347 H         1 MVC         0.0265
     45 H20        -2.6550  -48.4632  -15.6897 H         1 MVC         0.0265
     46 H21         7.1393  -50.1806  -13.1360 H         1 MVC         0.0388
     47 H22         5.7962  -49.2409  -13.8707 H         1 MVC         0.0388
     48 H23         3.4016  -51.7364  -12.3460 H         1 MVC         0.0450
     49 H24        -1.9526  -47.1555  -13.6972 H         1 MVC         0.0267
     50 H25        -2.3333  -48.5583  -12.6418 H         1 MVC         0.0267
     51 H26         5.4405  -51.0142  -11.3372 H         1 MVC         0.0450
     52 H27        -4.7051  -48.4112  -13.3139 H         1 MVC         0.0291
     53 H28        -4.3183  -46.9958  -14.3500 H         1 MVC         0.0291
     54 H29        -3.5872  -45.7246  -12.4025 H         1 MVC         0.0518
     55 H30        -3.8482  -47.1504  -11.3414 H         1 MVC         0.0518
     56 H31        -7.8137  -41.9901   -8.7151 H         1 MVC         0.0584
     57 H32        -8.5720  -43.6173   -8.7773 H         1 MVC         0.0584
     58 H33        -6.1321  -43.6939   -9.1447 H         1 MVC         0.0643
     59 H34        -5.9168  -41.6870  -10.2262 H         1 MVC         0.2100
     60 H35        -8.4720  -41.7339  -10.9181 H         1 MVC         0.2095
     61 H36         9.3150  -48.6350   -8.8881 H         1 MVC         0.0263
     62 H37         7.7509  -48.3319   -8.0584 H         1 MVC         0.0263
     63 H38         9.5463  -46.9348   -7.1287 H         1 MVC         0.0230
     64 H39         8.2866  -45.9322   -7.9252 H         1 MVC         0.0230
     65 H40         9.8507  -46.2352   -8.7549 H         1 MVC         0.0230
@<TRIPOS>BOND
     1    4    1 1  
     2    1   24 1  
     3    3    2 1  
     4    2    5 1  
     5    6    3 1  
     6    8    4 1  
     7    5    9 1  
     8   10    6 1  
     9    7   18 1  
    10   21    7 1  
    11   11    8 1  
    12    9   12 1  
    13   13   10 1  
    14   14   11 1  
    15   12   14 2  
    16   15   13 1  
    17   16   15 1  
    18   20   16 1  
    19   18   17 1  
    20   17   23 1  
    21   18   22 1  
    22   20   19 2  
    23   20   21 1  
    24   24   25 1  
    25    1   26 1  
    26    1   27 1  
    27    2   28 1  
    28    2   29 1  
    29    3   30 1  
    30    3   31 1  
    31    4   32 1  
    32    4   33 1  
    33    5   34 1  
    34    5   35 1  
    35    6   36 1  
    36    6   37 1  
    37    7   38 1  
    38    7   39 1  
    39    8   40 1  
    40    8   41 1  
    41    9   42 1  
    42    9   43 1  
    43   10   44 1  
    44   10   45 1  
    45   11   46 1  
    46   11   47 1  
    47   12   48 1  
    48   13   49 1  
    49   13   50 1  
    50   14   51 1  
    51   15   52 1  
    52   15   53 1  
    53   16   54 1  
    54   16   55 1  
    55   17   56 1  
    56   17   57 1  
    57   18   58 1  
    58   22   59 1  
    59   23   60 1  
    60   24   61 1  
    61   24   62 1  
    62   25   63 1  
    63   25   64 1  
    64   25   65 1  
@<TRIPOS>SUBSTRUCTURE
     1 MVC         1

