### 
### Created by X-TOOL on Mon Sep 10 21:13:24 2018
### 

@<TRIPOS>MOLECULE
4wnk_ligand
   59    63     1     0     0
SMALL
GAST_HUCK


@<TRIPOS>ATOM
      1 OBC         1.0710   22.9250  -35.2700 O.2       1 453        -0.3868
      2 CBB         0.8400   21.7480  -35.3020 C.2       1 453         0.2046
      3 NBD        -0.3700   21.2960  -35.0260 N.am      1 453        -0.2732
      4 CBE        -1.4620   22.1670  -34.6690 C.3       1 453         0.0792
      5 CBF        -1.4450   22.5190  -33.2020 C.ar      1 453         0.0502
      6 CBK        -1.9530   23.7390  -32.7960 C.ar      1 453        -0.0304
      7 CBJ        -1.9500   24.0920  -31.4500 C.ar      1 453        -0.0488
      8 CBI        -1.4360   23.1840  -30.5360 C.ar      1 453        -0.0410
      9 CBH        -0.9430   21.9710  -30.9900 C.ar      1 453         0.0028
     10 NBG        -0.9560   21.6700  -32.2930 N.ar      1 453        -0.2960
     11 CAY         1.9480   20.8150  -35.6760 C.ar      1 453         0.0765
     12 CAZ         1.7730   19.9680  -36.7510 C.ar      1 453        -0.0399
     13 CAX         3.1110   20.7940  -34.9940 C.ar      1 453         0.1455
     14 FBA         3.2820   21.6080  -33.9710 F         1 453        -0.1834
     15 CAW         4.1290   19.9360  -35.3470 C.ar      1 453        -0.0291
     16 CAV         3.9700   19.0800  -36.4150 C.ar      1 453        -0.0553
     17 CAU         2.7740   19.1010  -37.1160 C.ar      1 453        -0.0160
     18 CAN         2.6360   18.1830  -38.2590 C.3       1 453         0.0894
     19 NAO         1.7000   18.7160  -39.2440 N.am      1 453        -0.2516
     20 CAP         0.4090   18.3660  -39.3920 C.2       1 453         0.2976
     21 OAT        -0.3530   18.9940  -40.1270 O.2       1 453        -0.3871
     22 NAQ        -0.0490   17.3090  -38.7600 N.am      1 453        -0.2115
     23 CAR         0.8920   16.4770  -38.1000 C.2       1 453         0.0640
     24 CAS         0.2440   15.1640  -37.8020 C.3       1 453        -0.0024
     25 CAM         2.2180   16.8370  -37.8320 C.2       1 453         0.0524
     26 CAK         2.9340   15.6940  -37.2250 C.2       1 453         0.1832
     27 OAL         3.7960   15.2390  -37.9620 O.2       1 453        -0.4112
     28 NAJ         2.6200   15.2140  -36.0430 N.am      1 453        -0.2446
     29 CAG         3.1820   14.1050  -35.5270 C.ar      1 453         0.0648
     30 CAF         4.1820   13.3080  -36.1150 C.ar      1 453        -0.0267
     31 CAH         2.5620   13.6670  -34.3410 C.ar      1 453        -0.0416
     32 CAI         2.9350   12.5110  -33.6690 C.ar      1 453        -0.0731
     33 CAE         3.9390   11.7360  -34.2080 C.ar      1 453        -0.0310
     34 CAD         4.5800   12.1430  -35.4590 C.ar      1 453         0.0187
     35 NAA         4.5510   10.5990  -33.8760 N.2       1 453        -0.3433
     36 NAB         5.5490   10.2180  -34.7950 N.pl3     1 453        -0.2464
     37 CAC         5.5700   11.1690  -35.7740 C.2       1 453         0.1055
     38 H1         -0.5352   20.3106  -35.0663 H         1 453         0.1873
     39 H2         -2.4108   21.6617  -34.9024 H         1 453         0.0713
     40 H3         -1.3853   23.0930  -35.2577 H         1 453         0.0713
     41 H4         -2.3565   24.4255  -33.5315 H         1 453         0.0652
     42 H5         -2.3387   25.0502  -31.1247 H         1 453         0.0719
     43 H6         -1.4201   23.4206  -29.4783 H         1 453         0.0652
     44 H7         -0.5417   21.2570  -30.2799 H         1 453         0.0803
     45 H8          0.8437   19.9868  -37.3087 H         1 453         0.0596
     46 H9          5.0556   19.9342  -34.7844 H         1 453         0.0598
     47 H10         4.7658   18.4022  -36.7020 H         1 453         0.0582
     48 H11         3.6218   18.0939  -38.7388 H         1 453         0.0740
     49 H12         2.0531   19.4102  -39.8712 H         1 453         0.1894
     50 H13        -1.0264   17.0983  -38.7447 H         1 453         0.2357
     51 H14         0.9632   14.5081  -37.2896 H         1 453         0.0451
     52 H15        -0.0774   14.6920  -38.7421 H         1 453         0.0451
     53 H16        -0.6307   15.3253  -37.1549 H         1 453         0.0451
     54 H17         1.9310   15.6952  -35.5011 H         1 453         0.2226
     55 H18         4.6336   13.5936  -37.0582 H         1 453         0.0512
     56 H19         1.7533   14.2621  -33.9325 H         1 453         0.0501
     57 H20         2.4487   12.2250  -32.7434 H         1 453         0.0577
     58 H21         6.1480    9.3820  -34.7388 H         1 453         0.2933
     59 H22         6.2274   11.1808  -36.6421 H         1 453         0.1367
@<TRIPOS>BOND
     1    1    2 2  
     2    2    3 am 
     3    2   11 1  
     4    3    4 1  
     5    4    5 1  
     6    5    6 ar 
     7    5   10 ar 
     8    6    7 ar 
     9    7    8 ar 
    10    8    9 ar 
    11    9   10 ar 
    12   11   12 ar 
    13   11   13 ar 
    14   12   17 ar 
    15   13   14 1  
    16   13   15 ar 
    17   15   16 ar 
    18   16   17 ar 
    19   17   18 1  
    20   18   19 1  
    21   18   25 1  
    22   19   20 am 
    23   20   21 2  
    24   20   22 am 
    25   22   23 1  
    26   23   24 1  
    27   23   25 2  
    28   25   26 1  
    29   26   27 2  
    30   26   28 am 
    31   28   29 1  
    32   29   30 ar 
    33   29   31 ar 
    34   30   34 ar 
    35   31   32 ar 
    36   32   33 ar 
    37   33   34 ar 
    38   33   35 2  
    39   34   37 2  
    40   35   36 1  
    41   36   37 1  
    42    3   38 1  
    43    4   39 1  
    44    4   40 1  
    45    6   41 1  
    46    7   42 1  
    47    8   43 1  
    48    9   44 1  
    49   12   45 1  
    50   15   46 1  
    51   16   47 1  
    52   18   48 1  
    53   19   49 1  
    54   22   50 1  
    55   24   51 1  
    56   24   52 1  
    57   24   53 1  
    58   28   54 1  
    59   30   55 1  
    60   31   56 1  
    61   32   57 1  
    62   36   58 1  
    63   37   59 1  
@<TRIPOS>SUBSTRUCTURE
     1 453         1

