### 
### Created by X-TOOL on Mon Sep 10 21:13:29 2018
### 

@<TRIPOS>MOLECULE
4wnm_ligand
   62    67     1     0     0
SMALL
GAST_HUCK


@<TRIPOS>ATOM
      1 C1         -3.1690   -1.8010   13.0340 C.3       1 3RT         0.0304
      2 C2         -4.4660    0.2010   15.9800 C.2       1 3RT         0.1468
      3 C3         -4.0970   -1.2400   14.0800 C.2       1 3RT         0.1202
      4 C4         -5.4120   -1.6690   14.1360 C.2       1 3RT        -0.0205
      5 C5         -6.2690   -1.1690   15.1170 C.2       1 3RT        -0.0675
      6 C6         -5.7970   -0.2470   16.0420 C.2       1 3RT        -0.0220
      7 N1         -3.6180   -0.2880   15.0200 N.pl3     1 3RT        -0.1388
      8 N2         -3.7960    1.0560   16.6950 N.2       1 3RT        -0.2995
      9 N3         -2.5050    0.2600   15.1640 N.2       1 3RT        -0.1807
     10 O1          8.5960    0.9280   14.9580 O.3       1 3RT        -0.3796
     11 C7         -2.5600    1.1050   16.1990 C.2       1 3RT         0.1565
     12 C8         -0.2770    1.8040   16.1890 C.ar      1 3RT         0.0591
     13 C9          0.6430    2.8000   16.5120 C.ar      1 3RT        -0.0381
     14 C10         1.9300    2.7630   15.9690 C.ar      1 3RT        -0.0493
     15 C11         2.3010    1.7230   15.1340 C.ar      1 3RT         0.0633
     16 C12         1.4260    0.7390   14.8220 C.ar      1 3RT        -0.0636
     17 C13         0.1160    0.7570   15.3490 C.ar      1 3RT        -0.0442
     18 C14         3.4650    1.4260   14.4780 C.2       1 3RT         0.2348
     19 C15         5.8850    1.5730   14.0880 C.3       1 3RT         0.0614
     20 O2         -1.1710   -5.5440   13.5440 O.3       1 3RT        -0.3797
     21 C21        -3.1800   -4.1630   13.8330 C.3       1 3RT        -0.0239
     22 C22        -2.3170   -5.2640   14.4230 C.3       1 3RT         0.0481
     23 C23        -0.3490   -4.4010   13.3750 C.3       1 3RT         0.0481
     24 C24        -1.1640   -3.2940   12.7210 C.3       1 3RT        -0.0239
     25 C20        -2.3260   -2.9420   13.6400 C.3       1 3RT        -0.0195
     26 N4         -1.5260    1.8680   16.7010 N.pl3     1 3RT        -0.2610
     27 N6          2.0750   -0.1260   13.9900 N.2       1 3RT        -0.4427
     28 N5          3.2640    0.2730   13.8000 N.pl3     1 3RT        -0.2563
     29 N7          4.5940    2.1580   14.4950 N.pl3     1 3RT        -0.2453
     30 C16         6.9920    2.6550   14.1900 C.3       1 3RT        -0.0029
     31 C17         8.3800    2.0110   13.9820 C.3       1 3RT         0.0501
     32 C18         7.6560   -0.1300   14.7180 C.3       1 3RT         0.0501
     33 C19         6.2270    0.3820   15.0200 C.3       1 3RT        -0.0029
     34 H1         -2.5007   -1.0049   12.6741 H         1 3RT         0.0531
     35 H2         -3.7605   -2.1914   12.1928 H         1 3RT         0.0531
     36 H3         -5.7779   -2.3973   13.4138 H         1 3RT         0.0465
     37 H4         -7.3054   -1.5009   15.1572 H         1 3RT         0.0653
     38 H5         -6.4606    0.1305   16.8185 H         1 3RT         0.0491
     39 H6          0.3604    3.6025   17.1837 H         1 3RT         0.0530
     40 H7          2.6387    3.5495   16.2019 H         1 3RT         0.0603
     41 H8         -0.5811   -0.0362   15.1039 H         1 3RT         0.0524
     42 H9          5.8160    1.2166   13.0496 H         1 3RT         0.0600
     43 H10        -4.0081   -3.9322   14.5193 H         1 3RT         0.0292
     44 H11        -3.5865   -4.4887   12.8642 H         1 3RT         0.0292
     45 H12        -1.9481   -4.9460   15.4093 H         1 3RT         0.0560
     46 H13        -2.9203   -6.1771   14.5340 H         1 3RT         0.0560
     47 H14         0.5081   -4.6551   12.7341 H         1 3RT         0.0560
     48 H15         0.0146   -4.0604   14.3557 H         1 3RT         0.0560
     49 H16        -1.5500   -3.6409   11.7511 H         1 3RT         0.0292
     50 H17        -0.5305   -2.4079   12.5678 H         1 3RT         0.0292
     51 H18        -1.9310   -2.6167   14.6137 H         1 3RT         0.0334
     52 H19        -1.7114    2.5049   17.4889 H         1 3RT         0.2100
     53 H20         3.9670   -0.2064   13.2197 H         1 3RT         0.2536
     54 H21         4.5559    3.1420   14.7969 H         1 3RT         0.2134
     55 H22         6.9531    3.1235   15.1845 H         1 3RT         0.0313
     56 H23         6.8259    3.4202   13.4174 H         1 3RT         0.0313
     57 H24         8.4391    1.5985   12.9640 H         1 3RT         0.0560
     58 H25         9.1582    2.7773   14.1129 H         1 3RT         0.0560
     59 H26         7.8872   -0.9833   15.3725 H         1 3RT         0.0560
     60 H27         7.7189   -0.4468   13.6665 H         1 3RT         0.0560
     61 H28         5.5053   -0.4311   14.8525 H         1 3RT         0.0313
     62 H29         6.1716    0.7114   16.0680 H         1 3RT         0.0313
@<TRIPOS>BOND
     1    3    1 1  
     2    1   25 1  
     3    2    6 1  
     4    7    2 1  
     5    8    2 2  
     6    3    4 2  
     7    7    3 1  
     8    4    5 1  
     9    6    5 2  
    10    9    7 1  
    11   11    8 1  
    12   11    9 2  
    13   31   10 1  
    14   10   32 1  
    15   26   11 1  
    16   13   12 ar 
    17   17   12 ar 
    18   12   26 1  
    19   14   13 ar 
    20   15   14 ar 
    21   15   16 ar 
    22   18   15 2  
    23   16   17 ar 
    24   27   16 2  
    25   18   28 1  
    26   29   18 1  
    27   19   29 1  
    28   30   19 1  
    29   19   33 1  
    30   22   20 1  
    31   23   20 1  
    32   21   22 1  
    33   25   21 1  
    34   24   23 1  
    35   25   24 1  
    36   28   27 1  
    37   30   31 1  
    38   32   33 1  
    39    1   34 1  
    40    1   35 1  
    41    4   36 1  
    42    5   37 1  
    43    6   38 1  
    44   13   39 1  
    45   14   40 1  
    46   17   41 1  
    47   19   42 1  
    48   21   43 1  
    49   21   44 1  
    50   22   45 1  
    51   22   46 1  
    52   23   47 1  
    53   23   48 1  
    54   24   49 1  
    55   24   50 1  
    56   25   51 1  
    57   26   52 1  
    58   28   53 1  
    59   29   54 1  
    60   30   55 1  
    61   30   56 1  
    62   31   57 1  
    63   31   58 1  
    64   32   59 1  
    65   32   60 1  
    66   33   61 1  
    67   33   62 1  
@<TRIPOS>SUBSTRUCTURE
     1 3RT         1

