### 
### Created by X-TOOL on Mon Sep 10 21:13:23 2018
### 

@<TRIPOS>MOLECULE
4wno_ligand
   46    50     1     0     0
SMALL
GAST_HUCK


@<TRIPOS>ATOM
      1 C13        -2.7020  -40.6980  -18.8390 C.ar      1 3RF        -0.0450
      2 C15        -0.6690  -39.4530  -19.3460 C.ar      1 3RF        -0.0603
      3 C17        -4.2250  -39.8440  -16.9980 C.ar      1 3RF         0.1528
      4 C22        -7.9290  -41.4650  -14.9370 C.2       1 3RF         0.0626
      5 C24        -9.3170  -40.0890  -13.7550 C.3       1 3RF        -0.0344
      6 C26        -6.7510  -40.7610  -15.2200 C.2       1 3RF        -0.0239
      7 N01        -7.6530  -37.4520  -10.7680 N.pl3     1 3RF        -0.3427
      8 C02        -6.6790  -37.3380  -11.8110 C.ar      1 3RF         0.0245
      9 C03        -5.3380  -37.6040  -11.5370 C.ar      1 3RF        -0.0531
     10 C04        -4.3930  -37.4810  -12.5580 C.ar      1 3RF        -0.0487
     11 C05        -7.0890  -36.9490  -13.0740 C.ar      1 3RF        -0.0531
     12 C06        -6.1470  -36.8220  -14.0980 C.ar      1 3RF        -0.0487
     13 C07        -4.8190  -37.1110  -13.8300 C.ar      1 3RF         0.0534
     14 N08        -3.8550  -36.9510  -14.8700 N.pl3     1 3RF        -0.2529
     15 C09        -3.6320  -37.9410  -15.8650 C.ar      1 3RF         0.1797
     16 N10        -2.5270  -37.7960  -16.5940 N.ar      1 3RF        -0.2890
     17 C11        -2.1960  -38.6910  -17.5800 C.ar      1 3RF         0.0272
     18 C12        -3.0380  -39.7570  -17.8260 C.ar      1 3RF         0.0483
     19 C14        -1.5240  -40.5440  -19.5960 C.ar      1 3RF        -0.0587
     20 C16        -0.9810  -38.5330  -18.3400 C.ar      1 3RF        -0.0476
     21 N18        -5.0970  -40.9190  -17.2500 N.pl3     1 3RF        -0.2485
     22 C19        -6.2400  -41.2410  -16.4550 C.2       1 3RF         0.1025
     23 N20        -7.0640  -42.2120  -16.8960 N.2       1 3RF        -0.2257
     24 N21        -8.0540  -42.3210  -15.9750 N.pl3     1 3RF        -0.2321
     25 C23        -9.0610  -41.5840  -13.8430 C.3       1 3RF         0.0198
     26 C25        -8.3540  -40.7210  -12.7860 C.3       1 3RF        -0.0344
     27 N27        -4.4920  -38.9410  -16.0440 N.ar      1 3RF        -0.2322
     28 H1         -3.3576  -41.5400  -19.0297 H         1 3RF         0.0675
     29 H2          0.2325  -39.3262  -19.9344 H         1 3RF         0.0661
     30 H3        -10.2899  -39.7208  -13.3975 H         1 3RF         0.0295
     31 H4         -8.9400  -39.4221  -14.5443 H         1 3RF         0.0295
     32 H5         -6.3058  -39.9829  -14.6018 H         1 3RF         0.0222
     33 H6         -7.3637  -37.7404   -9.8225 H         1 3RF         0.1687
     34 H7         -8.6431  -37.2456  -10.9631 H         1 3RF         0.1687
     35 H8         -5.0319  -37.9034  -10.5411 H         1 3RF         0.0490
     36 H9         -3.3438  -37.6708  -12.3626 H         1 3RF         0.0508
     37 H10        -8.1356  -36.7439  -13.2680 H         1 3RF         0.0490
     38 H11        -6.4510  -36.5019  -15.0880 H         1 3RF         0.0508
     39 H12        -3.2992  -36.0843  -14.9007 H         1 3RF         0.2151
     40 H13        -1.2763  -41.2630  -20.3685 H         1 3RF         0.0592
     41 H14        -0.3126  -37.7051  -18.1326 H         1 3RF         0.0589
     42 H15        -4.8974  -41.5161  -18.0652 H         1 3RF         0.2195
     43 H16        -8.8292  -42.9940  -16.0592 H         1 3RF         0.2459
     44 H17        -9.7328  -42.4495  -13.7449 H         1 3RF         0.0508
     45 H18        -8.6259  -40.8185  -11.7246 H         1 3RF         0.0295
     46 H19        -7.2759  -40.5198  -12.8714 H         1 3RF         0.0295
@<TRIPOS>BOND
     1   18    1 ar 
     2    1   19 ar 
     3   19    2 ar 
     4   20    2 ar 
     5    3   18 ar 
     6   21    3 1  
     7    3   27 ar 
     8    6    4 2  
     9    4   24 1  
    10    4   25 1  
    11   25    5 1  
    12    5   26 1  
    13   22    6 1  
    14    8    7 1  
    15    9    8 ar 
    16   11    8 ar 
    17   10    9 ar 
    18   13   10 ar 
    19   12   11 ar 
    20   13   12 ar 
    21   14   13 1  
    22   15   14 1  
    23   15   16 ar 
    24   27   15 ar 
    25   17   16 ar 
    26   18   17 ar 
    27   17   20 ar 
    28   21   22 1  
    29   22   23 2  
    30   23   24 1  
    31   25   26 1  
    32    1   28 1  
    33    2   29 1  
    34    5   30 1  
    35    5   31 1  
    36    6   32 1  
    37    7   33 1  
    38    7   34 1  
    39    9   35 1  
    40   10   36 1  
    41   11   37 1  
    42   12   38 1  
    43   14   39 1  
    44   19   40 1  
    45   20   41 1  
    46   21   42 1  
    47   24   43 1  
    48   25   44 1  
    49   26   45 1  
    50   26   46 1  
@<TRIPOS>SUBSTRUCTURE
     1 3RF         1

