### 
### Created by X-TOOL on Mon Sep 10 21:13:24 2018
### 

@<TRIPOS>MOLECULE
4wnp_ligand
   50    55     1     0     0
SMALL
GAST_HUCK


@<TRIPOS>ATOM
      1 C13       103.1500   43.9610   13.0650 C.3       1 3RJ         0.0195
      2 C15       104.3390   45.6240   13.4470 C.3       1 3RJ        -0.0483
      3 C17       101.9670   42.8740   15.1950 C.2       1 3RJ        -0.0239
      4 C21       103.3130   44.3770   18.9570 C.ar      1 3RJ         0.0540
      5 C22       104.6680   44.1610   19.1100 C.ar      1 3RJ        -0.0170
      6 C28       103.7120   45.9230   17.1620 C.ar      1 3RJ        -0.0668
      7 C01        99.8940   41.1120   20.0380 C.ar      1 3RJ         0.0276
      8 C02        99.1110   40.4790   21.0410 C.ar      1 3RJ        -0.0475
      9 C03        98.2360   39.4780   20.6690 C.ar      1 3RJ        -0.0602
     10 C04        98.1060   39.1030   19.3190 C.ar      1 3RJ        -0.0586
     11 C05        98.8710   39.7300   18.3300 C.ar      1 3RJ        -0.0449
     12 C06        99.7840   40.7660   18.7150 C.ar      1 3RJ         0.0484
     13 C07       100.6020   41.4430   17.7730 C.ar      1 3RJ         0.1530
     14 N08       100.4910   41.0760   16.4070 N.pl3     1 3RJ        -0.2484
     15 C09       101.1710   41.7090   15.3070 C.2       1 3RJ         0.1025
     16 N10       101.0470   41.1480   14.0830 N.2       1 3RJ        -0.2257
     17 N11       101.7750   41.8980   13.2140 N.pl3     1 3RJ        -0.2321
     18 C12       102.3310   42.9500   13.8300 C.2       1 3RJ         0.0626
     19 C14       102.8680   45.4300   13.2740 C.3       1 3RJ        -0.0366
     20 C16       104.4820   44.1570   13.6980 C.3       1 3RJ        -0.0366
     21 N18       101.4530   42.4160   18.1370 N.ar      1 3RJ        -0.2317
     22 C19       101.5320   42.7320   19.4490 C.ar      1 3RJ         0.1814
     23 N20       102.4420   43.7250   19.8670 N.pl3     1 3RJ        -0.2506
     24 C23       105.5700   44.8320   18.2540 C.ar      1 3RJ         0.0734
     25 N24       106.9270   44.7920   18.1580 N.pl3     1 3RJ        -0.2550
     26 C25       107.3160   45.6330   17.1700 C.2       1 3RJ         0.0991
     27 N26       106.2100   46.1930   16.6330 N.2       1 3RJ        -0.3132
     28 C27       105.1000   45.6990   17.3020 C.ar      1 3RJ         0.0241
     29 C29       102.8190   45.2630   18.0080 C.ar      1 3RJ        -0.0493
     30 N30       100.7870   42.1060   20.3950 N.ar      1 3RJ        -0.2882
     31 H1        103.1780   43.6725   12.0039 H         1 3RJ         0.0507
     32 H2        104.6139   46.2580   14.3028 H         1 3RJ         0.0269
     33 H3        104.8572   45.9809   12.5448 H         1 3RJ         0.0269
     34 H4        102.2411   43.5652   15.9907 H         1 3RJ         0.0222
     35 H5        105.0345   43.4866   19.8755 H         1 3RJ         0.0449
     36 H6        103.3430   46.6029   16.4026 H         1 3RJ         0.0540
     37 H7         99.1992   40.7768   22.0795 H         1 3RJ         0.0590
     38 H8         97.6430   38.9757   21.4247 H         1 3RJ         0.0661
     39 H9         97.4071   38.3216   19.0432 H         1 3RJ         0.0593
     40 H10        98.7752   39.4376   17.2906 H         1 3RJ         0.0675
     41 H11        99.8687   40.2866   16.1823 H         1 3RJ         0.2195
     42 H12       101.8849   41.6853   12.2122 H         1 3RJ         0.2459
     43 H13       102.2675   45.6589   14.1667 H         1 3RJ         0.0294
     44 H14       102.4377   45.9428   12.4012 H         1 3RJ         0.0294
     45 H15       105.3159   43.6823   13.1602 H         1 3RJ         0.0294
     46 H16       104.5260   43.8793   14.7614 H         1 3RJ         0.0294
     47 H17       102.4751   43.9846   20.8632 H         1 3RJ         0.2170
     48 H18       107.5538   44.2179   18.7397 H         1 3RJ         0.2326
     49 H19       108.3428   45.8246   16.8618 H         1 3RJ         0.1319
     50 H20       101.7527   45.4398   17.9254 H         1 3RJ         0.0470
@<TRIPOS>BOND
     1   18    1 1  
     2    1   19 1  
     3    1   20 1  
     4   19    2 1  
     5   20    2 1  
     6   15    3 1  
     7    3   18 2  
     8    4    5 ar 
     9   23    4 1  
    10    4   29 ar 
    11    5   24 ar 
    12    6   28 ar 
    13   29    6 ar 
    14    7    8 ar 
    15   12    7 ar 
    16    7   30 ar 
    17    8    9 ar 
    18   10    9 ar 
    19   11   10 ar 
    20   12   11 ar 
    21   13   12 ar 
    22   13   14 1  
    23   21   13 ar 
    24   14   15 1  
    25   15   16 2  
    26   16   17 1  
    27   17   18 1  
    28   22   21 ar 
    29   22   23 1  
    30   22   30 ar 
    31   24   25 1  
    32   24   28 ar 
    33   25   26 1  
    34   26   27 2  
    35   27   28 1  
    36    1   31 1  
    37    2   32 1  
    38    2   33 1  
    39    3   34 1  
    40    5   35 1  
    41    6   36 1  
    42    8   37 1  
    43    9   38 1  
    44   10   39 1  
    45   11   40 1  
    46   14   41 1  
    47   17   42 1  
    48   19   43 1  
    49   19   44 1  
    50   20   45 1  
    51   20   46 1  
    52   23   47 1  
    53   25   48 1  
    54   26   49 1  
    55   29   50 1  
@<TRIPOS>SUBSTRUCTURE
     1 3RJ         1

