### 
### Created by X-TOOL on Mon Sep 10 21:13:24 2018
### 

@<TRIPOS>MOLECULE
4wov_ligand
   49    52     1     0     0
SMALL
GAST_HUCK


@<TRIPOS>ATOM
      1 C13        12.9600    3.0740   -0.2040 C.ar      1 3SM         0.0436
      2 C17        13.6460    3.5970   -1.4440 C.3       1 3SM         0.0786
      3 C16        11.5880    2.0110    1.9180 C.ar      1 3SM        -0.0372
      4 C15        11.8680    3.3700    1.8970 C.ar      1 3SM        -0.0526
      5 C19        15.4300    2.6920   -2.8840 C.2       1 3SM         0.2041
      6 C21        16.8130    2.0890   -2.9440 C.3       1 3SM         0.1363
      7 C23        17.2460   -0.0240   -1.9230 C.3       1 3SM         0.0395
      8 C11        12.0710    1.2280    0.8830 C.ar      1 3SM         0.0572
      9 C27        13.1450   -5.6110   -2.1470 C.3       1 3SM         0.0159
     10 N1          9.4090   -3.9350    2.1910 N.pl3     1 3SM        -0.2402
     11 C2          9.2100   -5.2600    1.9680 C.2       1 3SM         0.1024
     12 N3          9.9880   -5.7860    1.0520 N.2       1 3SM        -0.3089
     13 C4         10.7600   -4.7190    0.6200 C.ar      1 3SM         0.0722
     14 C5         10.4150   -3.5580    1.3320 C.ar      1 3SM         0.0903
     15 C6         11.0030   -2.3030    1.1130 C.ar      1 3SM         0.0191
     16 C7         11.9560   -2.3280    0.0830 C.ar      1 3SM         0.1077
     17 N8         12.4390   -1.0500   -0.0960 N.pl3     1 3SM        -0.2724
     18 C9         11.8470   -0.2230    0.8430 C.2       1 3SM         0.0730
     19 C10        10.9600   -0.9540    1.5820 C.2       1 3SM        -0.0515
     20 N12        12.7270    1.7420   -0.1700 N.ar      1 3SM        -0.2970
     21 C14        12.5600    3.9160    0.8260 C.ar      1 3SM        -0.0350
     22 N18        14.9530    2.9980   -1.6710 N.am      1 3SM        -0.2714
     23 O20        14.8100    2.8780   -3.9300 O.2       1 3SM        -0.3944
     24 O22        16.5790    0.6900   -2.9610 O.3       1 3SM        -0.3627
     25 N24        12.3260   -3.4180   -0.6170 N.ar      1 3SM        -0.2885
     26 C25        11.7590   -4.6150   -0.3820 C.ar      1 3SM         0.1028
     27 N26        12.1230   -5.6710   -1.1220 N.pl3     1 3SM        -0.3138
     28 C28         8.7270   -3.0810    3.1590 C.3       1 3SM         0.0477
     29 H          13.7729    4.6848   -1.3411 H         1 3SM         0.0713
     30 H          13.0074    3.3830   -2.3137 H         1 3SM         0.0713
     31 H          11.0072    1.5744    2.7224 H         1 3SM         0.0631
     32 H          11.5466    4.0035    2.7158 H         1 3SM         0.0703
     33 H          17.4028    2.3757   -2.0609 H         1 3SM         0.0804
     34 H          17.3391    2.4081   -3.8558 H         1 3SM         0.0804
     35 H          17.0133   -1.0958   -2.0072 H         1 3SM         0.0526
     36 H          16.9073    0.3490   -0.9452 H         1 3SM         0.0526
     37 H          18.3321    0.1237   -2.0157 H         1 3SM         0.0526
     38 H          13.2594   -6.6026   -2.6092 H         1 3SM         0.0484
     39 H          14.1000   -5.3047   -1.6952 H         1 3SM         0.0484
     40 H          12.8516   -4.8802   -2.9150 H         1 3SM         0.0484
     41 H           8.4664   -5.8377    2.5050 H         1 3SM         0.1296
     42 H          13.1244   -0.7593   -0.8078 H         1 3SM         0.2239
     43 H          10.3313   -0.5752    2.3865 H         1 3SM         0.0375
     44 H          12.7837    4.9762    0.7935 H         1 3SM         0.0618
     45 H          15.5274    2.8040   -0.8757 H         1 3SM         0.1882
     46 H          11.6521   -6.5714   -0.9535 H         1 3SM         0.1814
     47 H           7.9707   -3.6699    3.6986 H         1 3SM         0.0577
     48 H           8.2367   -2.2489    2.6325 H         1 3SM         0.0577
     49 H           9.4597   -2.6808    3.8752 H         1 3SM         0.0577
@<TRIPOS>BOND
     1    1    2 1  
     2   20    1 ar 
     3    1   21 ar 
     4    2   22 1  
     5    3    4 ar 
     6    8    3 ar 
     7    4   21 ar 
     8    5    6 1  
     9   22    5 am 
    10    5   23 2  
    11    6   24 1  
    12   24    7 1  
    13   18    8 1  
    14    8   20 ar 
    15   27    9 1  
    16   10   11 1  
    17   14   10 1  
    18   10   28 1  
    19   12   11 2  
    20   13   12 1  
    21   13   14 ar 
    22   26   13 ar 
    23   14   15 ar 
    24   16   15 ar 
    25   15   19 1  
    26   16   17 1  
    27   25   16 ar 
    28   17   18 1  
    29   18   19 2  
    30   26   25 ar 
    31   26   27 1  
    32    2   29 1  
    33    2   30 1  
    34    3   31 1  
    35    4   32 1  
    36    6   33 1  
    37    6   34 1  
    38    7   35 1  
    39    7   36 1  
    40    7   37 1  
    41    9   38 1  
    42    9   39 1  
    43    9   40 1  
    44   11   41 1  
    45   17   42 1  
    46   19   43 1  
    47   21   44 1  
    48   22   45 1  
    49   27   46 1  
    50   28   47 1  
    51   28   48 1  
    52   28   49 1  
@<TRIPOS>SUBSTRUCTURE
     1 3SM         1

