### 
### Created by X-TOOL on Mon Sep 10 21:13:23 2018
### 

@<TRIPOS>MOLECULE
4wp7_ligand
   63    66     1     0     0
SMALL
GAST_HUCK


@<TRIPOS>ATOM
      1 C1         34.9970  -15.8380   16.4910 C.2       1 3SR         0.2235
      2 C2         35.5320  -16.8050   15.5050 C.2       1 3SR         0.1535
      3 C3         34.7110  -17.2490   14.3900 C.2       1 3SR         0.1257
      4 C5         32.9350  -15.8540   15.1550 C.2       1 3SR         0.3175
      5 C16        39.6000  -15.4300   16.9870 C.3       1 3SR        -0.0443
      6 C17        39.2050  -15.4190   18.4600 C.3       1 3SR        -0.0626
      7 C18        40.0880  -14.0400   16.5680 C.3       1 3SR        -0.0626
      8 C19        37.8040  -19.1130   13.8410 C.3       1 3SR         0.0466
      9 C21        40.3240  -19.1550   14.0440 C.3       1 3SR        -0.0091
     10 O32        43.5740  -18.2950   11.7290 O.2       1 3SR        -0.3897
     11 C26        42.4450  -18.2090   11.2560 C.2       1 3SR         0.2312
     12 C27        42.4010  -18.1200    9.7540 C.2       1 3SR         0.1844
     13 O31        41.2090  -18.3430    9.1250 O.3       1 3SR        -0.2506
     14 C30        41.4420  -18.2190    7.7690 C.2       1 3SR         0.0866
     15 C29        42.7830  -17.9300    7.5710 C.2       1 3SR        -0.0557
     16 C28        43.3880  -17.8740    8.8110 C.2       1 3SR        -0.0436
     17 N23        41.3520  -18.2100   12.0720 N.am      1 3SR        -0.2624
     18 C22        41.1230  -19.4740   12.7750 C.3       1 3SR         0.0731
     19 C24        40.0810  -17.7120   11.5400 C.3       1 3SR         0.0731
     20 C25        39.2010  -17.3290   12.7280 C.3       1 3SR        -0.0091
     21 N20        39.0970  -18.4580   13.6470 N.4       1 3SR         0.2560
     22 C8         36.6810  -18.2060   14.3280 C.2       1 3SR         0.1624
     23 N7         36.7120  -17.4160   15.4350 N.pl3     1 3SR        -0.2447
     24 C14        37.8140  -17.2230   16.3810 C.3       1 3SR         0.0526
     25 C15        38.4610  -15.8720   16.0700 C.3       1 3SR        -0.0239
     26 N9         35.4700  -18.1180   13.6930 N.2       1 3SR        -0.2901
     27 N4         33.4600  -16.7910   14.2020 N.am      1 3SR        -0.2047
     28 C12        32.6690  -17.2630   13.0570 C.3       1 3SR         0.0446
     29 O11        31.7860  -15.3960   15.0320 O.2       1 3SR        -0.3873
     30 N6         33.6810  -15.3900   16.2660 N.am      1 3SR        -0.1752
     31 C13        33.0710  -14.4240   17.1940 C.3       1 3SR         0.0475
     32 O10        35.6670  -15.4390   17.4690 O.2       1 3SR        -0.4044
     33 H1         40.4288  -16.1428   16.8650 H         1 3SR         0.0296
     34 H2         40.0627  -15.0938   19.0672 H         1 3SR         0.0232
     35 H3         38.9020  -16.4312   18.7660 H         1 3SR         0.0232
     36 H4         38.3656  -14.7240   18.6094 H         1 3SR         0.0232
     37 H5         40.3709  -14.0557   15.5051 H         1 3SR         0.0232
     38 H6         40.9609  -13.7592   17.1756 H         1 3SR         0.0232
     39 H7         39.2827  -13.3067   16.7222 H         1 3SR         0.0232
     40 H8         37.9374  -19.9158   14.5810 H         1 3SR         0.1072
     41 H9         37.4960  -19.5485   12.8790 H         1 3SR         0.1072
     42 H10        40.9200  -18.5116   14.7079 H         1 3SR         0.0835
     43 H11        40.0697  -20.0877   14.5687 H         1 3SR         0.0835
     44 H12        40.6948  -18.3301    6.9846 H         1 3SR         0.1039
     45 H13        43.2717  -17.7750    6.6102 H         1 3SR         0.0364
     46 H14        44.4398  -17.6746    9.0106 H         1 3SR         0.0434
     47 H15        40.5522  -20.1623   12.1344 H         1 3SR         0.0574
     48 H16        42.0852  -19.9350   13.0425 H         1 3SR         0.0574
     49 H17        39.5893  -18.4971   10.9469 H         1 3SR         0.0574
     50 H18        40.2593  -16.8310   10.9060 H         1 3SR         0.0574
     51 H19        38.1979  -17.0574   12.3675 H         1 3SR         0.0835
     52 H20        39.6472  -16.4709   13.2520 H         1 3SR         0.0835
     53 H21        39.0373  -17.8936   14.4800 H         1 3SR         0.2056
     54 H22        38.5538  -18.0286   16.2642 H         1 3SR         0.0603
     55 H23        37.4285  -17.2257   17.4112 H         1 3SR         0.0603
     56 H24        38.8577  -15.9204   15.0452 H         1 3SR         0.0294
     57 H25        37.6739  -15.1054   16.1227 H         1 3SR         0.0294
     58 H26        33.2676  -17.9706   12.4646 H         1 3SR         0.0548
     59 H27        32.3864  -16.4058   12.4282 H         1 3SR         0.0548
     60 H28        31.7610  -17.7659   13.4210 H         1 3SR         0.0548
     61 H29        33.7886  -14.1772   17.9903 H         1 3SR         0.0539
     62 H30        32.1664  -14.8640   17.6391 H         1 3SR         0.0539
     63 H31        32.8022  -13.5088   16.6462 H         1 3SR         0.0539
@<TRIPOS>BOND
     1    2    1 1  
     2    1   30 am 
     3    1   32 2  
     4    2    3 2  
     5   23    2 1  
     6   26    3 1  
     7    3   27 1  
     8   27    4 am 
     9    4   29 2  
    10   30    4 am 
    11    5    6 1  
    12    5    7 1  
    13   25    5 1  
    14    8   21 1  
    15   22    8 1  
    16    9   18 1  
    17   21    9 1  
    18   11   10 2  
    19   11   12 1  
    20   17   11 am 
    21   12   13 1  
    22   12   16 2  
    23   13   14 1  
    24   15   14 2  
    25   16   15 1  
    26   18   17 1  
    27   19   17 1  
    28   20   19 1  
    29   21   20 1  
    30   23   22 1  
    31   22   26 2  
    32   24   23 1  
    33   24   25 1  
    34   27   28 1  
    35   30   31 1  
    36    5   33 1  
    37    6   34 1  
    38    6   35 1  
    39    6   36 1  
    40    7   37 1  
    41    7   38 1  
    42    7   39 1  
    43    8   40 1  
    44    8   41 1  
    45    9   42 1  
    46    9   43 1  
    47   14   44 1  
    48   15   45 1  
    49   16   46 1  
    50   18   47 1  
    51   18   48 1  
    52   19   49 1  
    53   19   50 1  
    54   20   51 1  
    55   20   52 1  
    56   21   53 1  
    57   24   54 1  
    58   24   55 1  
    59   25   56 1  
    60   25   57 1  
    61   28   58 1  
    62   28   59 1  
    63   28   60 1  
    64   31   61 1  
    65   31   62 1  
    66   31   63 1  
@<TRIPOS>SUBSTRUCTURE
     1 3SR         1

