### 
### Created by X-TOOL on Mon Sep 10 21:13:23 2018
### 

@<TRIPOS>MOLECULE
4wpf_ligand
   59    62     1     0     0
SMALL
GAST_HUCK


@<TRIPOS>ATOM
      1 C14         4.7440   55.8560    3.3090 C.ar      1 3SN         0.1238
      2 C5          4.9260   61.4990    3.6330 C.3       1 3SN         0.0533
      3 C6          4.9530   60.0090    4.0070 C.3       1 3SN         0.0459
      4 C11         7.1470   57.1900    3.6260 C.ar      1 3SN        -0.0546
      5 C8          7.3540   59.8830    3.5730 C.3       1 3SN         0.0459
      6 C9          7.4010   61.3650    3.1600 C.3       1 3SN         0.0533
      7 C10         5.9860   57.9250    3.3610 C.ar      1 3SN         0.0315
      8 C12         7.1050   55.8080    3.7340 C.ar      1 3SN        -0.0717
      9 C13         5.9040   55.1310    3.5790 C.ar      1 3SN        -0.0036
     10 C1          7.8810   63.7090    4.8250 C.3       1 3SN         0.0258
     11 C2          6.4920   63.1470    4.6160 C.2       1 3SN         0.1755
     12 O3          5.5520   63.6920    5.1590 O.2       1 3SN        -0.3972
     13 N4          6.2830   62.0540    3.8340 N.am      1 3SN        -0.2697
     14 N7          6.0260   59.3280    3.2500 N.pl3     1 3SN        -0.3093
     15 C15         4.7810   57.2400    3.2030 C.ar      1 3SN        -0.0174
     16 F16         3.5600   55.2240    3.1570 F         1 3SN        -0.1923
     17 C17         5.8620   53.6210    3.7050 C.3       1 3SN         0.0585
     18 N18         6.0680   53.1390    5.0930 N.am      1 3SN        -0.2224
     19 C19         4.9950   53.1560    6.1210 C.3       1 3SN         0.0427
     20 C20         3.8220   54.1520    5.9990 C.3       1 3SN        -0.0328
     21 C21         2.9500   53.0470    6.6210 C.3       1 3SN        -0.0496
     22 C22         3.9280   52.0540    5.9690 C.3       1 3SN        -0.0328
     23 S23         7.5470   52.5010    5.5580 S.o2      1 3SN         0.0722
     24 O24         8.5730   53.0840    4.7630 O.2       1 3SN        -0.1500
     25 O25         7.6170   52.5310    6.9790 O.2       1 3SN        -0.1500
     26 C26         7.5030   50.7920    5.1260 C.ar      1 3SN         0.1085
     27 C27         6.7630   49.9040    5.8960 C.ar      1 3SN        -0.0351
     28 C28         6.7210   48.5610    5.5610 C.ar      1 3SN        -0.0599
     29 C29         7.4200   48.1100    4.4520 C.ar      1 3SN        -0.0616
     30 C30         8.1620   48.9920    3.6780 C.ar      1 3SN        -0.0599
     31 C31         8.2050   50.3360    4.0170 C.ar      1 3SN        -0.0351
     32 H1          4.2081   62.0305    4.2749 H         1 3SN         0.0542
     33 H2          4.6301   61.6127    2.5797 H         1 3SN         0.0542
     34 H3          3.9836   59.5517    3.7600 H         1 3SN         0.0531
     35 H4          5.1432   59.9054    5.0855 H         1 3SN         0.0531
     36 H5          8.0915   57.7077    3.7485 H         1 3SN         0.0465
     37 H6          7.5347   59.7972    4.6546 H         1 3SN         0.0531
     38 H7          8.1282   59.3246    3.0264 H         1 3SN         0.0531
     39 H8          7.2925   61.4536    2.0690 H         1 3SN         0.0542
     40 H9          8.3575   61.8105    3.4708 H         1 3SN         0.0542
     41 H10         8.0140   55.2547    3.9403 H         1 3SN         0.0515
     42 H11         8.6097   63.1021    4.2677 H         1 3SN         0.0467
     43 H12         8.1283   63.6864    5.8966 H         1 3SN         0.0467
     44 H13         7.9149   64.7470    4.4626 H         1 3SN         0.0467
     45 H14         3.8701   57.7903    2.9967 H         1 3SN         0.0483
     46 H15         6.6514   53.1959    3.0677 H         1 3SN         0.0608
     47 H16         4.8799   53.2693    3.3561 H         1 3SN         0.0608
     48 H17         5.4793   53.1815    7.1083 H         1 3SN         0.0515
     49 H18         3.5542   54.4286    4.9686 H         1 3SN         0.0284
     50 H19         3.9215   55.0620    6.6089 H         1 3SN         0.0284
     51 H20         1.9189   53.0003    6.2407 H         1 3SN         0.0266
     52 H21         2.9363   53.0305    7.7208 H         1 3SN         0.0266
     53 H22         4.1187   51.1412    6.5525 H         1 3SN         0.0284
     54 H23         3.6879   51.7820    4.9306 H         1 3SN         0.0284
     55 H24         6.2172   50.2630    6.7610 H         1 3SN         0.0637
     56 H25         6.1452   47.8667    6.1622 H         1 3SN         0.0618
     57 H26         7.3869   47.0595    4.1868 H         1 3SN         0.0618
     58 H27         8.7055   48.6315    2.8122 H         1 3SN         0.0618
     59 H28         8.7848   51.0291    3.4183 H         1 3SN         0.0637
@<TRIPOS>BOND
     1    1    9 ar 
     2   15    1 ar 
     3    1   16 1  
     4    2    3 1  
     5   13    2 1  
     6    3   14 1  
     7    7    4 ar 
     8    4    8 ar 
     9    6    5 1  
    10    5   14 1  
    11   13    6 1  
    12   14    7 1  
    13    7   15 ar 
    14    8    9 ar 
    15    9   17 1  
    16   11   10 1  
    17   11   12 2  
    18   11   13 am 
    19   17   18 1  
    20   18   19 1  
    21   18   23 am 
    22   19   20 1  
    23   19   22 1  
    24   20   21 1  
    25   21   22 1  
    26   23   24 2  
    27   23   25 2  
    28   23   26 1  
    29   26   27 ar 
    30   26   31 ar 
    31   27   28 ar 
    32   28   29 ar 
    33   29   30 ar 
    34   30   31 ar 
    35    2   32 1  
    36    2   33 1  
    37    3   34 1  
    38    3   35 1  
    39    4   36 1  
    40    5   37 1  
    41    5   38 1  
    42    6   39 1  
    43    6   40 1  
    44    8   41 1  
    45   10   42 1  
    46   10   43 1  
    47   10   44 1  
    48   15   45 1  
    49   17   46 1  
    50   17   47 1  
    51   19   48 1  
    52   20   49 1  
    53   20   50 1  
    54   21   51 1  
    55   21   52 1  
    56   22   53 1  
    57   22   54 1  
    58   27   55 1  
    59   28   56 1  
    60   29   57 1  
    61   30   58 1  
    62   31   59 1  
@<TRIPOS>SUBSTRUCTURE
     1 3SN         1

