### 
### Created by X-TOOL on Mon Sep 10 21:13:24 2018
### 

@<TRIPOS>MOLECULE
4wpn_ligand
   59    61     1     0     0
SMALL
GAST_HUCK


@<TRIPOS>ATOM
      1 C1         38.4730   19.5130   16.4480 C.2       1 3ST         0.2235
      2 C2         37.5260   19.0490   15.4080 C.2       1 3ST         0.1535
      3 C3         37.1920   19.9130   14.2860 C.2       1 3ST         0.1257
      4 C8         36.1230   18.0200   14.1210 C.2       1 3ST         0.1624
      5 N9         36.8550   17.9070   15.2610 N.pl3     1 3ST        -0.2447
      6 C10        36.8920   16.7580   16.1700 C.3       1 3ST         0.0526
      7 C11        38.3250   16.3160   16.4660 C.3       1 3ST        -0.0239
      8 C13        37.4240   13.9730   16.8310 C.3       1 3ST        -0.0626
      9 C14        39.8970   14.4050   16.8460 C.3       1 3ST        -0.0626
     10 C15        35.2060   16.9480   13.5670 C.3       1 3ST         0.0464
     11 C17        35.0050   14.4920   13.8180 C.3       1 3ST        -0.0275
     12 C18        34.9340   13.5940   12.5860 C.3       1 3ST         0.0074
     13 C20        36.8930   14.6000   11.5840 C.3       1 3ST         0.0074
     14 C21        37.0820   15.5650   12.7510 C.3       1 3ST        -0.0275
     15 C22        36.5120   12.1230   11.3000 C.2       1 3ST         0.1770
     16 C25        39.9470   21.3380   17.2610 C.3       1 3ST         0.0475
     17 O28        38.7860   18.8060   17.4280 O.2       1 3ST        -0.4044
     18 N6         39.0030   20.8100   16.2710 N.am      1 3ST        -0.1752
     19 C5         38.6320   21.5990   15.1460 C.2       1 3ST         0.3175
     20 O26        39.1280   22.7390   15.0270 O.2       1 3ST        -0.3873
     21 N4         37.7200   21.1340   14.1540 N.am      1 3ST        -0.2047
     22 C27        37.3690   21.9870   13.0150 C.3       1 3ST         0.0446
     23 N7         36.3220   19.2320   13.5190 N.2       1 3ST        -0.2901
     24 C12        38.5530   14.8210   16.2550 C.3       1 3ST        -0.0443
     25 N16        35.8750   15.6530   13.5840 N.4       1 3ST         0.2534
     26 C19        36.3780   13.3180   12.2110 C.3       1 3ST         0.0580
     27 O24        36.5610   11.0120   11.8000 O.2       1 3ST        -0.3970
     28 N23        36.5830   12.2810    9.9770 N.am      1 3ST        -0.3006
     29 H1         36.3491   15.9204   15.7078 H         1 3ST         0.0603
     30 H2         36.4023   17.0354   17.1151 H         1 3ST         0.0603
     31 H3         38.5560   16.5597   17.5135 H         1 3ST         0.0294
     32 H4         39.0051   16.8697   15.8021 H         1 3ST         0.0294
     33 H5         37.6372   12.9087   16.6527 H         1 3ST         0.0232
     34 H6         36.4762   14.2439   16.3429 H         1 3ST         0.0232
     35 H7         37.3443   14.1546   17.9130 H         1 3ST         0.0232
     36 H8         40.6950   15.0288   16.4170 H         1 3ST         0.0232
     37 H9         40.0904   13.3483   16.6093 H         1 3ST         0.0232
     38 H10        39.8745   14.5381   17.9377 H         1 3ST         0.0232
     39 H11        34.9338   17.2024   12.5320 H         1 3ST         0.1072
     40 H12        34.2962   16.8947   14.1829 H         1 3ST         0.1072
     41 H13        35.4032   13.9106   14.6626 H         1 3ST         0.0816
     42 H14        33.9926   14.8465   14.0617 H         1 3ST         0.0816
     43 H15        34.4134   14.1072   11.7641 H         1 3ST         0.0344
     44 H16        34.4108   12.6557   12.8222 H         1 3ST         0.0344
     45 H17        37.8497   14.4219   11.0712 H         1 3ST         0.0344
     46 H18        36.1614   15.0001   10.8666 H         1 3ST         0.0344
     47 H19        37.3144   16.5640   12.3535 H         1 3ST         0.0816
     48 H20        37.9190   15.2136   13.3722 H         1 3ST         0.0816
     49 H21        40.1082   20.5887   18.0500 H         1 3ST         0.0539
     50 H22        39.5363   22.2563   17.7059 H         1 3ST         0.0539
     51 H23        40.9047   21.5650   16.7698 H         1 3ST         0.0539
     52 H24        36.6579   21.4563   12.3649 H         1 3ST         0.0548
     53 H25        38.2777   22.2287   12.4441 H         1 3ST         0.0548
     54 H26        36.9079   22.9162   13.3811 H         1 3ST         0.0548
     55 H27        38.5865   14.6376   15.1709 H         1 3ST         0.0296
     56 H28        36.3165   15.6963   14.4891 H         1 3ST         0.2055
     57 H29        36.9544   13.1094   13.1243 H         1 3ST         0.0542
     58 H30        36.6717   11.4821    9.3821 H         1 3ST         0.1814
     59 H31        36.5475   13.1983    9.5804 H         1 3ST         0.1814
@<TRIPOS>BOND
     1    2    1 1  
     2    1   17 2  
     3    1   18 am 
     4    3    2 2  
     5    5    2 1  
     6    3   21 1  
     7   23    3 1  
     8    4    5 1  
     9   10    4 1  
    10    4   23 2  
    11    5    6 1  
    12    6    7 1  
    13    7   24 1  
    14   24    8 1  
    15   24    9 1  
    16   25   10 1  
    17   12   11 1  
    18   11   25 1  
    19   26   12 1  
    20   13   14 1  
    21   13   26 1  
    22   14   25 1  
    23   26   15 1  
    24   15   27 2  
    25   15   28 am 
    26   18   16 1  
    27   18   19 am 
    28   19   20 2  
    29   19   21 am 
    30   21   22 1  
    31    6   29 1  
    32    6   30 1  
    33    7   31 1  
    34    7   32 1  
    35    8   33 1  
    36    8   34 1  
    37    8   35 1  
    38    9   36 1  
    39    9   37 1  
    40    9   38 1  
    41   10   39 1  
    42   10   40 1  
    43   11   41 1  
    44   11   42 1  
    45   12   43 1  
    46   12   44 1  
    47   13   45 1  
    48   13   46 1  
    49   14   47 1  
    50   14   48 1  
    51   16   49 1  
    52   16   50 1  
    53   16   51 1  
    54   22   52 1  
    55   22   53 1  
    56   22   54 1  
    57   24   55 1  
    58   25   56 1  
    59   26   57 1  
    60   28   58 1  
    61   28   59 1  
@<TRIPOS>SUBSTRUCTURE
     1 3ST         1

