### 
### Created by X-TOOL on Mon Sep 10 21:13:22 2018
### 

@<TRIPOS>MOLECULE
4wq2_ligand
   25    26     1     0     0
SMALL
GAST_HUCK


@<TRIPOS>ATOM
      1 OAM         4.4870    9.1370   35.2340 O.co2     1 3SU        -0.5678
      2 CAL         5.1840    8.6020   34.3580 C.2       1 3SU         0.0487
      3 OAN         4.6600    8.2460   33.2860 O.co2     1 3SU        -0.5678
      4 CAJ         6.6660    8.3430   34.6330 C.3       1 3SU         0.0588
      5 SAP         7.2580    8.9170   36.1150 S.3       1 3SU        -0.1585
      6 CAI         7.5650    7.7910   33.5050 C.3       1 3SU        -0.0127
      7 CAH         8.8520    7.4140   33.6480 C.2       1 3SU        -0.0418
      8 CAE         9.4770    6.6760   32.7030 C.ar      1 3SU        -0.0192
      9 CAD         9.1060    6.2270   31.4970 C.ar      1 3SU        -0.0730
     10 CAC        10.0050    5.5130   30.6660 C.ar      1 3SU        -0.0705
     11 CAB        11.2430    5.3180   31.1610 C.ar      1 3SU        -0.0025
     12 BR         12.4400    4.2430   30.3440 Br        1 3SU        -0.0592
     13 CAG        11.5730    5.7730   32.4340 C.ar      1 3SU        -0.0345
     14 CAF        10.7270    6.4930   33.1540 C.ar      1 3SU         0.0633
     15 NAA        10.8500    7.0480   34.3730 N.pl3     1 3SU        -0.2877
     16 CAK         9.6740    7.6110   34.6960 C.2       1 3SU         0.0181
     17 H1          6.4859    7.3353   35.0356 H         1 3SU         0.0591
     18 H2          8.2381    8.6944   36.1929 H         1 3SU         0.1040
     19 H3          7.5742    8.5721   32.7306 H         1 3SU         0.0378
     20 H4          7.0414    6.9022   33.1232 H         1 3SU         0.0378
     21 H5          8.0965    6.4137   31.1490 H         1 3SU         0.0543
     22 H6          9.7136    5.1451   29.6889 H         1 3SU         0.0529
     23 H7         12.5463    5.5321   32.8460 H         1 3SU         0.0573
     24 H8         11.6983    7.0423   34.9571 H         1 3SU         0.2221
     25 H9          9.4325    8.1263   35.6245 H         1 3SU         0.0808
@<TRIPOS>BOND
     1    1    2 ar 
     2    2    3 ar 
     3    2    4 1  
     4    4    5 1  
     5    4    6 1  
     6    6    7 1  
     7    7    8 1  
     8    7   16 2  
     9    8    9 ar 
    10    8   14 ar 
    11    9   10 ar 
    12   10   11 ar 
    13   11   12 1  
    14   11   13 ar 
    15   13   14 ar 
    16   14   15 1  
    17   15   16 1  
    18    4   17 1  
    19    5   18 1  
    20    6   19 1  
    21    6   20 1  
    22    9   21 1  
    23   10   22 1  
    24   13   23 1  
    25   15   24 1  
    26   16   25 1  
@<TRIPOS>SUBSTRUCTURE
     1 3SU         1

