### 
### Created by X-TOOL on Mon Sep 10 21:13:23 2018
### 

@<TRIPOS>MOLECULE
4wq3_ligand
   48    51     1     0     0
SMALL
GAST_HUCK


@<TRIPOS>ATOM
      1 OAM        15.7850  -15.0410   24.0770 O.co2     1 3SU        -0.5677
      2 CAL        14.5930  -14.9160   24.3950 C.2       1 3SU         0.0498
      3 OAN        13.7250  -15.6580   23.8930 O.co2     1 3SU        -0.5677
      4 CAJ        14.2310  -13.8540   25.4060 C.3       1 3SU         0.0721
      5 SAP        12.5050  -13.6890   25.9630 S.3       1 3SU        -0.0712
      6 CAI        15.4360  -13.0880   26.0100 C.3       1 3SU        -0.0116
      7 CAH        15.3200  -12.0540   26.8350 C.2       1 3SU        -0.0418
      8 CAE        16.2600  -11.1060   26.9250 C.ar      1 3SU        -0.0192
      9 CAD        17.4350  -10.9640   26.3250 C.ar      1 3SU        -0.0730
     10 CAC        18.2100   -9.8500   26.5990 C.ar      1 3SU        -0.0705
     11 CAB        17.7840   -8.8810   27.5060 C.ar      1 3SU        -0.0025
     12 BR         18.8820   -7.2990   27.9150 Br        1 3SU        -0.0592
     13 CAG        16.5460   -9.0980   28.1140 C.ar      1 3SU        -0.0345
     14 CAF        15.8140  -10.1870   27.7910 C.ar      1 3SU         0.0633
     15 NAA        14.6030  -10.6010   28.2160 N.pl3     1 3SU        -0.2877
     16 CAK        14.2940  -11.7630   27.6210 C.2       1 3SU         0.0181
     17 OAM        10.6240  -11.1430   26.7060 O.co2     1 3SU        -0.5677
     18 CAL        11.0210  -10.5320   25.6930 C.2       1 3SU         0.0498
     19 OAN        11.0980   -9.3030   25.7330 O.co2     1 3SU        -0.5677
     20 CAJ        11.3550  -11.2650   24.3780 C.3       1 3SU         0.0721
     21 SAP        11.3200  -13.1790   24.3390 S.3       1 3SU        -0.0712
     22 CAI        11.7030  -10.4240   23.1180 C.3       1 3SU        -0.0116
     23 CAH        12.0680  -11.0330   21.9900 C.2       1 3SU        -0.0418
     24 CAE        13.0570  -10.6190   21.1940 C.ar      1 3SU        -0.0192
     25 CAD        13.9080   -9.6210   21.3380 C.ar      1 3SU        -0.0730
     26 CAC        14.8860   -9.3980   20.4090 C.ar      1 3SU        -0.0705
     27 CAB        15.0090  -10.2650   19.3340 C.ar      1 3SU        -0.0025
     28 BR         16.3900   -9.9590   18.1320 Br        1 3SU        -0.0592
     29 CAG        14.1190  -11.3210   19.2320 C.ar      1 3SU        -0.0345
     30 CAF        13.1660  -11.4800   20.1680 C.ar      1 3SU         0.0633
     31 NAA        12.1890  -12.3830   20.3170 N.pl3     1 3SU        -0.2877
     32 CAK        11.5120  -12.1280   21.4590 C.2       1 3SU         0.0181
     33 H1         14.0785  -13.0855   24.6340 H         1 3SU         0.0602
     34 H2         16.0167  -12.7205   25.1511 H         1 3SU         0.0378
     35 H3         16.0245  -13.8403   26.5556 H         1 3SU         0.0378
     36 H4         17.7854  -11.7145   25.6257 H         1 3SU         0.0543
     37 H5         19.1645   -9.7292   26.0996 H         1 3SU         0.0529
     38 H6         16.1715   -8.3919   28.8462 H         1 3SU         0.0573
     39 H7         14.0076  -10.1024   28.8926 H         1 3SU         0.2221
     40 H8         13.3853  -12.3477   27.7564 H         1 3SU         0.0808
     41 H9         12.4198  -11.2925   24.6526 H         1 3SU         0.0602
     42 H10        12.5304   -9.7564   23.4004 H         1 3SU         0.0378
     43 H11        10.8122   -9.8239   22.8808 H         1 3SU         0.0378
     44 H12        13.8309   -8.9710   22.2021 H         1 3SU         0.0543
     45 H13        15.5574   -8.5532   20.5117 H         1 3SU         0.0529
     46 H14        14.1899  -12.0155   18.4027 H         1 3SU         0.0573
     47 H15        11.9849  -13.1523   19.6633 H         1 3SU         0.2221
     48 H16        10.6795  -12.7001   21.8659 H         1 3SU         0.0808
@<TRIPOS>BOND
     1    2    1 ar 
     2    2    3 ar 
     3    4    2 1  
     4    5    4 1  
     5    4    6 1  
     6   21    5 1  
     7    6    7 1  
     8    7    8 1  
     9    7   16 2  
    10    8    9 ar 
    11    8   14 ar 
    12    9   10 ar 
    13   10   11 ar 
    14   11   12 1  
    15   13   11 ar 
    16   14   13 ar 
    17   15   14 1  
    18   16   15 1  
    19   18   17 ar 
    20   18   19 ar 
    21   20   18 1  
    22   20   21 1  
    23   20   22 1  
    24   22   23 1  
    25   23   24 1  
    26   23   32 2  
    27   24   25 ar 
    28   24   30 ar 
    29   25   26 ar 
    30   26   27 ar 
    31   27   28 1  
    32   27   29 ar 
    33   29   30 ar 
    34   30   31 1  
    35   31   32 1  
    36    4   33 1  
    37    6   34 1  
    38    6   35 1  
    39    9   36 1  
    40   10   37 1  
    41   13   38 1  
    42   15   39 1  
    43   16   40 1  
    44   20   41 1  
    45   22   42 1  
    46   22   43 1  
    47   25   44 1  
    48   26   45 1  
    49   29   46 1  
    50   31   47 1  
    51   32   48 1  
@<TRIPOS>SUBSTRUCTURE
     1 3SU         1

