### 
### Created by X-TOOL on Sun Nov 13 14:27:05 2016
### 

@<TRIPOS>MOLECULE
4wr7_ligand
   27    27     1     0     0
SMALL
GAST_HUCK


@<TRIPOS>ATOM
      1 F18        12.5150   38.1500   15.9040 F         1 MOL        -0.1936
      2 C7         12.7170   37.1420   16.7960 C.ar      1 MOL         0.1722
      3 C6         13.4640   37.4030   17.9760 C.ar      1 MOL         0.1801
      4 F17        13.9440   38.6540   18.1480 F         1 MOL        -0.1884
      5 C8         12.1740   35.9020   16.5990 C.ar      1 MOL         0.0792
      6 S11        11.2090   35.5760   15.0980 S.3       1 MOL        -0.1047
      7 C12         9.7120   34.8300   15.8920 C.3       1 MOL         0.0053
      8 C13         8.5890   34.6380   14.8630 C.3       1 MOL        -0.0449
      9 C14         8.0550   36.0070   14.4850 C.3       1 MOL        -0.0644
     10 C9         12.3930   34.8810   17.5020 C.ar      1 MOL         0.1722
     11 F15        11.9290   33.6060   17.3240 F         1 MOL        -0.1936
     12 C10        13.1440   35.1360   18.6610 C.ar      1 MOL         0.1801
     13 F16        13.3150   34.1230   19.5270 F         1 MOL        -0.1884
     14 C5         13.6650   36.4390   18.9310 C.ar      1 MOL         0.1642
     15 S1         14.5850   36.8940   20.4190 S.o2      1 MOL         0.0627
     16 O3         14.8350   35.5860   21.0950 O.2       1 MOL        -0.1526
     17 O4         13.7730   37.9430   21.0670 O.2       1 MOL        -0.1526
     18 N2         16.0830   37.3620   19.8590 N.am      1 MOL        -0.2627
     19 H1          9.3580   35.4965   16.6922 H         1 MOL         0.0399
     20 H2          9.9798   33.8529   16.3203 H         1 MOL         0.0399
     21 H3          7.7825   34.0313   15.3005 H         1 MOL         0.0272
     22 H4          8.9846   34.1327   13.9696 H         1 MOL         0.0272
     23 H5          7.2473   35.8945   13.7468 H         1 MOL         0.0230
     24 H6          8.8663   36.6102   14.0516 H         1 MOL         0.0230
     25 H7          7.6642   36.5088   15.3825 H         1 MOL         0.0230
     26 H8         16.7855   37.6644   20.5032 H         1 MOL         0.1633
     27 H9         16.2795   37.3404   18.8787 H         1 MOL         0.1633
@<TRIPOS>BOND
     1    1    2 1  
     2    2    3 ar 
     3    2    5 ar 
     4    3    4 1  
     5    3   14 ar 
     6    5    6 1  
     7    5   10 ar 
     8    6    7 1  
     9    7    8 1  
    10    8    9 1  
    11   10   11 1  
    12   10   12 ar 
    13   12   13 1  
    14   12   14 ar 
    15   14   15 1  
    16   15   16 2  
    17   15   17 2  
    18   15   18 am 
    19    7   19 1  
    20    7   20 1  
    21    8   21 1  
    22    8   22 1  
    23    9   23 1  
    24    9   24 1  
    25    9   25 1  
    26   18   26 1  
    27   18   27 1  
@<TRIPOS>SUBSTRUCTURE
     1 MOL         1

