### 
### Created by X-TOOL on Mon Sep 10 21:13:25 2018
### 

@<TRIPOS>MOLECULE
4wr8_ligand
   34    37     1     0     0
SMALL
GAST_HUCK


@<TRIPOS>ATOM
      1 OAA        44.3430  -22.8710   66.7650 O.3       1 3TX        -0.3364
      2 CAP        44.5380  -23.4310   67.9980 C.ar      1 3TX         0.0825
      3 CAD        45.6630  -23.1480   68.7680 C.ar      1 3TX        -0.0352
      4 CAF        45.8290  -23.7520   70.0120 C.ar      1 3TX        -0.0306
      5 CAE        43.5840  -24.3050   68.4800 C.ar      1 3TX        -0.0352
      6 CAG        43.7400  -24.9120   69.7140 C.ar      1 3TX        -0.0306
      7 CAS        44.8600  -24.6410   70.4900 C.ar      1 3TX         0.1139
      8 NAV        44.9890  -25.2680   71.7670 N.pl3     1 3TX        -0.1247
      9 CAL        43.9740  -25.7900   72.5000 C.2       1 3TX         0.1080
     10 NAN        46.1610  -25.4120   72.4370 N.2       1 3TX        -0.0765
     11 NAM        45.9090  -26.0240   73.5650 N.2       1 3TX        -0.2102
     12 CAR        44.5730  -26.2360   73.6560 C.2       1 3TX         0.0925
     13 CAQ        44.1120  -26.9770   74.8310 C.ar      1 3TX         0.0472
     14 CAH        42.7550  -27.1880   75.0270 C.ar      1 3TX        -0.0305
     15 NAO        45.0260  -27.5190   75.6510 N.ar      1 3TX        -0.3045
     16 CAU        44.6400  -28.2530   76.7170 C.ar      1 3TX         0.0359
     17 CAT        43.2870  -28.4750   76.9790 C.ar      1 3TX         0.0023
     18 CAK        42.3310  -27.9360   76.1280 C.ar      1 3TX        -0.0377
     19 CAJ        45.6090  -28.7950   77.5540 C.ar      1 3TX        -0.0432
     20 CAC        45.2410  -29.5460   78.6570 C.ar      1 3TX        -0.0583
     21 CAB        43.8920  -29.7670   78.9030 C.ar      1 3TX        -0.0581
     22 CAI        42.9110  -29.2320   78.0740 C.ar      1 3TX        -0.0486
     23 H1         44.3102  -21.9253   66.8495 H         1 3TX         0.2465
     24 H2         46.4112  -22.4561   68.3985 H         1 3TX         0.0531
     25 H3         46.7073  -23.5338   70.6087 H         1 3TX         0.0573
     26 H4         42.7031  -24.5181   67.8854 H         1 3TX         0.0531
     27 H5         42.9857  -25.6012   70.0762 H         1 3TX         0.0573
     28 H6         42.9196  -25.8441   72.2331 H         1 3TX         0.1136
     29 H7         42.0310  -26.7767   74.3329 H         1 3TX         0.0673
     30 H8         41.2748  -28.0929   76.3147 H         1 3TX         0.0757
     31 H9         46.6588  -28.6284   77.3415 H         1 3TX         0.0623
     32 H10        45.9949  -29.9558   79.3194 H         1 3TX         0.0645
     33 H11        43.5981  -30.3673   79.7565 H         1 3TX         0.0624
     34 H12        41.8620  -29.4067   78.2842 H         1 3TX         0.0648
@<TRIPOS>BOND
     1    1    2 1  
     2    2    3 ar 
     3    2    5 ar 
     4    3    4 ar 
     5    4    7 ar 
     6    5    6 ar 
     7    6    7 ar 
     8    7    8 1  
     9    8    9 1  
    10    8   10 1  
    11    9   12 2  
    12   10   11 2  
    13   11   12 1  
    14   12   13 1  
    15   13   14 ar 
    16   13   15 ar 
    17   14   18 ar 
    18   15   16 ar 
    19   16   17 ar 
    20   16   19 ar 
    21   17   18 ar 
    22   17   22 ar 
    23   19   20 ar 
    24   20   21 ar 
    25   21   22 ar 
    26    1   23 1  
    27    3   24 1  
    28    4   25 1  
    29    5   26 1  
    30    6   27 1  
    31    9   28 1  
    32   14   29 1  
    33   18   30 1  
    34   19   31 1  
    35   20   32 1  
    36   21   33 1  
    37   22   34 1  
@<TRIPOS>SUBSTRUCTURE
     1 3TX         1

