### 
### Created by X-TOOL on Mon Sep 10 21:13:23 2018
### 

@<TRIPOS>MOLECULE
4wrb_ligand
   45    48     1     0     0
SMALL
GAST_HUCK


@<TRIPOS>ATOM
      1 OAB       -16.6720   -2.7910    4.7230 O.3       1 3TW        -0.3364
      2 CAT       -16.3180   -2.5650    3.4490 C.ar      1 3TW         0.0825
      3 CAC       -14.9960   -2.7350    3.1010 C.ar      1 3TW        -0.0352
      4 CAE       -14.6000   -2.5140    1.7900 C.ar      1 3TW        -0.0307
      5 CAD       -17.2530   -2.1470    2.5320 C.ar      1 3TW        -0.0352
      6 CAF       -16.8750   -1.9190    1.2180 C.ar      1 3TW        -0.0307
      7 CAV       -15.5400   -2.0870    0.8520 C.ar      1 3TW         0.1136
      8 NBA       -15.1230   -1.8390   -0.4830 N.pl3     1 3TW        -0.1257
      9 CAL       -13.8990   -1.3390   -0.8060 C.2       1 3TW         0.1064
     10 NAP       -15.8820   -2.0300   -1.5950 N.2       1 3TW        -0.0773
     11 NAO       -15.1290   -1.6580   -2.6290 N.2       1 3TW        -0.2114
     12 CAX       -13.9100   -1.2320   -2.1790 C.2       1 3TW         0.0899
     13 CAW       -12.8850   -0.7840   -3.1450 C.ar      1 3TW         0.0439
     14 NAQ       -13.0580   -0.9610   -4.4630 N.ar      1 3TW        -0.3087
     15 CAH       -11.7190   -0.2070   -2.6480 C.ar      1 3TW        -0.0342
     16 CAI       -10.7180    0.1970   -3.5170 C.ar      1 3TW        -0.0433
     17 CAY       -10.9040    0.0160   -4.8710 C.ar      1 3TW        -0.0078
     18 CAK        -9.9210    0.4240   -5.7640 C.ar      1 3TW        -0.0231
     19 CAZ       -12.0930   -0.5700   -5.3270 C.ar      1 3TW         0.0295
     20 CAJ       -12.3010   -0.7640   -6.6840 C.ar      1 3TW        -0.0452
     21 CAG       -11.3180   -0.3660   -7.5800 C.ar      1 3TW        -0.0243
     22 CAU       -10.1360    0.2260   -7.1290 C.ar      1 3TW         0.0958
     23 OAS        -9.2110    0.6110   -8.0710 O.3       1 3TW        -0.3142
     24 CAN        -7.9780    1.2410   -7.7110 C.3       1 3TW         0.0941
     25 CAM        -7.1100    1.3260   -8.9510 C.3       1 3TW         0.0751
     26 OAR        -6.7870   -0.0090   -9.3320 O.3       1 3TW        -0.3803
     27 CAA        -5.6500   -0.0880  -10.1920 C.3       1 3TW         0.0366
     28 H1        -17.6041   -2.6378    4.8234 H         1 3TW         0.2465
     29 H2        -14.2702   -3.0394    3.8464 H         1 3TW         0.0531
     30 H3        -13.5684   -2.6719    1.4969 H         1 3TW         0.0573
     31 H4        -18.2827   -1.9962    2.8355 H         1 3TW         0.0531
     32 H5        -17.6099   -1.6131    0.4822 H         1 3TW         0.0573
     33 H6        -13.0880   -1.0801   -0.1270 H         1 3TW         0.1123
     34 H7        -11.5942   -0.0737   -1.5795 H         1 3TW         0.0663
     35 H8         -9.8067    0.6465   -3.1396 H         1 3TW         0.0727
     36 H9         -9.0071    0.8860   -5.4086 H         1 3TW         0.0525
     37 H10       -13.2178   -1.2198   -7.0402 H         1 3TW         0.0619
     38 H11       -11.4697   -0.5165   -8.6427 H         1 3TW         0.0617
     39 H12        -7.4674    0.6464   -6.9391 H         1 3TW         0.0638
     40 H13        -8.1752    2.2518   -7.3245 H         1 3TW         0.0638
     41 H14        -6.1904    1.8876   -8.7295 H         1 3TW         0.0587
     42 H15        -7.6592    1.8268   -9.7619 H         1 3TW         0.0587
     43 H16        -5.4557   -1.1402  -10.4471 H         1 3TW         0.0524
     44 H17        -4.7725    0.3330   -9.6794 H         1 3TW         0.0524
     45 H18        -5.8458    0.4822  -11.1121 H         1 3TW         0.0524
@<TRIPOS>BOND
     1    1    2 1  
     2    2    3 ar 
     3    2    5 ar 
     4    3    4 ar 
     5    4    7 ar 
     6    5    6 ar 
     7    6    7 ar 
     8    7    8 1  
     9    8    9 1  
    10    8   10 1  
    11    9   12 2  
    12   10   11 2  
    13   11   12 1  
    14   12   13 1  
    15   13   14 ar 
    16   13   15 ar 
    17   14   19 ar 
    18   15   16 ar 
    19   16   17 ar 
    20   17   18 ar 
    21   17   19 ar 
    22   18   22 ar 
    23   19   20 ar 
    24   20   21 ar 
    25   21   22 ar 
    26   22   23 1  
    27   23   24 1  
    28   24   25 1  
    29   25   26 1  
    30   26   27 1  
    31    1   28 1  
    32    3   29 1  
    33    4   30 1  
    34    5   31 1  
    35    6   32 1  
    36    9   33 1  
    37   15   34 1  
    38   16   35 1  
    39   18   36 1  
    40   20   37 1  
    41   21   38 1  
    42   24   39 1  
    43   24   40 1  
    44   25   41 1  
    45   25   42 1  
    46   27   43 1  
    47   27   44 1  
    48   27   45 1  
@<TRIPOS>SUBSTRUCTURE
     1 3TW         1

