### 
### Created by X-TOOL on Mon Sep 10 21:13:23 2018
### 

@<TRIPOS>MOLECULE
4wri_ligand
  124   130     1     0     0
SMALL
GAST_HUCK


@<TRIPOS>ATOM
      1 C1         25.6640   50.7130   57.6940 C.2       1 OKA         0.0761
      2 C2         25.6820   51.4380   59.0610 C.3       1 OKA         0.1097
      3 C3         26.8620   52.4070   59.1180 C.3       1 OKA         0.0053
      4 C4         26.8430   53.4740   58.0010 C.3       1 OKA         0.0447
      5 C5         28.1110   54.3120   58.0850 C.3       1 OKA        -0.0270
      6 C6         28.0310   55.5090   57.1350 C.3       1 OKA        -0.0339
      7 C7         26.7220   56.2980   57.3790 C.3       1 OKA         0.0604
      8 C8         25.5470   55.3420   57.2640 C.3       1 OKA         0.1391
      9 C9         24.2740   56.0370   57.6540 C.2       1 OKA        -0.0395
     10 C10        23.1670   55.9000   56.9020 C.2       1 OKA         0.0097
     11 C11        23.1370   55.1240   55.6230 C.3       1 OKA         0.0560
     12 C12        24.3820   54.1930   55.5810 C.3       1 OKA         0.0782
     13 C13        24.6130   53.6760   54.1520 C.3       1 OKA         0.0022
     14 C14        25.8250   52.7130   54.1600 C.2       1 OKA        -0.0907
     15 C15        26.9260   53.0500   53.4870 C.2       1 OKA        -0.0699
     16 C16        28.0890   52.1000   53.5580 C.3       1 OKA         0.0795
     17 C17        28.7090   51.6770   52.2000 C.3       1 OKA        -0.0148
     18 C18        30.2270   51.6740   52.4570 C.3       1 OKA         0.0055
     19 C19        30.3480   52.1920   53.9270 C.3       1 OKA         0.1734
     20 C20        31.5630   52.9890   54.1570 C.3       1 OKA         0.0040
     21 C21        31.6030   53.4090   55.6510 C.3       1 OKA        -0.0187
     22 C22        31.5500   52.1290   56.4810 C.3       1 OKA         0.0933
     23 C23        30.2770   51.3460   56.1190 C.3       1 OKA         0.1258
     24 C24        30.2500   50.0070   56.9280 C.3       1 OKA         0.1212
     25 C25        30.3830   50.4240   58.3750 C.2       1 OKA        -0.0118
     26 C26        31.5000   51.3450   58.7140 C.3       1 OKA         0.1222
     27 C27        32.8610   50.6140   58.7140 C.3       1 OKA         0.0935
     28 C28        32.8760   49.6110   59.8780 C.3       1 OKA        -0.0172
     29 C29        34.2340   48.9350   60.1280 C.3       1 OKA        -0.0146
     30 C30        33.9930   47.8790   61.2480 C.3       1 OKA         0.0671
     31 C31        33.6410   48.4200   62.6130 C.3       1 OKA        -0.0170
     32 C32        33.6030   47.3160   63.6700 C.3       1 OKA        -0.0432
     33 C33        34.7730   46.3420   63.5930 C.3       1 OKA         0.0017
     34 C34        35.0620   45.9940   62.1240 C.3       1 OKA         0.1703
     35 C35        36.4520   45.2670   62.0850 C.3       1 OKA         0.0015
     36 C36        36.6160   44.6730   60.6910 C.3       1 OKA        -0.0461
     37 C37        35.4450   43.7750   60.4130 C.3       1 OKA        -0.0292
     38 C38        34.1250   44.4960   60.5060 C.3       1 OKA         0.0509
     39 C39        34.5780   49.5440   63.0550 C.3       1 OKA        -0.0601
     40 C40        34.6760   48.1990   58.8550 C.3       1 OKA        -0.0600
     41 C41        29.5750   50.0160   59.3150 C.2       1 OKA        -0.1239
     42 C42        23.4160   52.8790   53.6680 C.3       1 OKA        -0.0531
     43 C43        21.9410   56.6160   57.4010 C.3       1 OKA         0.0182
     44 C44        25.7740   50.4160   60.1850 C.3       1 OKA        -0.0312
     45 O1         26.7150   50.1480   57.3880 O.co2     1 OKA        -0.5451
     46 O2         24.6410   50.7470   57.0050 O.co2     1 OKA        -0.5451
     47 O3         24.4720   52.1680   59.2200 O.3       1 OKA        -0.3851
     48 O4         25.6840   54.2940   58.2050 O.3       1 OKA        -0.4173
     49 O5         26.6450   57.3790   56.4140 O.3       1 OKA        -0.4027
     50 O6         25.5130   54.8620   55.9200 O.3       1 OKA        -0.4110
     51 O7         29.1180   52.8310   54.1540 O.3       1 OKA        -0.3362
     52 O8         30.3330   50.9930   54.7460 O.3       1 OKA        -0.3376
     53 O9         31.5460   52.5000   57.8620 O.3       1 OKA        -0.3528
     54 O10        29.1010   49.3090   56.6350 O.3       1 OKA        -0.3738
     55 O11        33.8710   51.5900   58.9150 O.3       1 OKA        -0.3867
     56 O12        35.2190   47.0920   61.3150 O.3       1 OKA        -0.3449
     57 O13        33.9990   45.1240   61.8310 O.3       1 OKA        -0.3486
     58 H1         27.7924   51.8271   59.0286 H         1 OKA         0.0310
     59 H2         26.8425   52.9214   60.0901 H         1 OKA         0.0310
     60 H3         26.7881   52.9886   57.0154 H         1 OKA         0.0579
     61 H4         28.9747   53.6891   57.8093 H         1 OKA         0.0290
     62 H5         28.2357   54.6763   59.1154 H         1 OKA         0.0290
     63 H6         28.0504   55.1499   56.0955 H         1 OKA         0.0278
     64 H7         28.8921   56.1705   57.3106 H         1 OKA         0.0278
     65 H8         26.7337   56.7261   58.3922 H         1 OKA         0.0465
     66 H9         24.2469   56.6551   58.5502 H         1 OKA         0.0430
     67 H10        23.1624   55.8161   54.7684 H         1 OKA         0.0713
     68 H11        22.2196   54.5188   55.5776 H         1 OKA         0.0713
     69 H12        24.2239   53.3496   56.2692 H         1 OKA         0.0659
     70 H13        24.7999   54.5238   53.4765 H         1 OKA         0.0449
     71 H14        25.7792   51.7729   54.7078 H         1 OKA         0.0454
     72 H15        26.9802   53.9728   52.9113 H         1 OKA         0.0475
     73 H16        27.8094   51.2109   54.1422 H         1 OKA         0.0722
     74 H17        28.4491   52.3988   51.4117 H         1 OKA         0.0311
     75 H18        28.3615   50.6748   51.9087 H         1 OKA         0.0311
     76 H19        30.7456   52.3474   51.7587 H         1 OKA         0.0319
     77 H20        30.6400   50.6589   52.3624 H         1 OKA         0.0319
     78 H21        31.5443   53.8857   53.5202 H         1 OKA         0.0318
     79 H22        32.4521   52.3873   53.9171 H         1 OKA         0.0318
     80 H23        30.7384   54.0469   55.8865 H         1 OKA         0.0293
     81 H24        32.5323   53.9578   55.8635 H         1 OKA         0.0293
     82 H25        32.4325   51.5076   56.2689 H         1 OKA         0.0627
     83 H26        29.3823   51.9493   56.3324 H         1 OKA         0.0677
     84 H27        31.1115   49.3809   56.6528 H         1 OKA         0.0820
     85 H28        31.3201   51.7043   59.7380 H         1 OKA         0.0822
     86 H29        33.0189   50.0904   57.7596 H         1 OKA         0.0647
     87 H30        32.1370   48.8252   59.6624 H         1 OKA         0.0296
     88 H31        32.5859   50.1457   60.7945 H         1 OKA         0.0296
     89 H32        34.9921   49.6719   60.4318 H         1 OKA         0.0324
     90 H33        33.1624   47.2307   60.9321 H         1 OKA         0.0602
     91 H34        32.6289   48.8447   62.5412 H         1 OKA         0.0323
     92 H35        32.6704   46.7468   63.5421 H         1 OKA         0.0270
     93 H36        33.6111   47.7881   64.6635 H         1 OKA         0.0270
     94 H37        34.5210   45.4236   64.1435 H         1 OKA         0.0317
     95 H38        35.6644   46.8052   64.0411 H         1 OKA         0.0317
     96 H39        36.4796   44.4676   62.8400 H         1 OKA         0.0317
     97 H40        37.2590   45.9875   62.2841 H         1 OKA         0.0317
     98 H41        37.5486   44.0916   60.6431 H         1 OKA         0.0268
     99 H42        36.6488   45.4809   59.9452 H         1 OKA         0.0268
    100 H43        35.4497   42.9536   61.1447 H         1 OKA         0.0287
    101 H44        35.5503   43.3630   59.3985 H         1 OKA         0.0287
    102 H45        33.3044   43.7779   60.3615 H         1 OKA         0.0561
    103 H46        34.0753   45.2711   59.7271 H         1 OKA         0.0561
    104 H47        34.5956   50.3304   62.2860 H         1 OKA         0.0233
    105 H48        35.5929   49.1427   63.1922 H         1 OKA         0.0233
    106 H49        34.2198   49.9679   64.0047 H         1 OKA         0.0233
    107 H50        34.8513   48.9294   58.0514 H         1 OKA         0.0233
    108 H51        33.8887   47.4957   58.5459 H         1 OKA         0.0233
    109 H52        35.6047   47.6447   59.0556 H         1 OKA         0.0233
    110 H53        28.7550   49.3414   59.0732 H         1 OKA         0.0077
    111 H54        29.7207   50.3501   60.3412 H         1 OKA         0.0077
    112 H55        23.6038   52.5200   52.6453 H         1 OKA         0.0253
    113 H56        22.5222   53.5202   53.6731 H         1 OKA         0.0253
    114 H57        23.2542   52.0190   54.3345 H         1 OKA         0.0253
    115 H58        22.1726   57.1218   58.3499 H         1 OKA         0.0651
    116 H59        21.1314   55.8888   57.5613 H         1 OKA         0.0651
    117 H60        21.6229   57.3608   56.6566 H         1 OKA         0.0651
    118 H61        24.9170   49.7288   60.1267 H         1 OKA         0.0249
    119 H62        25.7623   50.9353   61.1546 H         1 OKA         0.0249
    120 H63        26.7091   49.8452   60.0860 H         1 OKA         0.0249
    121 H64        24.3951   52.8074   58.5216 H         1 OKA         0.2089
    122 H65        27.3961   57.9510   56.5203 H         1 OKA         0.2080
    123 H66        28.3447   49.8471   56.8373 H         1 OKA         0.2138
    124 H67        34.7189   51.1632   58.9542 H         1 OKA         0.2102
@<TRIPOS>BOND
     1    1    2 1  
     2    1   45 ar 
     3    1   46 ar 
     4    2    3 1  
     5    2   44 1  
     6    2   47 1  
     7    3    4 1  
     8    4    5 1  
     9    4   48 1  
    10    5    6 1  
    11    6    7 1  
    12    7    8 1  
    13    7   49 1  
    14    8    9 1  
    15    8   48 1  
    16    8   50 1  
    17    9   10 2  
    18   10   11 1  
    19   10   43 1  
    20   11   12 1  
    21   12   13 1  
    22   12   50 1  
    23   13   14 1  
    24   13   42 1  
    25   14   15 2  
    26   15   16 1  
    27   16   17 1  
    28   16   51 1  
    29   17   18 1  
    30   18   19 1  
    31   19   20 1  
    32   19   51 1  
    33   19   52 1  
    34   20   21 1  
    35   21   22 1  
    36   22   23 1  
    37   22   53 1  
    38   23   24 1  
    39   23   52 1  
    40   24   25 1  
    41   24   54 1  
    42   25   26 1  
    43   25   41 2  
    44   26   27 1  
    45   26   53 1  
    46   27   28 1  
    47   27   55 1  
    48   28   29 1  
    49   29   30 1  
    50   29   40 1  
    51   30   31 1  
    52   30   56 1  
    53   31   32 1  
    54   31   39 1  
    55   32   33 1  
    56   33   34 1  
    57   34   35 1  
    58   34   56 1  
    59   34   57 1  
    60   35   36 1  
    61   36   37 1  
    62   37   38 1  
    63   38   57 1  
    64    3   58 1  
    65    3   59 1  
    66    4   60 1  
    67    5   61 1  
    68    5   62 1  
    69    6   63 1  
    70    6   64 1  
    71    7   65 1  
    72    9   66 1  
    73   11   67 1  
    74   11   68 1  
    75   12   69 1  
    76   13   70 1  
    77   14   71 1  
    78   15   72 1  
    79   16   73 1  
    80   17   74 1  
    81   17   75 1  
    82   18   76 1  
    83   18   77 1  
    84   20   78 1  
    85   20   79 1  
    86   21   80 1  
    87   21   81 1  
    88   22   82 1  
    89   23   83 1  
    90   24   84 1  
    91   26   85 1  
    92   27   86 1  
    93   28   87 1  
    94   28   88 1  
    95   29   89 1  
    96   30   90 1  
    97   31   91 1  
    98   32   92 1  
    99   32   93 1  
   100   33   94 1  
   101   33   95 1  
   102   35   96 1  
   103   35   97 1  
   104   36   98 1  
   105   36   99 1  
   106   37  100 1  
   107   37  101 1  
   108   38  102 1  
   109   38  103 1  
   110   39  104 1  
   111   39  105 1  
   112   39  106 1  
   113   40  107 1  
   114   40  108 1  
   115   40  109 1  
   116   41  110 1  
   117   41  111 1  
   118   42  112 1  
   119   42  113 1  
   120   42  114 1  
   121   43  115 1  
   122   43  116 1  
   123   43  117 1  
   124   44  118 1  
   125   44  119 1  
   126   44  120 1  
   127   47  121 1  
   128   49  122 1  
   129   54  123 1  
   130   55  124 1  
@<TRIPOS>SUBSTRUCTURE
     1 OKA         1

