### 
### Created by X-TOOL on Mon Sep 10 21:13:23 2018
### 

@<TRIPOS>MOLECULE
4wrs_ligand
   54    59     1     0     0
SMALL
GAST_HUCK


@<TRIPOS>ATOM
      1 F01       -43.8530   -3.0580    3.6160 F         1 3U1        -0.1838
      2 C02       -44.7770   -2.1080    3.8020 C.ar      1 3U1         0.1377
      3 C03       -45.3310   -1.9690    5.0790 C.ar      1 3U1        -0.0324
      4 C04       -46.2970   -0.9910    5.3290 C.ar      1 3U1        -0.0663
      5 C05       -46.7040   -0.1480    4.2940 C.ar      1 3U1        -0.0324
      6 C06       -46.1460   -0.2870    3.0140 C.ar      1 3U1         0.1377
      7 F07       -46.5690    0.5500    2.0510 F         1 3U1        -0.1838
      8 C08       -45.1650   -1.2690    2.7440 C.ar      1 3U1         0.0446
      9 C09       -44.6070   -1.4140    1.4360 C.ar      1 3U1        -0.0268
     10 C10       -45.4620   -1.2800    0.3160 C.ar      1 3U1        -0.0628
     11 C11       -44.9770   -1.4110   -0.9870 C.ar      1 3U1        -0.0333
     12 C12       -43.6070   -1.6910   -1.2140 C.ar      1 3U1         0.0927
     13 N13       -42.9020   -1.8840   -2.3830 N.pl3     1 3U1        -0.2060
     14 N14       -41.6170   -2.1350   -2.0720 N.2       1 3U1        -0.1847
     15 C15       -41.4510   -2.1140   -0.7330 C.2       1 3U1         0.0891
     16 C16       -40.2290   -2.3730   -0.0950 C.ar      1 3U1         0.0778
     17 C17       -39.0620   -2.5400   -0.8510 C.ar      1 3U1         0.0343
     18 N18       -37.8750   -2.8160   -0.2610 N.ar      1 3U1        -0.2844
     19 C19       -37.8300   -2.9490    1.0840 C.ar      1 3U1         0.0679
     20 C20       -38.9900   -2.8030    1.8510 C.ar      1 3U1         0.1912
     21 O21       -38.8870   -2.9680    3.2700 O.3       1 3U1        -0.2827
     22 C22       -40.1210   -2.8120    4.0130 C.3       1 3U1         0.1317
     23 C23       -40.7270   -4.1680    4.4150 C.3       1 3U1        -0.0010
     24 N24       -40.0290   -4.8600    5.5260 N.4       1 3U1         0.2292
     25 C25       -39.6590   -3.9700    6.6510 C.3       1 3U1        -0.0330
     26 C26       -38.9260   -2.7230    6.1530 C.3       1 3U1        -0.0040
     27 C27       -39.7680   -1.9830    5.1820 C.3       1 3U1         0.0119
     28 C28       -40.7510   -1.0140    5.8170 C.3       1 3U1        -0.0436
     29 C29       -39.4650   -0.4940    5.1960 C.3       1 3U1        -0.0436
     30 N30       -40.1720   -2.5220    1.2470 N.ar      1 3U1        -0.2485
     31 C31       -42.7390   -1.8390   -0.1520 C.ar      1 3U1         0.0221
     32 C32       -43.2350   -1.6980    1.1950 C.ar      1 3U1        -0.0560
     33 H1        -45.0087   -2.6245    5.8799 H         1 3U1         0.0567
     34 H2        -46.7268   -0.8879    6.3188 H         1 3U1         0.0590
     35 H3        -47.4517    0.6147    4.4790 H         1 3U1         0.0567
     36 H4        -46.5142   -1.0716    0.4728 H         1 3U1         0.0581
     37 H5        -45.6515   -1.2980   -1.8280 H         1 3U1         0.0566
     38 H6        -43.2933   -1.8429   -3.3349 H         1 3U1         0.2507
     39 H7        -39.1100   -2.4464   -1.9299 H         1 3U1         0.0817
     40 H8        -36.8874   -3.1705    1.5713 H         1 3U1         0.0831
     41 H9        -40.8576   -2.2780    3.3947 H         1 3U1         0.0718
     42 H10       -40.7043   -4.8268    3.5344 H         1 3U1         0.0844
     43 H11       -41.7703   -3.9990    4.7198 H         1 3U1         0.0844
     44 H12       -39.1868   -5.2765    5.1609 H         1 3U1         0.2014
     45 H13       -40.6354   -5.5832    5.8800 H         1 3U1         0.2014
     46 H14       -39.0030   -4.5194    7.3422 H         1 3U1         0.0814
     47 H15       -40.5729   -3.6615    7.1798 H         1 3U1         0.0814
     48 H16       -37.9882   -3.0247    5.6637 H         1 3U1         0.0323
     49 H17       -38.6995   -2.0696    7.0084 H         1 3U1         0.0323
     50 H18       -40.8799   -0.9982    6.9093 H         1 3U1         0.0272
     51 H19       -41.7170   -0.8130    5.3308 H         1 3U1         0.0272
     52 H20       -39.5003    0.0833    4.2603 H         1 3U1         0.0272
     53 H21       -38.6631   -0.1019    5.8388 H         1 3U1         0.0272
     54 H22       -42.5550   -1.8097    2.0318 H         1 3U1         0.0589
@<TRIPOS>BOND
     1    1    2 1  
     2    2    3 ar 
     3    2    8 ar 
     4    3    4 ar 
     5    4    5 ar 
     6    5    6 ar 
     7    6    7 1  
     8    6    8 ar 
     9    8    9 1  
    10    9   10 ar 
    11    9   32 ar 
    12   10   11 ar 
    13   11   12 ar 
    14   12   13 1  
    15   12   31 ar 
    16   13   14 1  
    17   14   15 2  
    18   15   16 1  
    19   15   31 1  
    20   16   17 ar 
    21   16   30 ar 
    22   17   18 ar 
    23   18   19 ar 
    24   19   20 ar 
    25   20   21 1  
    26   20   30 ar 
    27   21   22 1  
    28   22   23 1  
    29   22   27 1  
    30   23   24 1  
    31   24   25 1  
    32   25   26 1  
    33   26   27 1  
    34   27   28 1  
    35   27   29 1  
    36   28   29 1  
    37   31   32 ar 
    38    3   33 1  
    39    4   34 1  
    40    5   35 1  
    41   10   36 1  
    42   11   37 1  
    43   13   38 1  
    44   17   39 1  
    45   19   40 1  
    46   22   41 1  
    47   23   42 1  
    48   23   43 1  
    49   24   44 1  
    50   24   45 1  
    51   25   46 1  
    52   25   47 1  
    53   26   48 1  
    54   26   49 1  
    55   28   50 1  
    56   28   51 1  
    57   29   52 1  
    58   29   53 1  
    59   32   54 1  
@<TRIPOS>SUBSTRUCTURE
     1 3U1         1

