### 
### Created by X-TOOL on Mon Sep 10 21:13:17 2018
### 

@<TRIPOS>MOLECULE
4wsj_ligand
   31    31     1     0     0
SMALL
GAST_HUCK


@<TRIPOS>ATOM
      1 CAK        26.7490    4.5360   55.6400 C.3       1 3U3        -0.0579
      2 CAB        28.1490    5.0390   56.0700 C.3       1 3U3         0.0078
      3 CAC        29.2800    4.5230   55.1420 C.3       1 3U3         0.0881
      4 OAJ        28.9090    4.7970   53.7310 O.3       1 3U3        -0.3888
      5 CAD        30.5450    5.2530   55.4440 C.3       1 3U3         0.1072
      6 OAI        31.6500    4.5340   54.8000 O.3       1 3U3        -0.3867
      7 CAE        30.4440    6.6040   55.0020 C.3       1 3U3         0.0856
      8 OAH        31.6660    7.3500   55.5150 O.3       1 3U3        -0.3891
      9 CAF        29.2450    7.3600   55.4210 C.3       1 3U3        -0.0009
     10 CAA        28.1400    6.5540   56.2080 C.3       1 3U3         0.0494
     11 NAG        28.2620    6.8240   57.6830 N.am      1 3U3        -0.2837
     12 CAL        27.7710    7.9520   58.1460 C.2       1 3U3         0.1731
     13 OAM        27.2830    8.8780   57.4790 O.2       1 3U3        -0.3974
     14 CAN        27.9600    8.1110   59.6640 C.3       1 3U3         0.0257
     15 H1         26.7668    3.4404   55.5433 H         1 3U3         0.0234
     16 H2         26.4791    4.9851   54.6728 H         1 3U3         0.0234
     17 H3         26.0066    4.8251   56.3984 H         1 3U3         0.0234
     18 H4         28.3494    4.6249   57.0692 H         1 3U3         0.0346
     19 H5         29.4237    3.4429   55.2926 H         1 3U3         0.0623
     20 H6         29.5979    4.4832   53.1569 H         1 3U3         0.2099
     21 H7         30.7113    5.2556   56.5313 H         1 3U3         0.0645
     22 H8         31.6923    3.6487   55.1421 H         1 3U3         0.2100
     23 H9         30.4591    6.5933   53.9022 H         1 3U3         0.0621
     24 H10        31.6832    7.3125   56.4642 H         1 3U3         0.2099
     25 H11        28.7761    7.7709   54.5148 H         1 3U3         0.0313
     26 H12        29.5797    8.1850   56.0670 H         1 3U3         0.0313
     27 H13        27.1647    6.9172   55.8520 H         1 3U3         0.0560
     28 H14        28.7032    6.1654   58.2926 H         1 3U3         0.1854
     29 H15        27.5302    9.0702   59.9885 H         1 3U3         0.0467
     30 H16        29.0333    8.0903   59.9041 H         1 3U3         0.0467
     31 H17        27.4517    7.2864   60.1852 H         1 3U3         0.0467
@<TRIPOS>BOND
     1    1    2 1  
     2    2    3 1  
     3    2   10 1  
     4    3    4 1  
     5    3    5 1  
     6    5    6 1  
     7    5    7 1  
     8    7    8 1  
     9    7    9 1  
    10    9   10 1  
    11   10   11 1  
    12   11   12 am 
    13   12   13 2  
    14   12   14 1  
    15    1   15 1  
    16    1   16 1  
    17    1   17 1  
    18    2   18 1  
    19    3   19 1  
    20    4   20 1  
    21    5   21 1  
    22    6   22 1  
    23    7   23 1  
    24    8   24 1  
    25    9   25 1  
    26    9   26 1  
    27   10   27 1  
    28   11   28 1  
    29   14   29 1  
    30   14   30 1  
    31   14   31 1  
@<TRIPOS>SUBSTRUCTURE
     1 3U3         1

