### 
### Created by X-TOOL on Mon Sep 10 21:13:18 2018
### 

@<TRIPOS>MOLECULE
4wsk_ligand
   28    28     1     0     0
SMALL
GAST_HUCK


@<TRIPOS>ATOM
      1 CAK        26.8130    4.7710   55.5200 C.3       1 3U2        -0.0579
      2 CAB        28.2240    5.1100   56.0120 C.3       1 3U2         0.0080
      3 CAC        29.3020    4.5050   55.0460 C.3       1 3U2         0.0881
      4 OAJ        28.9150    4.8170   53.6360 O.3       1 3U2        -0.3888
      5 CAD        30.6860    5.1120   55.3600 C.3       1 3U2         0.1072
      6 OAI        31.7400    4.3290   54.7730 O.3       1 3U2        -0.3867
      7 CAE        30.7340    6.5930   54.8830 C.3       1 3U2         0.0856
      8 OAH        31.8650    7.2940   55.4820 O.3       1 3U2        -0.3891
      9 CAF        29.3070    7.3390   55.0010 C.3       1 3U2        -0.0007
     10 CAA        28.4250    6.6290   56.1810 C.3       1 3U2         0.0497
     11 NAG        28.9460    6.8990   57.5820 N.am      1 3U2        -0.2850
     12 CAL        28.7260    8.0570   58.2890 C.2       1 3U2         0.1696
     13 OAM        28.0910    9.0440   57.8720 O.2       1 3U2        -0.3831
     14 H1         26.7139    3.6806   55.4137 H         1 3U2         0.0234
     15 H2         26.6389    5.2516   54.5460 H         1 3U2         0.0234
     16 H3         26.0733    5.1372   56.2471 H         1 3U2         0.0234
     17 H4         28.3553    4.6445   56.9999 H         1 3U2         0.0346
     18 H5         29.3452    3.4142   55.1813 H         1 3U2         0.0623
     19 H6         29.5627    4.4541   53.0433 H         1 3U2         0.2099
     20 H7         30.8262    5.1006   56.4510 H         1 3U2         0.0645
     21 H8         31.7087    3.4459   55.1217 H         1 3U2         0.2100
     22 H9         30.9490    6.5573   53.8048 H         1 3U2         0.0621
     23 H10        31.8753    8.1940   55.1781 H         1 3U2         0.2099
     24 H11        28.7709    7.2612   54.0437 H         1 3U2         0.0313
     25 H12        29.4654    8.3992   55.2475 H         1 3U2         0.0313
     26 H13        27.4265    7.0865   56.1200 H         1 3U2         0.0562
     27 H14        29.4880    6.1828   58.0216 H         1 3U2         0.1863
     28 H15        29.1401    8.1163   59.2944 H         1 3U2         0.1544
@<TRIPOS>BOND
     1    1    2 1  
     2    2    3 1  
     3    2   10 1  
     4    3    4 1  
     5    3    5 1  
     6    5    6 1  
     7    5    7 1  
     8    7    8 1  
     9    7    9 1  
    10    9   10 1  
    11   10   11 1  
    12   11   12 am 
    13   12   13 2  
    14    1   14 1  
    15    1   15 1  
    16    1   16 1  
    17    2   17 1  
    18    3   18 1  
    19    4   19 1  
    20    5   20 1  
    21    6   21 1  
    22    7   22 1  
    23    8   23 1  
    24    9   24 1  
    25    9   25 1  
    26   10   26 1  
    27   11   27 1  
    28   12   28 1  
@<TRIPOS>SUBSTRUCTURE
     1 3U2         1

