### 
### Created by X-TOOL on Mon Sep 10 21:13:23 2018
### 

@<TRIPOS>MOLECULE
4wsy_ligand
   38    42     1     0     0
SMALL
GAST_HUCK


@<TRIPOS>ATOM
      1 C12        22.8820  -40.0570   -2.3950 C.ar      1 3U5        -0.0265
      2 C11        23.0150  -40.2420   -3.7660 C.ar      1 3U5         0.0041
      3 C16        24.1900  -40.7770   -4.2870 C.ar      1 3U5        -0.0476
      4 C15        24.3100  -40.9660   -5.6650 C.ar      1 3U5        -0.0570
      5 C14        23.2590  -40.6160   -6.5070 C.ar      1 3U5        -0.0569
      6 C13        22.0820  -40.0780   -5.9840 C.ar      1 3U5        -0.0404
      7 C10        21.9680  -39.9000   -4.6140 C.ar      1 3U5         0.0455
      8 N3         20.8400  -39.3810   -4.1130 N.ar      1 3U5        -0.2937
      9 C9         20.6890  -39.1920   -2.8080 C.ar      1 3U5         0.0233
     10 C8         21.7040  -39.5030   -1.9010 C.ar      1 3U5         0.0540
     11 C7         21.5070  -39.3270   -0.5250 C.2       1 3U5         0.1425
     12 C2         20.6530  -38.3960    0.0280 C.ar      1 3U5         0.0298
     13 C3         19.8450  -37.4030   -0.4900 C.ar      1 3U5        -0.0466
     14 N2         22.0150  -40.0340    0.4890 N.pl3     1 3U5        -0.2310
     15 N1         21.5700  -39.6160    1.5690 N.2       1 3U5        -0.2949
     16 C1         20.7360  -38.6090    1.3840 C.ar      1 3U5         0.0014
     17 C6         20.0050  -37.8400    2.2580 C.ar      1 3U5        -0.0595
     18 C5         19.1850  -36.8430    1.7620 C.ar      1 3U5        -0.0597
     19 C4         19.1270  -36.6190    0.3900 C.ar      1 3U5        -0.0190
     20 C17        18.2780  -35.6550   -0.1020 C.2       1 3U5         0.0416
     21 S1         17.9690  -35.5390   -1.7350 S.3       1 3U5         0.0203
     22 C19        17.5230  -34.7550    0.5440 C.2       1 3U5        -0.0263
     23 N4         16.7670  -33.9940   -0.2640 N.2       1 3U5        -0.3114
     24 C18        16.9120  -34.3170   -1.5450 C.2       1 3U5         0.1821
     25 N5         16.2860  -33.7850   -2.5590 N.pl3     1 3U5        -0.2959
     26 H1         23.6826  -40.3395   -1.7210 H         1 3U5         0.0745
     27 H2         25.0068  -41.0452   -3.6267 H         1 3U5         0.0646
     28 H3         25.2204  -41.3847   -6.0783 H         1 3U5         0.0639
     29 H4         23.3550  -40.7622   -7.5768 H         1 3U5         0.0642
     30 H5         21.2659  -39.8024   -6.6421 H         1 3U5         0.0643
     31 H6         19.7547  -38.7862   -2.4372 H         1 3U5         0.0889
     32 H7         19.7765  -37.2435   -1.5600 H         1 3U5         0.0590
     33 H8         22.6803  -40.8138    0.3883 H         1 3U5         0.2894
     34 H9         20.0707  -38.0135    3.3260 H         1 3U5         0.0608
     35 H10        18.5907  -36.2393    2.4384 H         1 3U5         0.0581
     36 H11        17.5228  -34.6503    1.6280 H         1 3U5         0.0578
     37 H12        15.6224  -33.0122   -2.4066 H         1 3U5         0.1880
     38 H13        16.4555  -34.1380   -3.5117 H         1 3U5         0.1880
@<TRIPOS>BOND
     1    1    2 ar 
     2    1   10 ar 
     3    2    3 ar 
     4    2    7 ar 
     5    3    4 ar 
     6    4    5 ar 
     7    5    6 ar 
     8    6    7 ar 
     9    7    8 ar 
    10    8    9 ar 
    11    9   10 ar 
    12   10   11 1  
    13   11   12 2  
    14   11   14 1  
    15   12   13 ar 
    16   12   16 ar 
    17   13   19 ar 
    18   14   15 1  
    19   15   16 2  
    20   16   17 ar 
    21   17   18 ar 
    22   18   19 ar 
    23   19   20 1  
    24   20   21 1  
    25   20   22 2  
    26   21   24 1  
    27   22   23 1  
    28   23   24 2  
    29   24   25 1  
    30    1   26 1  
    31    3   27 1  
    32    4   28 1  
    33    5   29 1  
    34    6   30 1  
    35    9   31 1  
    36   13   32 1  
    37   14   33 1  
    38   17   34 1  
    39   18   35 1  
    40   22   36 1  
    41   25   37 1  
    42   25   38 1  
@<TRIPOS>SUBSTRUCTURE
     1 3U5         1

