### 
### Created by X-TOOL on Mon Sep 10 21:13:17 2018
### 

@<TRIPOS>MOLECULE
4wt2_ligand
   90    94     1     0     0
SMALL
GAST_HUCK


@<TRIPOS>ATOM
      1 C34        12.4270  -31.9440   -0.6230 C.3       1 3UD         0.0600
      2 O5         11.3490  -32.8580   -0.7620 O.3       1 3UD        -0.3217
      3 C31        10.1880  -32.3630   -1.2940 C.ar      1 3UD         0.0925
      4 C32        10.0680  -31.0340   -1.7280 C.ar      1 3UD        -0.0099
      5 C30         9.0950  -33.2240   -1.4020 C.ar      1 3UD         0.0234
      6 C33         9.2020  -34.6750   -0.9360 C.2       1 3UD         0.0485
      7 O7          8.5690  -35.0030    0.0880 O.co2     1 3UD        -0.5683
      8 O6          9.9160  -35.4470   -1.6090 O.co2     1 3UD        -0.5683
      9 C29         7.8970  -32.7670   -1.9380 C.ar      1 3UD        -0.0689
     10 C28         7.7850  -31.4460   -2.3680 C.ar      1 3UD        -0.0480
     11 C27         8.8600  -30.5650   -2.2670 C.ar      1 3UD         0.0605
     12 N2          8.6530  -29.3060   -2.7210 N.am      1 3UD        -0.2345
     13 C20         9.4230  -28.2300   -2.4980 C.2       1 3UD         0.2039
     14 O2         10.4280  -28.1890   -1.7950 O.2       1 3UD        -0.3845
     15 C19         8.9480  -26.9570   -3.2220 C.3       1 3UD         0.0557
     16 C18         8.3350  -25.8930   -2.3270 C.3       1 3UD         0.0682
     17 C5          9.4030  -25.1920   -1.4770 C.3       1 3UD        -0.0222
     18 C26         7.2890  -26.5130   -1.3860 C.3       1 3UD        -0.0506
     19 C17         7.5810  -24.8800   -3.2020 C.2       1 3UD         0.2090
     20 O1          6.5100  -25.2260   -3.6960 O.2       1 3UD        -0.3438
     21 N1          8.0970  -23.6090   -3.4900 N.am      1 3UD        -0.2506
     22 C11         7.2690  -22.6160   -4.2050 C.3       1 3UD         0.0698
     23 C12         6.9440  -23.0100   -5.6430 C.3       1 3UD        -0.0159
     24 C35         6.4650  -21.8360   -6.5030 C.3       1 3UD        -0.0477
     25 C36         7.8560  -22.4270   -6.7210 C.3       1 3UD        -0.0477
     26 C13         5.9820  -22.3930   -3.3840 C.3       1 3UD         0.0900
     27 S1          6.2510  -21.7730   -1.6870 S.o2      1 3UD        -0.0240
     28 O3          6.9830  -20.4830   -1.7700 O.2       1 3UD        -0.1738
     29 O4          6.9780  -22.7870   -0.8570 O.2       1 3UD        -0.1738
     30 C14         4.6290  -21.5230   -0.8970 C.3       1 3UD         0.0795
     31 C16         3.8290  -20.5440   -1.7560 C.3       1 3UD        -0.0405
     32 C37         3.9470  -22.8950   -0.8180 C.3       1 3UD        -0.0405
     33 C15         4.8650  -20.9380    0.5020 C.3       1 3UD        -0.0405
     34 C2          9.3590  -23.1120   -2.9160 C.3       1 3UD         0.0903
     35 C1         10.2070  -22.3230   -3.9460 C.ar      1 3UD        -0.0170
     36 C25        10.7220  -22.9400   -5.0830 C.ar      1 3UD        -0.0239
     37 C24        11.4900  -22.1910   -5.9590 C.ar      1 3UD         0.1401
     38 F1         11.9520  -22.8150   -7.0520 F         1 3UD        -0.1844
     39 C23        11.7610  -20.8490   -5.7070 C.ar      1 3UD         0.0659
     40 CL2        12.7630  -19.9210   -6.7790 Cl        1 3UD        -0.0785
     41 C22        11.2600  -20.2320   -4.5760 C.ar      1 3UD        -0.0563
     42 C21        10.4810  -20.9840   -3.6970 C.ar      1 3UD        -0.0613
     43 C3         10.2480  -24.2490   -2.3350 C.3       1 3UD         0.0256
     44 C4         11.4110  -23.5820   -1.5460 C.ar      1 3UD        -0.0354
     45 C10        12.7020  -23.5550   -2.0880 C.ar      1 3UD        -0.0460
     46 C9         13.7380  -22.9480   -1.3990 C.ar      1 3UD         0.0338
     47 CL1        15.3220  -22.9300   -2.0980 Cl        1 3UD        -0.0725
     48 C8         13.5150  -22.3480   -0.1710 C.ar      1 3UD        -0.0548
     49 C7         12.2410  -22.3730    0.3780 C.ar      1 3UD        -0.0680
     50 C6         11.1880  -22.9840   -0.3060 C.ar      1 3UD        -0.0597
     51 H          13.2936  -32.4627   -0.1873 H         1 3UD         0.0579
     52 H          12.1244  -31.1177    0.0371 H         1 3UD         0.0579
     53 H          12.6980  -31.5436   -1.6110 H         1 3UD         0.0579
     54 H          10.9159  -30.3636   -1.6462 H         1 3UD         0.0426
     55 H           7.0497  -33.4379   -2.0216 H         1 3UD         0.0586
     56 H           6.8476  -31.0987   -2.7873 H         1 3UD         0.0425
     57 H           7.8384  -29.1628   -3.2831 H         1 3UD         0.2268
     58 H           8.1937  -27.2507   -3.9668 H         1 3UD         0.0500
     59 H           9.8148  -26.5131   -3.7334 H         1 3UD         0.0500
     60 H          10.0577  -25.9505   -1.0232 H         1 3UD         0.0285
     61 H           8.9089  -24.6121   -0.6836 H         1 3UD         0.0285
     62 H           6.5153  -27.0201   -1.9811 H         1 3UD         0.0223
     63 H           6.8251  -25.7205   -0.7804 H         1 3UD         0.0223
     64 H           7.7783  -27.2420   -0.7233 H         1 3UD         0.0223
     65 H           7.8285  -21.6696   -4.2419 H         1 3UD         0.0581
     66 H           6.5193  -24.0218   -5.7194 H         1 3UD         0.0324
     67 H           6.3556  -20.8362   -6.0575 H         1 3UD         0.0269
     68 H           5.6775  -21.9904   -7.2554 H         1 3UD         0.0269
     69 H           8.0704  -23.0060   -7.6314 H         1 3UD         0.0269
     70 H           8.7485  -21.8519   -6.4335 H         1 3UD         0.0269
     71 H           5.4488  -23.3528   -3.3167 H         1 3UD         0.0523
     72 H           5.3571  -21.6631   -3.9195 H         1 3UD         0.0523
     73 H           2.8428  -20.3762   -1.2987 H         1 3UD         0.0251
     74 H           3.6989  -20.9629   -2.7647 H         1 3UD         0.0251
     75 H           4.3695  -19.5883   -1.8227 H         1 3UD         0.0251
     76 H           2.9599  -22.7870   -0.3448 H         1 3UD         0.0251
     77 H           4.5673  -23.5790   -0.2202 H         1 3UD         0.0251
     78 H           3.8247  -23.3027   -1.8323 H         1 3UD         0.0251
     79 H           3.8976  -20.7777    1.0004 H         1 3UD         0.0251
     80 H           5.3952  -19.9783    0.4135 H         1 3UD         0.0251
     81 H           5.4712  -21.6386    1.0949 H         1 3UD         0.0251
     82 H           9.0962  -22.4302   -2.0938 H         1 3UD         0.0750
     83 H          10.5254  -23.9878   -5.2791 H         1 3UD         0.0543
     84 H          11.4680  -19.1870   -4.3768 H         1 3UD         0.0596
     85 H          10.0825  -20.5157   -2.8043 H         1 3UD         0.0524
     86 H          10.6760  -24.8323   -3.1636 H         1 3UD         0.0505
     87 H          12.8912  -24.0120   -3.0526 H         1 3UD         0.0562
     88 H          14.3284  -21.8632    0.3566 H         1 3UD         0.0565
     89 H          12.0619  -21.9153    1.3442 H         1 3UD         0.0599
     90 H          10.1947  -22.9935    0.1280 H         1 3UD         0.0558
@<TRIPOS>BOND
     1    1    2 1  
     2    2    3 1  
     3    3    4 ar 
     4    3    5 ar 
     5    4   11 ar 
     6    5    6 1  
     7    5    9 ar 
     8    6    7 ar 
     9    6    8 ar 
    10    9   10 ar 
    11   10   11 ar 
    12   11   12 1  
    13   12   13 am 
    14   13   14 2  
    15   13   15 1  
    16   15   16 1  
    17   16   17 1  
    18   16   18 1  
    19   16   19 1  
    20   17   43 1  
    21   19   20 2  
    22   19   21 am 
    23   21   22 1  
    24   21   34 1  
    25   22   23 1  
    26   22   26 1  
    27   23   24 1  
    28   23   25 1  
    29   24   25 1  
    30   26   27 1  
    31   27   28 2  
    32   27   29 2  
    33   27   30 1  
    34   30   31 1  
    35   30   32 1  
    36   30   33 1  
    37   34   35 1  
    38   34   43 1  
    39   35   36 ar 
    40   35   42 ar 
    41   36   37 ar 
    42   37   38 1  
    43   37   39 ar 
    44   39   40 1  
    45   39   41 ar 
    46   41   42 ar 
    47   43   44 1  
    48   44   45 ar 
    49   44   50 ar 
    50   45   46 ar 
    51   46   47 1  
    52   46   48 ar 
    53   48   49 ar 
    54   49   50 ar 
    55    1   51 1  
    56    1   52 1  
    57    1   53 1  
    58    4   54 1  
    59    9   55 1  
    60   10   56 1  
    61   12   57 1  
    62   15   58 1  
    63   15   59 1  
    64   17   60 1  
    65   17   61 1  
    66   18   62 1  
    67   18   63 1  
    68   18   64 1  
    69   22   65 1  
    70   23   66 1  
    71   24   67 1  
    72   24   68 1  
    73   25   69 1  
    74   25   70 1  
    75   26   71 1  
    76   26   72 1  
    77   31   73 1  
    78   31   74 1  
    79   31   75 1  
    80   32   76 1  
    81   32   77 1  
    82   32   78 1  
    83   33   79 1  
    84   33   80 1  
    85   33   81 1  
    86   34   82 1  
    87   36   83 1  
    88   41   84 1  
    89   42   85 1  
    90   43   86 1  
    91   45   87 1  
    92   48   88 1  
    93   49   89 1  
    94   50   90 1  
@<TRIPOS>SUBSTRUCTURE
     1 3UD         1

