### 
### Created by X-TOOL on Mon Sep 10 21:13:23 2018
### 

@<TRIPOS>MOLECULE
4wt6_ligand
   47    51     1     0     0
SMALL
GAST_HUCK


@<TRIPOS>ATOM
      1 C17       -40.3810   -2.8630    5.3650 C.3       1 3U6        -0.0301
      2 C18       -39.0650   -2.1620    5.1070 C.3       1 3U6        -0.0509
      3 C19       -39.5230   -0.7400    4.8090 C.3       1 3U6        -0.0509
      4 C20       -40.7430   -0.9380    3.9050 C.3       1 3U6        -0.0301
      5 C16       -41.3200   -2.3100    4.2850 C.3       1 3U6         0.0379
      6 N6        -42.6930   -2.1790    4.8470 N.pl3     1 3U6        -0.3069
      7 C15       -43.7630   -1.9090    4.1030 C.ar      1 3U6         0.1002
      8 N5        -43.6450   -1.8760    2.7670 N.ar      1 3U6        -0.2956
      9 C14       -44.9790   -1.6420    4.7170 C.ar      1 3U6        -0.0242
     10 C13       -46.0780   -1.3380    3.9160 C.ar      1 3U6        -0.0618
     11 C12       -45.9320   -1.3190    2.5330 C.ar      1 3U6        -0.0522
     12 C9        -44.6830   -1.5860    1.9630 C.ar      1 3U6         0.0132
     13 C8        -44.5180   -1.5960    0.5700 C.2       1 3U6         0.0034
     14 C2        -43.3230   -1.8900   -0.0820 C.ar      1 3U6        -0.0077
     15 C3        -42.0310   -2.1910    0.3510 C.ar      1 3U6        -0.0570
     16 C7        -45.4470   -1.3900   -0.3670 C.2       1 3U6         0.0454
     17 N1        -44.8910   -1.5240   -1.5780 N.pl3     1 3U6        -0.2686
     18 C1        -43.6080   -1.8220   -1.4410 C.ar      1 3U6         0.0729
     19 C6        -42.6270   -2.0570   -2.3800 C.ar      1 3U6        -0.0376
     20 C5        -41.3370   -2.3560   -1.9570 C.ar      1 3U6        -0.0607
     21 C4        -41.0270   -2.4150   -0.5930 C.ar      1 3U6         0.0025
     22 C10       -39.7320   -2.7500   -0.2310 C.2       1 3U6         0.1151
     23 S1        -39.1900   -3.0270    1.3760 S.3       1 3U6         0.0562
     24 N3        -38.6960   -2.9980   -1.0630 N.2       1 3U6        -0.2701
     25 N2        -37.6240   -3.3130   -0.5060 N.2       1 3U6        -0.2573
     26 C11       -37.6820   -3.3820    0.8350 C.2       1 3U6         0.1939
     27 N4        -36.6990   -3.7140    1.6420 N.pl3     1 3U6        -0.2962
     28 H1        -40.7594   -2.6249    6.3700 H         1 3U6         0.0287
     29 H2        -40.2690   -3.9526    5.2639 H         1 3U6         0.0287
     30 H3        -38.5387   -2.6018    4.2470 H         1 3U6         0.0266
     31 H4        -38.4129   -2.1955    5.9923 H         1 3U6         0.0266
     32 H5        -38.7360   -0.1746    4.2886 H         1 3U6         0.0266
     33 H6        -39.8009   -0.2146    5.7346 H         1 3U6         0.0266
     34 H7        -40.4427   -0.9275    2.8469 H         1 3U6         0.0287
     35 H8        -41.4856   -0.1464    4.0833 H         1 3U6         0.0287
     36 H9        -41.3409   -2.9738    3.4081 H         1 3U6         0.0553
     37 H10       -42.8208   -2.3035    5.8614 H         1 3U6         0.1804
     38 H11       -45.0717   -1.6694    5.7967 H         1 3U6         0.0551
     39 H12       -47.0388   -1.1181    4.3671 H         1 3U6         0.0675
     40 H13       -46.7832   -1.0981    1.8991 H         1 3U6         0.0541
     41 H14       -41.8090   -2.2503    1.4104 H         1 3U6         0.0585
     42 H15       -46.4921   -1.1507   -0.1764 H         1 3U6         0.1056
     43 H16       -45.3841   -1.4127   -2.4754 H         1 3U6         0.2333
     44 H17       -42.8590   -2.0092   -3.4378 H         1 3U6         0.0560
     45 H18       -40.5625   -2.5456   -2.6914 H         1 3U6         0.0565
     46 H19       -35.7677   -3.9289    1.2580 H         1 3U6         0.1869
     47 H20       -36.8600   -3.7592    2.6583 H         1 3U6         0.1869
@<TRIPOS>BOND
     1    1    2 1  
     2    1    5 1  
     3    2    3 1  
     4    3    4 1  
     5    4    5 1  
     6    5    6 1  
     7    6    7 1  
     8    7    8 ar 
     9    7    9 ar 
    10    8   12 ar 
    11    9   10 ar 
    12   10   11 ar 
    13   11   12 ar 
    14   12   13 1  
    15   13   14 1  
    16   13   16 2  
    17   14   15 ar 
    18   14   18 ar 
    19   15   21 ar 
    20   16   17 1  
    21   17   18 1  
    22   18   19 ar 
    23   19   20 ar 
    24   20   21 ar 
    25   21   22 1  
    26   22   23 1  
    27   22   24 2  
    28   23   26 1  
    29   24   25 1  
    30   25   26 2  
    31   26   27 1  
    32    1   28 1  
    33    1   29 1  
    34    2   30 1  
    35    2   31 1  
    36    3   32 1  
    37    3   33 1  
    38    4   34 1  
    39    4   35 1  
    40    5   36 1  
    41    6   37 1  
    42    9   38 1  
    43   10   39 1  
    44   11   40 1  
    45   15   41 1  
    46   16   42 1  
    47   17   43 1  
    48   19   44 1  
    49   20   45 1  
    50   27   46 1  
    51   27   47 1  
@<TRIPOS>SUBSTRUCTURE
     1 3U6         1

