### 
### Created by X-TOOL on Mon Sep 10 21:13:22 2018
### 

@<TRIPOS>MOLECULE
4wtu_ligand
   50    55     1     0     0
SMALL
GAST_HUCK


@<TRIPOS>ATOM
      1 C28        64.3540   50.7710   10.8120 C.2       1 3UT         0.0801
      2 O29        62.9870   50.9820   11.2720 O.3       1 3UT        -0.2976
      3 C30        62.7420   52.3590   11.6420 C.3       1 3UT         0.0996
      4 C31        63.7990   52.8740   12.6120 C.2       1 3UT        -0.0626
      5 C32        65.0750   52.6430   12.1150 C.2       1 3UT        -0.0837
      6 C20        65.3990   51.6060   11.2300 C.2       1 3UT         0.0003
      7 C13        66.7290   51.4210   10.7950 C.ar      1 3UT         0.0327
      8 C14        67.1290   50.4110    9.9070 C.ar      1 3UT        -0.0441
      9 N12        67.6740   52.2640   11.2430 N.ar      1 3UT        -0.2561
     10 C11        68.9610   52.1610   10.8820 C.ar      1 3UT         0.2718
     11 F33        69.8520   53.0410   11.3620 F         1 3UT        -0.1480
     12 C8         69.4020   51.1820   10.0210 C.ar      1 3UT         0.2172
     13 O7         70.7380   51.1510    9.7370 O.3       1 3UT        -0.2013
     14 C9         68.4690   50.2820    9.5180 C.ar      1 3UT         0.0111
     15 C10        68.8900   49.1960    8.5240 C.3       1 3UT         0.1157
     16 C15        68.5090   47.8080    8.9580 C.3       1 3UT         0.0498
     17 O16        67.4720   47.3620    8.0120 O.3       1 3UT        -0.3346
     18 C17        67.2670   48.3400    7.0880 C.cat     1 3UT         0.3375
     19 N18        68.0360   49.4040    7.2970 N.pl3     1 3UT        -0.2946
     20 N19        66.3520   48.2230    6.1120 N.pl3     1 3UT        -0.2518
     21 C5         70.3830   49.3110    8.1750 C.ar      1 3UT         0.0085
     22 C6         70.9330   48.4570    7.2150 C.ar      1 3UT        -0.0456
     23 C4         71.2060   50.2570    8.8130 C.ar      1 3UT         0.1593
     24 C3         72.5490   50.3310    8.4680 C.ar      1 3UT         0.0035
     25 C2         73.0950   49.4670    7.5130 C.ar      1 3UT        -0.0372
     26 C1         72.2960   48.5180    6.8860 C.ar      1 3UT         0.0013
     27 C21        72.8180   47.6420    5.9230 C.ar      1 3UT         0.0485
     28 C26        73.8430   46.7590    6.2480 C.ar      1 3UT        -0.0393
     29 C25        74.3110   45.8870    5.2610 C.ar      1 3UT        -0.0418
     30 C24        73.7670   45.9140    3.9760 C.ar      1 3UT         0.0044
     31 N23        72.7910   46.7540    3.6850 N.ar      1 3UT        -0.2652
     32 C22        72.3150   47.6050    4.6080 C.ar      1 3UT         0.2214
     33 F27        71.3420   48.4400    4.2270 F         1 3UT        -0.1516
     34 H1         64.5673   49.9488   10.1305 H         1 3UT         0.1175
     35 H2         61.7537   52.4302   12.1197 H         1 3UT         0.0791
     36 H3         62.7564   52.9808   10.7347 H         1 3UT         0.0791
     37 H4         63.5832   53.3568   13.5640 H         1 3UT         0.0558
     38 H5         65.8747   53.3102   12.4333 H         1 3UT         0.0387
     39 H6         66.3906   49.7203    9.5161 H         1 3UT         0.0655
     40 H7         68.1111   47.8230    9.9834 H         1 3UT         0.0416
     41 H8         69.3814   47.1396    8.9130 H         1 3UT         0.0416
     42 H9         68.0474   50.2482    6.7070 H         1 3UT         0.3035
     43 H10        66.2256   48.9850    5.4306 H         1 3UT         0.3201
     44 H11        65.7767   47.3713    6.0448 H         1 3UT         0.3201
     45 H12        70.2962   47.7354    6.7162 H         1 3UT         0.0727
     46 H13        73.1834   51.0689    8.9456 H         1 3UT         0.0641
     47 H14        74.1468   49.5379    7.2605 H         1 3UT         0.0772
     48 H15        74.2692   46.7476    7.2446 H         1 3UT         0.0715
     49 H16        75.1025   45.1844    5.4954 H         1 3UT         0.0647
     50 H17        74.1472   45.2429    3.2143 H         1 3UT         0.0793
@<TRIPOS>BOND
     1    1    2 1  
     2    1    6 2  
     3    2    3 1  
     4    3    4 1  
     5    4    5 2  
     6    5    6 1  
     7    6    7 1  
     8    7    8 ar 
     9    7    9 ar 
    10    8   14 ar 
    11    9   10 ar 
    12   10   11 1  
    13   10   12 ar 
    14   12   13 1  
    15   12   14 ar 
    16   13   23 1  
    17   14   15 1  
    18   15   16 1  
    19   15   19 1  
    20   15   21 1  
    21   16   17 1  
    22   17   18 1  
    23   18   19 ar 
    24   18   20 ar 
    25   21   22 ar 
    26   21   23 ar 
    27   22   26 ar 
    28   23   24 ar 
    29   24   25 ar 
    30   25   26 ar 
    31   26   27 1  
    32   27   28 ar 
    33   27   32 ar 
    34   28   29 ar 
    35   29   30 ar 
    36   30   31 ar 
    37   31   32 ar 
    38   32   33 1  
    39    1   34 1  
    40    3   35 1  
    41    3   36 1  
    42    4   37 1  
    43    5   38 1  
    44    8   39 1  
    45   16   40 1  
    46   16   41 1  
    47   19   42 1  
    48   20   43 1  
    49   20   44 1  
    50   22   45 1  
    51   24   46 1  
    52   25   47 1  
    53   28   48 1  
    54   29   49 1  
    55   30   50 1  
@<TRIPOS>SUBSTRUCTURE
     1 3UT         1

