### 
### Created by X-TOOL on Sun Nov 13 14:27:09 2016
### 

@<TRIPOS>MOLECULE
4wup_ligand
   25    25     1     0     0
SMALL
GAST_HUCK


@<TRIPOS>ATOM
      1 C6         14.1170   36.9040   18.0660 C.ar      1 MOL        -0.0412
      2 C5         14.2790   36.0260   19.1220 C.ar      1 MOL         0.1010
      3 O4         14.1550   37.7480   21.1160 O.2       1 MOL        -0.1514
      4 S2         15.0540   36.6880   20.5950 S.o2      1 MOL         0.0628
      5 O1         15.1640   35.5380   21.6120 O.2       1 MOL        -0.1514
      6 N3         16.6260   37.3160   20.3920 N.am      1 MOL        -0.2617
      7 C10        13.7990   34.7050   19.0950 C.ar      1 MOL        -0.0412
      8 C9         13.1710   34.2300   17.9290 C.ar      1 MOL        -0.0480
      9 C8         12.9870   35.1050   16.8410 C.ar      1 MOL         0.0155
     10 C7         13.4690   36.4290   16.9080 C.ar      1 MOL        -0.0480
     11 S11        12.1600   34.5450   15.3160 S.3       1 MOL        -0.0994
     12 C12        10.5280   35.3710   15.3480 C.3       1 MOL         0.0302
     13 C13        10.0820   35.7590   13.9350 C.3       1 MOL         0.0553
     14 O14         8.6820   35.7000   13.9100 O.3       1 MOL        -0.3940
     15 H1         14.4768   37.9247   18.1269 H         1 MOL         0.0619
     16 H2         17.1155   37.7010   21.1744 H         1 MOL         0.1634
     17 H3         17.0585   37.2994   19.4905 H         1 MOL         0.1634
     18 H4         13.9111   34.0615   19.9601 H         1 MOL         0.0619
     19 H5         12.8326   33.2019   17.8688 H         1 MOL         0.0565
     20 H6         13.3394   37.0894   16.0582 H         1 MOL         0.0565
     21 H7         10.5961   36.2786   15.9657 H         1 MOL         0.0424
     22 H8          9.7863   34.6856   15.7839 H         1 MOL         0.0424
     23 H9         10.5017   35.0554   13.2010 H         1 MOL         0.0567
     24 H10        10.4202   36.7790   13.7001 H         1 MOL         0.0567
     25 H11         8.3716   35.9361   13.0437 H         1 MOL         0.2094
@<TRIPOS>BOND
     1    1    2 ar 
     2    1   10 ar 
     3    2    4 1  
     4    2    7 ar 
     5    4    3 2  
     6    4    5 2  
     7    4    6 am 
     8    7    8 ar 
     9    8    9 ar 
    10    9   10 ar 
    11    9   11 1  
    12   11   12 1  
    13   12   13 1  
    14   13   14 1  
    15    1   15 1  
    16    6   16 1  
    17    6   17 1  
    18    7   18 1  
    19    8   19 1  
    20   10   20 1  
    21   12   21 1  
    22   12   22 1  
    23   13   23 1  
    24   13   24 1  
    25   14   25 1  
@<TRIPOS>SUBSTRUCTURE
     1 MOL         1

