### 
### Created by X-TOOL on Mon Sep 10 21:13:20 2018
### 

@<TRIPOS>MOLECULE
4wuy_ligand
   87    92     1     0     0
SMALL
GAST_HUCK


@<TRIPOS>ATOM
      1 C7        -19.7840  -23.3530   28.6170 C.ar      1 3UJ        -0.0644
      2 C6        -17.4660  -31.5720   35.5290 C.ar      1 3UJ        -0.0747
      3 C1        -17.1050  -26.4070   24.2690 C.1       1 3UJ         0.1013
      4 C5        -19.1320  -23.6060   30.9220 C.ar      1 3UJ        -0.0730
      5 C4        -15.4040  -30.9260   34.4080 C.ar      1 3UJ        -0.0768
      6 C3        -19.7350  -22.8480   29.9180 C.ar      1 3UJ        -0.0739
      7 C2        -16.1150  -31.1950   35.5770 C.ar      1 3UJ        -0.0792
      8 C8        -16.0150  -31.0200   33.1530 C.ar      1 3UJ        -0.0441
      9 C9        -18.5860  -24.8570   30.6180 C.ar      1 3UJ        -0.0423
     10 C10       -18.1810  -25.5160   26.2750 C.ar      1 3UJ        -0.0185
     11 C11       -19.4890  -25.8270   24.2580 C.ar      1 3UJ        -0.0091
     12 C12       -20.5230  -24.9440   26.2620 C.ar      1 3UJ        -0.0293
     13 C13       -19.4530  -31.9440   32.4800 C.2       1 3UJ         0.0192
     14 C14       -18.2700  -25.9140   24.9400 C.ar      1 3UJ         0.0995
     15 C15       -18.1040  -31.6740   34.2750 C.ar      1 3UJ        -0.0217
     16 C16       -19.2350  -24.6030   28.3170 C.ar      1 3UJ         0.0048
     17 C17       -19.3130  -25.0410   26.9410 C.ar      1 3UJ        -0.0072
     18 C18       -20.6140  -25.3340   24.9280 C.ar      1 3UJ         0.0591
     19 C19       -19.4220  -32.0180   33.8540 C.2       1 3UJ        -0.0491
     20 C20       -17.3630  -31.3980   33.1220 C.ar      1 3UJ         0.0629
     21 C21       -18.6210  -25.3560   29.3170 C.ar      1 3UJ         0.0518
     22 C22       -21.9050  -25.2260   24.2730 C.2       1 3UJ         0.2066
     23 C23       -27.0600  -28.5490   27.4160 C.3       1 3UJ        -0.0077
     24 C24       -27.4480  -27.1180   27.7790 C.3       1 3UJ        -0.0077
     25 C25       -26.0050  -28.4170   26.3200 C.3       1 3UJ        -0.0317
     26 C26       -26.3080  -26.2950   27.2010 C.3       1 3UJ        -0.0317
     27 C27       -19.0440  -27.5900   28.4920 C.3       1 3UJ         0.0678
     28 C28       -17.2050  -27.1990   30.0730 C.3       1 3UJ         0.0678
     29 C29       -18.3510  -28.8600   27.9990 C.3       1 3UJ        -0.0114
     30 C30       -16.5740  -28.5190   29.6130 C.3       1 3UJ        -0.0114
     31 C31       -20.5590  -32.3890   34.7230 C.3       1 3UJ        -0.0486
     32 C32       -24.7140  -27.0940   23.8260 C.3       1 3UJ         0.0076
     33 C33       -17.8430  -31.3760   30.6480 C.3       1 3UJ         0.0882
     34 C34       -24.8550  -26.5350   25.2490 C.3       1 3UJ        -0.0300
     35 C35       -18.3930  -30.0610   30.0980 C.3       1 3UJ        -0.0052
     36 C36       -23.6570  -26.4040   22.9530 C.3       1 3UJ         0.0352
     37 N37       -16.1600  -26.8040   23.7250 N.1       1 3UJ        -0.3281
     38 N38       -18.2060  -31.5710   32.0490 N.pl3     1 3UJ        -0.2696
     39 N39       -18.0880  -26.6230   29.0490 N.pl3     1 3UJ        -0.2963
     40 N40       -26.0720  -27.0010   25.9380 N.4       1 3UJ         0.2353
     41 N41       -17.5450  -29.4770   29.0600 N.4       1 3UJ         0.2399
     42 N42       -22.3750  -26.3620   23.6190 N.am      1 3UJ        -0.2858
     43 O43       -22.5560  -24.1600   24.3110 O.2       1 3UJ        -0.3845
     44 H1        -20.2523  -22.7700   27.8322 H         1 3UJ         0.0589
     45 H2        -18.0112  -31.7817   36.4421 H         1 3UJ         0.0540
     46 H3        -19.0868  -23.2259   31.9362 H         1 3UJ         0.0587
     47 H4        -14.3606  -30.6393   34.4727 H         1 3UJ         0.0530
     48 H5        -20.1609  -21.8774   30.1453 H         1 3UJ         0.0509
     49 H6        -15.6172  -31.1118   36.5363 H         1 3UJ         0.0510
     50 H7        -15.4673  -30.8088   32.2417 H         1 3UJ         0.0541
     51 H8        -18.1294  -25.4466   31.4047 H         1 3UJ         0.0516
     52 H9        -17.2320  -25.5757   26.7955 H         1 3UJ         0.0739
     53 H10       -19.5608  -26.1381   23.2221 H         1 3UJ         0.0753
     54 H11       -21.3995  -24.5630   26.7735 H         1 3UJ         0.0724
     55 H12       -20.3157  -32.1461   31.8469 H         1 3UJ         0.0797
     56 H13       -27.9347  -29.1023   27.0436 H         1 3UJ         0.0319
     57 H14       -26.6428  -29.0685   28.2912 H         1 3UJ         0.0319
     58 H15       -27.5133  -26.9910   28.8697 H         1 3UJ         0.0319
     59 H16       -28.4080  -26.8404   27.3194 H         1 3UJ         0.0319
     60 H17       -26.2454  -29.0654   25.4646 H         1 3UJ         0.0814
     61 H18       -25.0065  -28.6723   26.7044 H         1 3UJ         0.0814
     62 H19       -25.4207  -26.3201   27.8506 H         1 3UJ         0.0814
     63 H20       -26.6085  -25.2506   27.0308 H         1 3UJ         0.0814
     64 H21       -19.7701  -27.8615   29.2724 H         1 3UJ         0.0569
     65 H22       -19.5712  -27.1222   27.6475 H         1 3UJ         0.0569
     66 H23       -16.4024  -26.4802   30.2945 H         1 3UJ         0.0569
     67 H24       -17.7925  -27.3850   30.9842 H         1 3UJ         0.0569
     68 H25       -17.6949  -28.6046   27.1539 H         1 3UJ         0.0834
     69 H26       -19.1147  -29.5783   27.6663 H         1 3UJ         0.0834
     70 H27       -16.0780  -28.9864   30.4764 H         1 3UJ         0.0834
     71 H28       -15.8266  -28.2952   28.8376 H         1 3UJ         0.0834
     72 H29       -21.4421  -32.5990   34.1017 H         1 3UJ         0.0314
     73 H30       -20.7825  -31.5586   35.4090 H         1 3UJ         0.0314
     74 H31       -20.2986  -33.2854   35.3049 H         1 3UJ         0.0314
     75 H32       -25.6875  -26.9945   23.3236 H         1 3UJ         0.0336
     76 H33       -24.4485  -28.1586   23.9037 H         1 3UJ         0.0336
     77 H34       -16.7464  -31.3672   30.5621 H         1 3UJ         0.0649
     78 H35       -18.2505  -32.2082   30.0553 H         1 3UJ         0.0649
     79 H36       -24.8844  -25.4369   25.1919 H         1 3UJ         0.0815
     80 H37       -23.9792  -26.8484   25.8361 H         1 3UJ         0.0815
     81 H38       -18.4778  -29.3426   30.9266 H         1 3UJ         0.0841
     82 H39       -19.3896  -30.2487   29.6719 H         1 3UJ         0.0841
     83 H40       -23.9840  -25.3757   22.7391 H         1 3UJ         0.0521
     84 H41       -23.5529  -26.9595   22.0093 H         1 3UJ         0.0521
     85 H42       -26.8538  -26.8559   25.3185 H         1 3UJ         0.2033
     86 H43       -17.0201  -30.2298   28.6430 H         1 3UJ         0.2036
     87 H44       -21.8024  -27.1818   23.6098 H         1 3UJ         0.1845
@<TRIPOS>BOND
     1    1    6 ar 
     2   16    1 ar 
     3    2    7 ar 
     4   15    2 ar 
     5   14    3 1  
     6    3   37 3  
     7    6    4 ar 
     8    9    4 ar 
     9    5    7 ar 
    10    8    5 ar 
    11   20    8 ar 
    12   21    9 ar 
    13   14   10 ar 
    14   17   10 ar 
    15   11   14 ar 
    16   18   11 ar 
    17   12   17 ar 
    18   18   12 ar 
    19   13   19 2  
    20   38   13 1  
    21   15   19 1  
    22   20   15 ar 
    23   17   16 1  
    24   16   21 ar 
    25   22   18 1  
    26   19   31 1  
    27   38   20 1  
    28   21   39 1  
    29   42   22 am 
    30   22   43 2  
    31   24   23 1  
    32   25   23 1  
    33   26   24 1  
    34   40   25 1  
    35   40   26 1  
    36   27   29 1  
    37   39   27 1  
    38   28   30 1  
    39   39   28 1  
    40   29   41 1  
    41   30   41 1  
    42   32   34 1  
    43   36   32 1  
    44   35   33 1  
    45   33   38 1  
    46   34   40 1  
    47   41   35 1  
    48   36   42 1  
    49    1   44 1  
    50    2   45 1  
    51    4   46 1  
    52    5   47 1  
    53    6   48 1  
    54    7   49 1  
    55    8   50 1  
    56    9   51 1  
    57   10   52 1  
    58   11   53 1  
    59   12   54 1  
    60   13   55 1  
    61   23   56 1  
    62   23   57 1  
    63   24   58 1  
    64   24   59 1  
    65   25   60 1  
    66   25   61 1  
    67   26   62 1  
    68   26   63 1  
    69   27   64 1  
    70   27   65 1  
    71   28   66 1  
    72   28   67 1  
    73   29   68 1  
    74   29   69 1  
    75   30   70 1  
    76   30   71 1  
    77   31   72 1  
    78   31   73 1  
    79   31   74 1  
    80   32   75 1  
    81   32   76 1  
    82   33   77 1  
    83   33   78 1  
    84   34   79 1  
    85   34   80 1  
    86   35   81 1  
    87   35   82 1  
    88   36   83 1  
    89   36   84 1  
    90   40   85 1  
    91   41   86 1  
    92   42   87 1  
@<TRIPOS>SUBSTRUCTURE
     1 3UJ         1

