### 
### Created by X-TOOL on Mon Sep 10 21:13:17 2018
### 

@<TRIPOS>MOLECULE
4wvl_ligand
   99   102     1     0     0
SMALL
GAST_HUCK


@<TRIPOS>ATOM
      1 C4         62.4150   15.4750  -12.2810 C.ar      1 3US         0.1613
      2 C3         62.5050   16.8950  -12.5150 C.ar      1 3US         0.1047
      3 C1         64.4570   16.0720  -12.3810 C.2       1 3US         0.1123
      4 OBA        67.6480   10.5350   -4.4770 O.2       1 3US        -0.3819
      5 CAY        66.4700   10.6560   -4.4640 C.2       1 3US         0.3056
      6 NAZ        65.8430   11.2830   -3.5120 N.am      1 3US        -0.1928
      7 CBB        66.4260   11.9170   -2.4980 C.ar      1 3US         0.1104
      8 CBG        65.8300   13.0260   -1.9580 C.ar      1 3US        -0.0048
      9 CBF        66.4140   13.6860   -0.9050 C.ar      1 3US        -0.0517
     10 CBC        67.6050   11.4900   -1.9580 C.ar      1 3US        -0.0048
     11 CBD        68.1940   12.1460   -0.9150 C.ar      1 3US        -0.0517
     12 CBE        67.6070   13.2570   -0.3680 C.ar      1 3US        -0.0739
     13 CBH        68.2690   13.9540    0.7870 C.3       1 3US        -0.0678
     14 CBK        67.8840   15.4110    0.8260 C.3       1 3US        -0.0969
     15 CBJ        67.8600   13.2880    2.0660 C.3       1 3US        -0.0969
     16 CBI        69.7670   13.8780    0.7020 C.3       1 3US        -0.0969
     17 NAX        65.7480   10.1530   -5.4200 N.am      1 3US        -0.2641
     18 CAW        66.3070    9.5570   -6.6010 C.3       1 3US         0.0370
     19 CAV        66.3570   10.4690   -7.8150 C.3       1 3US         0.0075
     20 CAT        67.0670   11.8040   -7.6270 C.3       1 3US        -0.0297
     21 NAS        66.5520   12.8080   -8.5620 N.4       1 3US         0.2389
     22 CAU        67.1810   14.1270   -8.4700 C.3       1 3US        -0.0265
     23 CBL        66.1920   15.1030   -7.8970 C.3       1 3US        -0.0218
     24 CBM        68.5390   14.2300   -7.7980 C.3       1 3US        -0.0218
     25 CAR        66.8050   12.4470   -9.9550 C.3       1 3US        -0.0021
     26 CAN        65.5600   12.3680  -10.8150 C.3       1 3US         0.1300
     27 CAM        65.8730   12.1610  -12.2660 C.3       1 3US         0.1174
     28 OAQ        65.2600   10.9400  -12.6510 O.3       1 3US        -0.3863
     29 CAL        65.1770   13.2950  -12.9630 C.3       1 3US         0.1386
     30 OAP        64.5640   12.8500  -14.1410 O.3       1 3US        -0.3836
     31 CAK        64.1130   13.6750  -11.9880 C.3       1 3US         0.2011
     32 OAO        64.8130   13.5490  -10.7930 O.3       1 3US        -0.3338
     33 NAG        63.6510   15.0440  -12.2090 N.pl3     1 3US        -0.1919
     34 N2         63.7800   17.1860  -12.5630 N.2       1 3US        -0.2957
     35 N5         61.2130   14.9350  -12.1780 N.ar      1 3US        -0.2714
     36 C6         60.1440   15.7020  -12.3020 C.ar      1 3US         0.0533
     37 C7         61.2870   17.6840  -12.6350 C.ar      1 3US         0.1323
     38 N8         60.1530   17.0150  -12.5270 N.ar      1 3US        -0.2696
     39 N9         61.3430   19.0070  -12.8600 N.pl3     1 3US        -0.3012
     40 C10        61.9050   19.4920  -14.1030 C.3       1 3US         0.0298
     41 C11        63.0290   20.5000  -13.9790 C.3       1 3US        -0.0306
     42 C12        64.3370   20.0910  -14.6490 C.3       1 3US        -0.0309
     43 C13        65.4020   19.7410  -13.6100 C.3       1 3US         0.0309
     44 N15        66.7530   20.1540  -13.9280 N.am      1 3US        -0.2872
     45 C16        67.8210   19.4010  -13.6600 C.2       1 3US         0.1729
     46 O17        67.7400   18.3270  -13.1410 O.2       1 3US        -0.3974
     47 C18        69.1710   19.9140  -14.0270 C.3       1 3US         0.0256
     48 H          65.5441   16.0082  -12.3735 H         1 3US         0.1349
     49 H          64.8436   11.2889   -3.5450 H         1 3US         0.2487
     50 H          64.8914   13.3848   -2.3646 H         1 3US         0.0628
     51 H          65.9270   14.5606   -0.4890 H         1 3US         0.0800
     52 H          68.0854   10.6086   -2.3672 H         1 3US         0.0628
     53 H          69.1348   11.7844   -0.5160 H         1 3US         0.0800
     54 H          68.3800   15.8986    1.6782 H         1 3US         0.0096
     55 H          66.7932   15.4992    0.9372 H         1 3US         0.0096
     56 H          68.1979   15.8984   -0.1088 H         1 3US         0.0096
     57 H          68.1429   12.2255    2.0329 H         1 3US         0.0096
     58 H          66.7706   13.3736    2.1919 H         1 3US         0.0096
     59 H          68.3664   13.7760    2.9118 H         1 3US         0.0096
     60 H          70.1063   14.3586   -0.2275 H         1 3US         0.0096
     61 H          70.0815   12.8239    0.7057 H         1 3US         0.0096
     62 H          70.2100   14.3959    1.5654 H         1 3US         0.0096
     63 H          64.7526   10.1824   -5.3288 H         1 3US         0.1858
     64 H          65.7002    8.6768   -6.8596 H         1 3US         0.0520
     65 H          67.3344    9.2391   -6.3699 H         1 3US         0.0520
     66 H          65.3210   10.6801   -8.1186 H         1 3US         0.0336
     67 H          66.8720    9.9261   -8.6212 H         1 3US         0.0336
     68 H          68.1440   11.6668   -7.8036 H         1 3US         0.0815
     69 H          66.9061   12.1553   -6.5971 H         1 3US         0.0815
     70 H          65.5609   12.8950   -8.4000 H         1 3US         0.2037
     71 H          67.3596   14.4366   -9.5103 H         1 3US         0.0846
     72 H          66.6576   16.0970   -7.8247 H         1 3US         0.0284
     73 H          65.8849   14.7683   -6.8952 H         1 3US         0.0284
     74 H          65.3098   15.1581   -8.5517 H         1 3US         0.0284
     75 H          68.8746   15.2775   -7.8082 H         1 3US         0.0284
     76 H          69.2650   13.6071   -8.3410 H         1 3US         0.0284
     77 H          68.4610   13.8801   -6.7581 H         1 3US         0.0284
     78 H          67.2982   11.4639   -9.9719 H         1 3US         0.0841
     79 H          67.4767   13.2018  -10.3899 H         1 3US         0.0841
     80 H          64.9447   11.5341  -10.4462 H         1 3US         0.0678
     81 H          66.9544   12.1525  -12.4669 H         1 3US         0.0649
     82 H          64.3218   11.0010  -12.5143 H         1 3US         0.2100
     83 H          65.8642   14.1275  -13.1745 H         1 3US         0.0676
     84 H          63.9248   12.1797  -13.9303 H         1 3US         0.2101
     85 H          63.2557   12.9871  -12.0308 H         1 3US         0.0996
     86 H          59.1765   15.2213  -12.2130 H         1 3US         0.0996
     87 H          60.9896   19.6699  -12.1553 H         1 3US         0.1856
     88 H          61.0936   19.9628  -14.6774 H         1 3US         0.0525
     89 H          62.2916   18.6245  -14.6579 H         1 3US         0.0525
     90 H          63.2286   20.6590  -12.9090 H         1 3US         0.0286
     91 H          62.6931   21.4437  -14.4335 H         1 3US         0.0286
     92 H          64.6996   20.9248  -15.2681 H         1 3US         0.0285
     93 H          64.1549   19.2132  -15.2864 H         1 3US         0.0285
     94 H          65.4041   18.6483  -13.4839 H         1 3US         0.0520
     95 H          65.1176   20.2191  -12.6610 H         1 3US         0.0520
     96 H          66.8913   21.0416  -14.3673 H         1 3US         0.1850
     97 H          69.9343   19.1761  -13.7392 H         1 3US         0.0467
     98 H          69.3593   20.8609  -13.4998 H         1 3US         0.0467
     99 H          69.2161   20.0837  -15.1129 H         1 3US         0.0467
@<TRIPOS>BOND
     1    1    2 ar 
     2   33    1 1  
     3    1   35 ar 
     4   34    2 1  
     5    2   37 ar 
     6   33    3 1  
     7    3   34 2  
     8    5    4 2  
     9    5    6 am 
    10   17    5 am 
    11    6    7 1  
    12    7    8 ar 
    13    7   10 ar 
    14    8    9 ar 
    15    9   12 ar 
    16   10   11 ar 
    17   11   12 ar 
    18   12   13 1  
    19   13   14 1  
    20   13   15 1  
    21   13   16 1  
    22   18   17 1  
    23   19   18 1  
    24   20   19 1  
    25   21   20 1  
    26   21   22 1  
    27   25   21 1  
    28   22   23 1  
    29   22   24 1  
    30   26   25 1  
    31   26   27 1  
    32   32   26 1  
    33   27   28 1  
    34   29   27 1  
    35   29   30 1  
    36   31   29 1  
    37   31   32 1  
    38   31   33 1  
    39   35   36 ar 
    40   36   38 ar 
    41   37   38 ar 
    42   37   39 1  
    43   39   40 1  
    44   40   41 1  
    45   41   42 1  
    46   42   43 1  
    47   43   44 1  
    48   44   45 am 
    49   45   46 2  
    50   45   47 1  
    51    3   48 1  
    52    6   49 1  
    53    8   50 1  
    54    9   51 1  
    55   10   52 1  
    56   11   53 1  
    57   14   54 1  
    58   14   55 1  
    59   14   56 1  
    60   15   57 1  
    61   15   58 1  
    62   15   59 1  
    63   16   60 1  
    64   16   61 1  
    65   16   62 1  
    66   17   63 1  
    67   18   64 1  
    68   18   65 1  
    69   19   66 1  
    70   19   67 1  
    71   20   68 1  
    72   20   69 1  
    73   21   70 1  
    74   22   71 1  
    75   23   72 1  
    76   23   73 1  
    77   23   74 1  
    78   24   75 1  
    79   24   76 1  
    80   24   77 1  
    81   25   78 1  
    82   25   79 1  
    83   26   80 1  
    84   27   81 1  
    85   28   82 1  
    86   29   83 1  
    87   30   84 1  
    88   31   85 1  
    89   36   86 1  
    90   39   87 1  
    91   40   88 1  
    92   40   89 1  
    93   41   90 1  
    94   41   91 1  
    95   42   92 1  
    96   42   93 1  
    97   43   94 1  
    98   43   95 1  
    99   44   96 1  
   100   47   97 1  
   101   47   98 1  
   102   47   99 1  
@<TRIPOS>SUBSTRUCTURE
     1 3US         1

