### 
### Created by X-TOOL on Mon Sep 10 21:13:21 2018
### 

@<TRIPOS>MOLECULE
4wvs_ligand
   91    93     1     0     0
SMALL
GAST_HUCK


@<TRIPOS>ATOM
      1 N          -5.7380 -846.3630    0.6600 N.4       1 MAA         0.2438
      2 CM         -6.2080 -846.6870   -0.6910 C.3       1 MAA        -0.0428
      3 CA         -5.6290 -847.4660    1.6240 C.3       1 MAA         0.0637
      4 CB         -4.9310 -846.9790    2.8890 C.3       1 MAA        -0.0039
      5 C          -7.0110 -847.9990    1.9720 C.2       1 MAA         0.2265
      6 O          -8.0040 -847.2860    1.8500 O.2       1 MAA        -0.3907
      7 CD         -8.4380 -850.1760   -0.8950 C.1       1 LPH        -0.1189
      8 CG         -8.4170 -850.6290    0.1930 C.1       1 LPH        -0.1008
      9 CB         -8.4390 -851.1610    1.5590 C.3       1 LPH         0.0492
     10 CA         -8.3300 -849.9670    2.5280 C.3       1 LPH         0.1420
     11 N          -7.0680 -849.2700    2.3760 N.am      1 LPH        -0.2601
     12 C          -8.3530 -850.4550    3.9740 C.2       1 LPH         0.2073
     13 O          -7.4030 -851.0690    4.4110 O.2       1 LPH        -0.3941
     14 N          -9.4270 -850.1770    4.7300 N.am      1 PRO        -0.2498
     15 CA         -9.5710 -850.7750    6.0550 C.3       1 PRO         0.1338
     16 C          -9.8870 -852.2600    5.9470 C.2       1 PRO         0.2042
     17 O         -10.4280 -852.7210    4.9440 O.2       1 PRO        -0.3944
     18 CB        -10.7210 -849.9790    6.6740 C.3       1 PRO        -0.0104
     19 CG        -11.5810 -849.6050    5.4770 C.3       1 PRO        -0.0281
     20 CD        -10.6060 -849.3770    4.3460 C.3       1 PRO         0.0369
     21 N          -9.5650 -853.0030    7.0060 N.am      1 PHE        -0.2619
     22 CA         -9.9070 -854.4160    7.0560 C.3       1 PHE         0.1404
     23 C          -9.9360 -854.9130    8.4960 C.2       1 PHE         0.2055
     24 O          -9.5110 -854.2180    9.4110 O.2       1 PHE        -0.3942
     25 CB         -8.9460 -855.2610    6.1980 C.3       1 PHE         0.0214
     26 CG         -7.5570 -855.3470    6.7800 C.ar      1 PHE        -0.0386
     27 CD1        -7.1510 -856.4830    7.4700 C.ar      1 PHE        -0.0601
     28 CD2        -6.6800 -854.2750    6.7020 C.ar      1 PHE        -0.0601
     29 CE1        -5.9010 -856.5450    8.0620 C.ar      1 PHE        -0.0686
     30 CE2        -5.4230 -854.3410    7.2870 C.ar      1 PHE        -0.0686
     31 CZ         -5.0250 -855.4840    7.9510 C.ar      1 PHE        -0.0687
     32 C         -10.3810 -858.1270    9.9690 C.2       1 4LZ         0.0619
     33 N         -10.4650 -856.1230    8.6740 N.am      1 4LZ        -0.2678
     34 O          -9.5950 -858.5900   10.7660 O.co2     1 4LZ        -0.5665
     35 N6        -13.5820 -848.2470    7.7200 N.2       1 4LZ         0.1686
     36 N7        -14.0430 -847.6290    6.7580 N.1       1 4LZ         0.1293
     37 N8        -14.4650 -847.0600    5.8690 N.1       1 4LZ         0.2334
     38 CA        -10.8010 -856.6650    9.9750 C.3       1 4LZ         0.1025
     39 CB        -12.3060 -856.4810   10.2550 C.3       1 4LZ         0.0108
     40 CG        -12.7710 -855.0560   10.0510 C.ar      1 4LZ        -0.0499
     41 OH        -13.7020 -851.0260    9.5230 O.3       1 4LZ        -0.3172
     42 CZ        -13.4050 -852.3680    9.6010 C.ar      1 4LZ         0.0843
     43 C31       -14.2700 -850.5180    8.3000 C.3       1 4LZ         0.1241
     44 C32       -14.5510 -849.0540    8.5010 C.3       1 4LZ         0.2359
     45 CD1       -12.6450 -854.1130   11.0630 C.ar      1 4LZ        -0.0686
     46 CD2       -13.2490 -854.6330    8.8160 C.ar      1 4LZ        -0.0686
     47 CE1       -12.9630 -852.7800   10.8490 C.ar      1 4LZ        -0.0396
     48 CE2       -13.5610 -853.3030    8.5830 C.ar      1 4LZ        -0.0396
     49 OXT       -10.8450 -858.7710    8.9310 O.co2     1 4LZ        -0.5665
     50 H1         -6.3764 -845.6859    1.0473 H         1 MAA         0.2032
     51 H2         -4.8232 -845.9494    0.5701 H         1 MAA         0.2032
     52 H3         -6.2390 -845.7702   -1.2981 H         1 MAA         0.0777
     53 H4         -7.2162 -847.1230   -0.6338 H         1 MAA         0.0777
     54 H5         -5.5213 -847.4106   -1.1544 H         1 MAA         0.0777
     55 H6         -5.0356 -848.2762    1.1752 H         1 MAA         0.1096
     56 H7         -4.8522 -847.8087    3.6069 H         1 MAA         0.0310
     57 H8         -5.5134 -846.1605    3.3372 H         1 MAA         0.0310
     58 H9         -3.9238 -846.6165    2.6357 H         1 MAA         0.0310
     59 H10        -8.4568 -849.7702   -1.8697 H         1 LPH         0.1228
     60 H11        -7.5899 -851.8440    1.7089 H         1 LPH         0.0445
     61 H12        -9.3804 -851.7020    1.7354 H         1 LPH         0.0445
     62 H13        -9.1666 -849.2768    2.3444 H         1 LPH         0.0810
     63 H14        -6.2171 -849.7545    2.5793 H         1 LPH         0.1885
     64 H15        -8.6515 -850.6459    6.6447 H         1 PRO         0.0802
     65 H16       -10.3462 -849.0797    7.1847 H         1 PRO         0.0313
     66 H17       -11.2872 -850.5964    7.3869 H         1 PRO         0.0313
     67 H18       -12.1530 -848.6885    5.6840 H         1 PRO         0.0287
     68 H19       -12.2746 -850.4222    5.2297 H         1 PRO         0.0287
     69 H20       -11.0242 -849.7289    3.3914 H         1 PRO         0.0524
     70 H21       -10.3459 -848.3115    4.2618 H         1 PRO         0.0524
     71 H22        -9.0826 -852.5840    7.7752 H         1 PHE         0.1885
     72 H23       -10.9181 -854.5318    6.6385 H         1 PHE         0.0823
     73 H24        -8.8794 -854.8086    5.1976 H         1 PHE         0.0474
     74 H25        -9.3543 -856.2789    6.1137 H         1 PHE         0.0474
     75 H26        -7.8216 -857.3313    7.5456 H         1 PHE         0.0557
     76 H27        -6.9800 -853.3748    6.1778 H         1 PHE         0.0557
     77 H28        -5.6090 -857.4304    8.6150 H         1 PHE         0.0599
     78 H29        -4.7517 -853.4923    7.2223 H         1 PHE         0.0599
     79 H30        -4.0323 -855.5478    8.3818 H         1 PHE         0.0559
     80 H31       -10.6393 -856.6869    7.8668 H         1 4LZ         0.1877
     81 H32       -10.2350 -856.1320   10.7532 H         1 4LZ         0.0747
     82 H33       -12.5075 -856.7705   11.2969 H         1 4LZ         0.0446
     83 H34       -12.8723 -857.1358    9.5764 H         1 4LZ         0.0446
     84 H35       -15.2046 -851.0510    8.0710 H         1 4LZ         0.0664
     85 H36       -13.5586 -850.6528    7.4719 H         1 4LZ         0.0664
     86 H37       -15.5726 -848.8279    8.1616 H         1 4LZ         0.0986
     87 H38       -14.4561 -848.8068    9.5686 H         1 4LZ         0.0986
     88 H39       -12.2913 -854.4249   12.0390 H         1 4LZ         0.0530
     89 H40       -13.3802 -855.3572    8.0202 H         1 4LZ         0.0530
     90 H41       -12.8662 -852.0621   11.6554 H         1 4LZ         0.0525
     91 H42       -13.9255 -852.9923    7.6105 H         1 4LZ         0.0525
@<TRIPOS>BOND
     1    1    2 1  
     2    3    1 1  
     3    3    4 1  
     4    5    3 1  
     5    5    6 2  
     6   11    5 am 
     7    8    7 3  
     8    9    8 1  
     9   10    9 1  
    10   10   11 1  
    11   12   10 1  
    12   12   13 2  
    13   14   12 am 
    14   15   14 1  
    15   14   20 1  
    16   16   15 1  
    17   15   18 1  
    18   16   17 2  
    19   21   16 am 
    20   18   19 1  
    21   19   20 1  
    22   22   21 1  
    23   23   22 1  
    24   22   25 1  
    25   23   24 2  
    26   33   23 am 
    27   25   26 1  
    28   26   27 ar 
    29   26   28 ar 
    30   27   29 ar 
    31   28   30 ar 
    32   29   31 ar 
    33   30   31 ar 
    34   32   34 ar 
    35   38   32 1  
    36   32   49 ar 
    37   38   33 1  
    38   35   36 2  
    39   44   35 1  
    40   36   37 3  
    41   39   38 1  
    42   40   39 1  
    43   45   40 ar 
    44   40   46 ar 
    45   42   41 1  
    46   41   43 1  
    47   47   42 ar 
    48   42   48 ar 
    49   43   44 1  
    50   45   47 ar 
    51   46   48 ar 
    52    1   50 1  
    53    1   51 1  
    54    2   52 1  
    55    2   53 1  
    56    2   54 1  
    57    3   55 1  
    58    4   56 1  
    59    4   57 1  
    60    4   58 1  
    61    7   59 1  
    62    9   60 1  
    63    9   61 1  
    64   10   62 1  
    65   11   63 1  
    66   15   64 1  
    67   18   65 1  
    68   18   66 1  
    69   19   67 1  
    70   19   68 1  
    71   20   69 1  
    72   20   70 1  
    73   21   71 1  
    74   22   72 1  
    75   25   73 1  
    76   25   74 1  
    77   27   75 1  
    78   28   76 1  
    79   29   77 1  
    80   30   78 1  
    81   31   79 1  
    82   33   80 1  
    83   38   81 1  
    84   39   82 1  
    85   39   83 1  
    86   43   84 1  
    87   43   85 1  
    88   44   86 1  
    89   44   87 1  
    90   45   88 1  
    91   46   89 1  
    92   47   90 1  
    93   48   91 1  
@<TRIPOS>SUBSTRUCTURE
     1 MAA         1

