### 
### Created by X-TOOL on Mon Sep 10 21:13:23 2018
### 

@<TRIPOS>MOLECULE
4wvt_ligand
  108   113     1     0     0
SMALL
GAST_HUCK


@<TRIPOS>ATOM
      1 N          15.4380   -1.0640    5.4610 N.4       1 MAA         0.2438
      2 CM         16.7650   -0.7680    5.9930 C.3       1 MAA        -0.0428
      3 CA         14.5600    0.1030    5.2960 C.3       1 MAA         0.0637
      4 CB         13.2810   -0.2730    4.5500 C.3       1 MAA        -0.0039
      5 C          14.2050    0.7320    6.6350 C.2       1 MAA         0.2266
      6 O          14.1360    0.0490    7.6500 O.2       1 MAA        -0.3907
      7 N          13.9200    2.0330    6.6020 N.am      1 PHE        -0.2594
      8 CA         13.6370    2.8170    7.7840 C.3       1 PHE         0.1393
      9 C          12.1400    3.1480    7.8190 C.2       1 PHE         0.2082
     10 O          11.6290    3.6810    6.8410 O.2       1 PHE        -0.3940
     11 CB         14.4550    4.1180    7.7200 C.3       1 PHE         0.0164
     12 CG         14.1650    5.0720    8.8510 C.ar      1 PHE        -0.0493
     13 CD1        13.4780    6.2550    8.6210 C.ar      1 PHE        -0.0685
     14 CD2        14.5730    4.7860   10.1450 C.ar      1 PHE        -0.0685
     15 CE1        13.1880    7.1270    9.6600 C.ar      1 PHE        -0.0394
     16 CE2        14.2780    5.6370   11.1950 C.ar      1 PHE        -0.0394
     17 CZ         13.5570    6.8010   10.9540 C.ar      1 PHE         0.0861
     18 N          11.4150    2.8700    8.9230 N.am      1 PRO        -0.2497
     19 CA          9.9990    3.2810    8.9460 C.3       1 PRO         0.1338
     20 C           9.9020    4.7570    9.3470 C.2       1 PRO         0.2042
     21 O          10.7520    5.2610   10.0780 O.2       1 PRO        -0.3944
     22 CB          9.3790    2.3650   10.0070 C.3       1 PRO        -0.0104
     23 CG         10.5130    2.1440   11.0020 C.3       1 PRO        -0.0281
     24 CD         11.8100    2.1800   10.1660 C.3       1 PRO         0.0369
     25 N           8.8640    5.4410    8.8580 N.am      1 PHE        -0.2619
     26 CA          8.6910    6.8590    9.1330 C.3       1 PHE         0.1404
     27 C           7.2230    7.2370    8.9730 C.2       1 PHE         0.2055
     28 O           6.4120    6.4130    8.5730 O.2       1 PHE        -0.3942
     29 CB          9.6420    7.7180    8.2750 C.3       1 PHE         0.0214
     30 CG          9.1850    7.9190    6.8480 C.ar      1 PHE        -0.0386
     31 CD1         8.5830    9.1100    6.4570 C.ar      1 PHE        -0.0601
     32 CD2         9.3720    6.9290    5.8930 C.ar      1 PHE        -0.0601
     33 CE1         8.1910    9.3100    5.1410 C.ar      1 PHE        -0.0686
     34 CE2         8.9930    7.1340    4.5740 C.ar      1 PHE        -0.0686
     35 CZ          8.3990    8.3230    4.1980 C.ar      1 PHE        -0.0687
     36 N           6.8870    8.4750    9.3240 N.am      1 PHE        -0.2678
     37 CA          5.5280    8.9620    9.2030 C.3       1 PHE         0.1025
     38 C           5.5300   10.4210    8.7760 C.2       1 PHE         0.0619
     39 O           4.5830   10.9070    8.1980 O.co2     1 PHE        -0.5665
     40 CB          4.7710    8.7860   10.5300 C.3       1 PHE         0.0108
     41 CG          5.4970    9.3690   11.7130 C.ar      1 PHE        -0.0499
     42 CD1         5.4500   10.7290   11.9850 C.ar      1 PHE        -0.0686
     43 CD2         6.2390    8.5550   12.5550 C.ar      1 PHE        -0.0686
     44 CE1         6.1290   11.2670   13.0660 C.ar      1 PHE        -0.0396
     45 CE2         6.8840    9.0710   13.6630 C.ar      1 PHE        -0.0396
     46 CZ          6.8170   10.4300   13.9280 C.ar      1 PHE         0.0840
     47 OXT         6.6050   11.0750    9.1150 O.co2     1 PHE        -0.5665
     48 C11        12.9560    8.7510   13.9140 C.2       1 3V7         0.0669
     49 C12        11.8120    9.0230   14.5970 C.2       1 3V7         0.0719
     50 O1          7.6240   10.5170   15.0280 O.3       1 3V7        -0.3223
     51 C7          8.4360   11.6710   15.2490 C.3       1 3V7         0.0716
     52 C8          9.7290   11.1940   14.6710 C.3       1 3V7         0.0052
     53 C9         10.9110   11.1230   15.6140 C.3       1 3V7         0.0779
     54 N1         11.9610   10.2720   15.0530 N.pl3     1 3V7        -0.1811
     55 N2         13.1580   10.7700   14.6940 N.2       1 3V7        -0.1019
     56 N3         13.7530    9.8480   13.9760 N.2       1 3V7        -0.2238
     57 O8         13.1230    7.7140   11.8830 O.3       1 3V7        -0.3137
     58 C36        13.3970    7.4940   13.2460 C.3       1 3V7         0.1037
     59 H1         14.9858   -1.7090    6.0899 H         1 MAA         0.2032
     60 H2         15.5527   -1.4989    4.5589 H         1 MAA         0.2032
     61 H3         17.3420   -1.7006    6.0787 H         1 MAA         0.0777
     62 H4         16.6671   -0.3049    6.9859 H         1 MAA         0.0777
     63 H5         17.2857   -0.0756    5.3152 H         1 MAA         0.0777
     64 H6         15.1011    0.8512    4.6982 H         1 MAA         0.1096
     65 H7         12.6446    0.6176    4.4413 H         1 MAA         0.0310
     66 H8         12.7389   -1.0440    5.1172 H         1 MAA         0.0310
     67 H9         13.5385   -0.6633    3.5543 H         1 MAA         0.0310
     68 H10        13.9007    2.4915    5.7135 H         1 PHE         0.1886
     69 H11        13.9120    2.2488    8.6848 H         1 PHE         0.0821
     70 H12        14.2273    4.6252    6.7708 H         1 PHE         0.0453
     71 H13        15.5235    3.8584    7.7500 H         1 PHE         0.0453
     72 H14        13.1629    6.5018    7.6136 H         1 PHE         0.0530
     73 H15        15.1337    3.8785   10.3375 H         1 PHE         0.0530
     74 H16        12.6743    8.0603    9.4596 H         1 PHE         0.0525
     75 H17        14.6071    5.3977   12.1997 H         1 PHE         0.0525
     76 H18         9.5208    3.1291    7.9671 H         1 PRO         0.0802
     77 H19         9.0563    1.4121    9.5623 H         1 PRO         0.0313
     78 H20         8.5207    2.8523   10.4926 H         1 PRO         0.0313
     79 H21        10.4034    1.1689   11.4991 H         1 PRO         0.0287
     80 H22        10.5214    2.9424   11.7586 H         1 PRO         0.0287
     81 H23        12.5978    2.7403   10.6907 H         1 PRO         0.0524
     82 H24        12.1653    1.1613    9.9517 H         1 PRO         0.0524
     83 H25         8.1907    4.9676    8.2901 H         1 PHE         0.1885
     84 H26         8.9616    7.0323   10.1850 H         1 PHE         0.0823
     85 H27        10.6260    7.2267    8.2552 H         1 PHE         0.0474
     86 H28         9.7350    8.7063    8.7489 H         1 PHE         0.0474
     87 H29         8.4179    9.8919    7.1894 H         1 PHE         0.0557
     88 H30         9.8194    5.9846    6.1811 H         1 PHE         0.0557
     89 H31         7.7205   10.2430    4.8526 H         1 PHE         0.0599
     90 H32         9.1637    6.3584    3.8362 H         1 PHE         0.0599
     91 H33         8.0979    8.4804    3.1686 H         1 PHE         0.0559
     92 H34         7.5924    9.0870    9.6816 H         1 PHE         0.1877
     93 H35         5.0138    8.3730    8.4293 H         1 PHE         0.0747
     94 H36         4.6226    7.7105   10.7071 H         1 PHE         0.0446
     95 H37         3.7929    9.2815   10.4421 H         1 PHE         0.0446
     96 H38         4.8721   11.3815   11.3406 H         1 PHE         0.0530
     97 H39         6.3146    7.4951   12.3405 H         1 PHE         0.0530
     98 H40         6.1217   12.3376   13.2361 H         1 PHE         0.0525
     99 H41         7.4405    8.4151   14.3227 H         1 PHE         0.0525
    100 H42        10.9568    8.3645   14.7419 H         1 3V7         0.0899
    101 H43         8.5294   11.9053   16.3197 H         1 3V7         0.0612
    102 H44         8.0495   12.5506   14.7135 H         1 3V7         0.0612
    103 H45         9.9983   11.8748   13.8500 H         1 3V7         0.0320
    104 H46         9.5619   10.1836   14.2696 H         1 3V7         0.0320
    105 H47        10.5819   10.7053   16.5769 H         1 3V7         0.0649
    106 H48        11.3107   12.1357   15.7711 H         1 3V7         0.0649
    107 H49        12.8290    6.6311   13.6239 H         1 3V7         0.0728
    108 H50        14.4720    7.3237   13.4054 H         1 3V7         0.0728
@<TRIPOS>BOND
     1    1    2 1  
     2    3    1 1  
     3    3    4 1  
     4    5    3 1  
     5    5    6 2  
     6    7    5 am 
     7    8    7 1  
     8    9    8 1  
     9    8   11 1  
    10    9   10 2  
    11   18    9 am 
    12   11   12 1  
    13   12   13 ar 
    14   12   14 ar 
    15   13   15 ar 
    16   14   16 ar 
    17   15   17 ar 
    18   16   17 ar 
    19   17   57 1  
    20   19   18 1  
    21   18   24 1  
    22   20   19 1  
    23   19   22 1  
    24   20   21 2  
    25   25   20 am 
    26   22   23 1  
    27   23   24 1  
    28   26   25 1  
    29   27   26 1  
    30   26   29 1  
    31   27   28 2  
    32   36   27 am 
    33   29   30 1  
    34   30   31 ar 
    35   30   32 ar 
    36   31   33 ar 
    37   32   34 ar 
    38   33   35 ar 
    39   34   35 ar 
    40   37   36 1  
    41   37   38 1  
    42   40   37 1  
    43   38   39 ar 
    44   38   47 ar 
    45   41   40 1  
    46   42   41 ar 
    47   43   41 ar 
    48   44   42 ar 
    49   45   43 ar 
    50   46   44 ar 
    51   46   45 ar 
    52   50   46 1  
    53   49   48 2  
    54   48   56 1  
    55   48   58 1  
    56   54   49 1  
    57   51   50 1  
    58   52   51 1  
    59   53   52 1  
    60   53   54 1  
    61   54   55 1  
    62   55   56 2  
    63   57   58 1  
    64    1   59 1  
    65    1   60 1  
    66    2   61 1  
    67    2   62 1  
    68    2   63 1  
    69    3   64 1  
    70    4   65 1  
    71    4   66 1  
    72    4   67 1  
    73    7   68 1  
    74    8   69 1  
    75   11   70 1  
    76   11   71 1  
    77   13   72 1  
    78   14   73 1  
    79   15   74 1  
    80   16   75 1  
    81   19   76 1  
    82   22   77 1  
    83   22   78 1  
    84   23   79 1  
    85   23   80 1  
    86   24   81 1  
    87   24   82 1  
    88   25   83 1  
    89   26   84 1  
    90   29   85 1  
    91   29   86 1  
    92   31   87 1  
    93   32   88 1  
    94   33   89 1  
    95   34   90 1  
    96   35   91 1  
    97   36   92 1  
    98   37   93 1  
    99   40   94 1  
   100   40   95 1  
   101   42   96 1  
   102   43   97 1  
   103   44   98 1  
   104   45   99 1  
   105   49  100 1  
   106   51  101 1  
   107   51  102 1  
   108   52  103 1  
   109   52  104 1  
   110   53  105 1  
   111   53  106 1  
   112   58  107 1  
   113   58  108 1  
@<TRIPOS>SUBSTRUCTURE
     1 MAA         1

