### 
### Created by X-TOOL on Mon Sep 10 21:13:20 2018
### 

@<TRIPOS>MOLECULE
4wvu_ligand
  100   104     1     0     0
SMALL
GAST_HUCK


@<TRIPOS>ATOM
      1 N           4.1240    5.5690   15.7500 N.4       1 MAA         0.2438
      2 CM          4.4960    5.3800   17.1530 C.3       1 MAA        -0.0428
      3 CA          4.0300    4.3620   14.9190 C.3       1 MAA         0.0637
      4 CB          3.3370    4.6940   13.6040 C.3       1 MAA        -0.0039
      5 C           5.4360    3.8380   14.6470 C.2       1 MAA         0.2265
      6 O           6.4070    4.5880   14.7220 O.2       1 MAA        -0.3907
      7 N           5.5500    2.5350   14.3770 N.am      1 VAL        -0.2608
      8 CA          6.8700    1.9730   14.1290 C.3       1 VAL         0.1336
      9 C           6.8980    1.4560   12.6890 C.2       1 VAL         0.2068
     10 O           5.9010    0.9470   12.2070 O.2       1 VAL        -0.3942
     11 CB          7.2710    0.8870   15.1450 C.3       1 VAL        -0.0062
     12 CG1         7.1540    1.3980   16.5870 C.3       1 VAL        -0.0584
     13 CG2         6.4710   -0.3790   14.9700 C.3       1 VAL        -0.0584
     14 C18         9.3890    1.6540   10.0520 C.3       1 3V8         0.0230
     15 C17         8.1020    1.0320   10.6230 C.3       1 3V8         0.1369
     16 C16         8.2170   -0.4870   10.7250 C.2       1 3V8         0.2043
     17 C19         9.9550    2.6260   11.0850 C.3       1 3V8         0.1107
     18 C20         9.3240    2.1580   12.3970 C.3       1 3V8         0.0700
     19 C11        14.8200    2.2460    8.7540 C.3       1 3V8         0.0495
     20 C12        14.9480    2.7270   10.1870 C.3       1 3V8        -0.0011
     21 C10        14.2730    0.8340    8.6690 C.2       1 3V8         0.2032
     22 O3         14.7510   -0.0660    9.3600 O.2       1 3V8        -0.3856
     23 O5          8.5880   -1.0160   11.7720 O.2       1 3V8        -0.3944
     24 N4          8.0360    1.5820   11.9830 N.am      1 3V8        -0.2465
     25 N5         11.4640    2.6170   11.1810 N.pl3     1 3V8        -0.1760
     26 C30        12.3670    3.0740   10.2960 C.2       1 3V8         0.0699
     27 C31        13.5790    2.6930   10.7970 C.2       1 3V8         0.0392
     28 N8         13.3650    2.0640   11.9830 N.2       1 3V8        -0.2263
     29 N9         12.0770    2.0180   12.2220 N.2       1 3V8        -0.1016
     30 N           7.8790   -1.1880    9.6410 N.am      1 PHE        -0.2619
     31 CA          8.1840   -2.6090    9.5500 C.3       1 PHE         0.1404
     32 C           8.4120   -2.9970    8.0900 C.2       1 PHE         0.2055
     33 O           8.1690   -2.1970    7.1900 O.2       1 PHE        -0.3942
     34 CB          7.1230   -3.4640   10.2770 C.3       1 PHE         0.0214
     35 CG          5.8020   -3.6050    9.5600 C.ar      1 PHE        -0.0386
     36 CD1         5.5120   -4.7480    8.8230 C.ar      1 PHE        -0.0601
     37 CD2         4.8470   -2.6000    9.6180 C.ar      1 PHE        -0.0601
     38 CE1         4.3100   -4.8700    8.1440 C.ar      1 PHE        -0.0686
     39 CE2         3.6380   -2.7260    8.9480 C.ar      1 PHE        -0.0686
     40 CZ          3.3710   -3.8570    8.2020 C.ar      1 PHE        -0.0687
     41 O           9.0740   -6.8550    7.1860 O.co2     1 HOX        -0.5665
     42 C           9.0900   -6.0260    6.3130 C.2       1 HOX         0.0618
     43 N           8.9730   -4.1900    7.8800 N.am      1 HOX        -0.2678
     44 OXT         8.7450   -6.2390    5.0840 O.co2     1 HOX        -0.5665
     45 CA          9.5100   -4.5920    6.5880 C.3       1 HOX         0.1020
     46 CB         11.0480   -4.4840    6.5770 C.3       1 HOX         0.0090
     47 CG         11.5300   -3.0930    6.9160 C.ar      1 HOX        -0.0538
     48 CZ         12.5570   -0.5560    7.5230 C.ar      1 HOX         0.0596
     49 NZ         13.2380    0.6610    7.8090 N.am      1 HOX        -0.2377
     50 CD1        11.8950   -2.7660    8.2120 C.ar      1 HOX        -0.0731
     51 CD2        11.6330   -2.1160    5.9380 C.ar      1 HOX        -0.0731
     52 CE1        12.3900   -1.5100    8.5220 C.ar      1 HOX        -0.0473
     53 CE2        12.1450   -0.8610    6.2300 C.ar      1 HOX        -0.0473
     54 H1          4.8129    6.1741   15.3312 H         1 MAA         0.2032
     55 H2          3.2236    6.0218   15.7321 H         1 MAA         0.2032
     56 H3          4.5299    6.3566   17.6581 H         1 MAA         0.0777
     57 H4          5.4860    4.9038   17.2089 H         1 MAA         0.0777
     58 H5          3.7517    4.7377   17.6464 H         1 MAA         0.0777
     59 H6          3.4497    3.5943   15.4517 H         1 MAA         0.1096
     60 H7          3.2694    3.7866   12.9859 H         1 MAA         0.0310
     61 H8          3.9157    5.4606   13.0678 H         1 MAA         0.0310
     62 H9          2.3254    5.0745   13.8085 H         1 MAA         0.0310
     63 H10         4.7381    1.9521   14.3455 H         1 VAL         0.1885
     64 H11         7.6063    2.7855   14.2163 H         1 VAL         0.0803
     65 H12         8.3272    0.6402   14.9620 H         1 VAL         0.0343
     66 H13         7.4471    0.5991   17.2840 H         1 VAL         0.0234
     67 H14         6.1142    1.6960   16.7872 H         1 VAL         0.0234
     68 H15         7.8168    2.2652   16.7237 H         1 VAL         0.0234
     69 H16         6.5653   -0.7318   13.9324 H         1 VAL         0.0234
     70 H17         5.4130   -0.1782   15.1943 H         1 VAL         0.0234
     71 H18         6.8511   -1.1507   15.6556 H         1 VAL         0.0234
     72 H19         9.1595    2.1934    9.1212 H         1 3V8         0.0345
     73 H20        10.1241    0.8623    9.8453 H         1 3V8         0.0345
     74 H21         7.2227    1.3099   10.0234 H         1 3V8         0.0803
     75 H22         9.6306    3.6499   10.8475 H         1 3V8         0.0707
     76 H23         9.1719    3.0048   13.0824 H         1 3V8         0.0557
     77 H24         9.9532    1.3994   12.8854 H         1 3V8         0.0557
     78 H25        15.8135    2.2697    8.2825 H         1 3V8         0.0524
     79 H26        14.1412    2.9217    8.2130 H         1 3V8         0.0524
     80 H27        15.3418    3.7539   10.2049 H         1 3V8         0.0405
     81 H28        15.6251    2.0648   10.7465 H         1 3V8         0.0405
     82 H29        12.1739    3.6279    9.3785 H         1 3V8         0.0899
     83 H30         7.4114   -0.7328    8.8833 H         1 PHE         0.1885
     84 H31         9.1351   -2.7761   10.0768 H         1 PHE         0.0823
     85 H32         6.9296   -3.0035   11.2570 H         1 PHE         0.0474
     86 H33         7.5399   -4.4716   10.4212 H         1 PHE         0.0474
     87 H34         6.2355   -5.5540    8.7790 H         1 PHE         0.0557
     88 H35         5.0479   -1.7042   10.1945 H         1 PHE         0.0557
     89 H36         4.1053   -5.7633    7.5651 H         1 PHE         0.0599
     90 H37         2.9007   -1.9338    9.0105 H         1 PHE         0.0599
     91 H38         2.4331   -3.9497    7.6664 H         1 PHE         0.0559
     92 H39         9.0266   -4.8348    8.6425 H         1 HOX         0.1877
     93 H40         9.1005   -3.9356    5.8061 H         1 HOX         0.0746
     94 H41        11.4137   -4.7499    5.5742 H         1 HOX         0.0439
     95 H42        11.4570   -5.1893    7.3154 H         1 HOX         0.0439
     96 H43        12.9194    1.4755    7.3241 H         1 HOX         0.2234
     97 H44        11.7914   -3.5061    8.9972 H         1 HOX         0.0520
     98 H45        11.3077   -2.3369    4.9278 H         1 HOX         0.0520
     99 H46        12.6483   -1.2694    9.5469 H         1 HOX         0.0487
    100 H47        12.2245   -0.1148    5.4477 H         1 HOX         0.0487
@<TRIPOS>BOND
     1    1    2 1  
     2    3    1 1  
     3    3    4 1  
     4    5    3 1  
     5    5    6 2  
     6    7    5 am 
     7    8    7 1  
     8    9    8 1  
     9    8   11 1  
    10    9   10 2  
    11   24    9 am 
    12   11   12 1  
    13   11   13 1  
    14   15   14 1  
    15   14   17 1  
    16   16   15 1  
    17   15   24 1  
    18   16   23 2  
    19   30   16 am 
    20   18   17 1  
    21   17   25 1  
    22   24   18 1  
    23   20   19 1  
    24   19   21 1  
    25   27   20 1  
    26   21   22 2  
    27   21   49 am 
    28   25   26 1  
    29   25   29 1  
    30   26   27 2  
    31   28   27 1  
    32   29   28 2  
    33   31   30 1  
    34   32   31 1  
    35   31   34 1  
    36   32   33 2  
    37   43   32 am 
    38   34   35 1  
    39   35   36 ar 
    40   35   37 ar 
    41   36   38 ar 
    42   37   39 ar 
    43   38   40 ar 
    44   39   40 ar 
    45   42   41 ar 
    46   42   44 ar 
    47   45   42 1  
    48   43   45 1  
    49   45   46 1  
    50   46   47 1  
    51   47   50 ar 
    52   47   51 ar 
    53   49   48 1  
    54   48   52 ar 
    55   48   53 ar 
    56   50   52 ar 
    57   51   53 ar 
    58    1   54 1  
    59    1   55 1  
    60    2   56 1  
    61    2   57 1  
    62    2   58 1  
    63    3   59 1  
    64    4   60 1  
    65    4   61 1  
    66    4   62 1  
    67    7   63 1  
    68    8   64 1  
    69   11   65 1  
    70   12   66 1  
    71   12   67 1  
    72   12   68 1  
    73   13   69 1  
    74   13   70 1  
    75   13   71 1  
    76   14   72 1  
    77   14   73 1  
    78   15   74 1  
    79   17   75 1  
    80   18   76 1  
    81   18   77 1  
    82   19   78 1  
    83   19   79 1  
    84   20   80 1  
    85   20   81 1  
    86   26   82 1  
    87   30   83 1  
    88   31   84 1  
    89   34   85 1  
    90   34   86 1  
    91   36   87 1  
    92   37   88 1  
    93   38   89 1  
    94   39   90 1  
    95   40   91 1  
    96   43   92 1  
    97   45   93 1  
    98   46   94 1  
    99   46   95 1  
   100   49   96 1  
   101   50   97 1  
   102   51   98 1  
   103   52   99 1  
   104   53  100 1  
@<TRIPOS>SUBSTRUCTURE
     1 MAA         1

