### 
### Created by X-TOOL on Sun Nov 13 14:27:06 2016
### 

@<TRIPOS>MOLECULE
4ww6_ligand
   27    27     1     0     0
SMALL
GAST_HUCK


@<TRIPOS>ATOM
      1 F18        14.9050    7.4260   15.2380 F         1 MOL        -0.1936
      2 C7         15.4290    6.1970   15.0370 C.ar      1 MOL         0.1722
      3 C6         15.1010    5.1840   15.8730 C.ar      1 MOL         0.1801
      4 F17        14.2800    5.5020   16.9350 F         1 MOL        -0.1884
      5 C8         16.2090    5.9850   13.9610 C.ar      1 MOL         0.0792
      6 S11        16.5400    7.2800   12.8200 S.3       1 MOL        -0.1047
      7 C12        18.3100    7.2730   12.6630 C.3       1 MOL         0.0053
      8 C13        18.9590    7.5280   13.9370 C.3       1 MOL        -0.0449
      9 C14        18.8340    8.8930   14.4850 C.3       1 MOL        -0.0644
     10 C9         16.7080    4.6930   13.8160 C.ar      1 MOL         0.1722
     11 F15        17.4830    4.3880   12.7960 F         1 MOL        -0.1936
     12 C10        16.3710    3.6640   14.7090 C.ar      1 MOL         0.1801
     13 F16        16.8910    2.4770   14.4410 F         1 MOL        -0.1884
     14 C5         15.5610    3.9270   15.7690 C.ar      1 MOL         0.1642
     15 S1         15.0950    2.6600   16.8920 S.o2      1 MOL         0.0627
     16 O3         13.6660    2.7270   16.8200 O.2       1 MOL        -0.1526
     17 O4         15.7440    2.9680   18.1330 O.2       1 MOL        -0.1526
     18 N2         15.5830    1.3030   16.3230 N.am      1 MOL        -0.2627
     19 H1         18.6084    8.0534   11.9475 H         1 MOL         0.0399
     20 H2         18.6316    6.2900   12.2886 H         1 MOL         0.0399
     21 H3         20.0312    7.3159   13.8129 H         1 MOL         0.0272
     22 H4         18.5306    6.8328   14.6740 H         1 MOL         0.0272
     23 H5         19.3662    8.9525   15.4458 H         1 MOL         0.0230
     24 H6         17.7711    9.1303   14.6394 H         1 MOL         0.0230
     25 H7         19.2716    9.6134   13.7782 H         1 MOL         0.0230
     26 H8         15.4084    0.4575   16.8276 H         1 MOL         0.1633
     27 H9         16.0723    1.2732   15.4514 H         1 MOL         0.1633
@<TRIPOS>BOND
     1    1    2 1  
     2    2    3 ar 
     3    2    5 ar 
     4    3    4 1  
     5    3   14 ar 
     6    5    6 1  
     7    5   10 ar 
     8    6    7 1  
     9    7    8 1  
    10    8    9 1  
    11   10   11 1  
    12   10   12 ar 
    13   12   13 1  
    14   12   14 ar 
    15   14   15 1  
    16   15   16 2  
    17   15   17 2  
    18   15   18 am 
    19    7   19 1  
    20    7   20 1  
    21    8   21 1  
    22    8   22 1  
    23    9   23 1  
    24    9   24 1  
    25    9   25 1  
    26   18   26 1  
    27   18   27 1  
@<TRIPOS>SUBSTRUCTURE
     1 MOL         1

