### 
### Created by X-TOOL on Sun Nov 13 14:27:06 2016
### 

@<TRIPOS>MOLECULE
4ww8_ligand
   27    27     1     0     0
SMALL
GAST_HUCK


@<TRIPOS>ATOM
      1 O4         23.0210    2.5850    8.7080 O.2       1 VD9        -0.1514
      2 S2         23.6830    2.4010   10.0070 S.o2      1 VD9         0.0628
      3 O1         24.7240    1.3220   10.0150 O.2       1 VD9        -0.1514
      4 N3         22.6150    2.1410   11.1640 N.am      1 VD9        -0.2617
      5 C5         24.5410    3.8900   10.2920 C.ar      1 VD9         0.1010
      6 C10        25.9260    3.9260   10.2270 C.ar      1 VD9        -0.0412
      7 C9         26.6420    5.1260   10.4090 C.ar      1 VD9        -0.0480
      8 C8         25.8880    6.2490   10.7420 C.ar      1 VD9         0.0154
      9 C7         24.4930    6.2820   10.8580 C.ar      1 VD9        -0.0480
     10 C6         23.8660    5.0310   10.6870 C.ar      1 VD9        -0.0412
     11 S11        26.6430    7.8580   10.9600 S.3       1 VD9        -0.1017
     12 C12        28.3810    7.6430   10.3990 C.3       1 VD9         0.0068
     13 C13        28.4650    7.4590    8.9030 C.3       1 VD9        -0.0447
     14 C14        29.9090    7.2310    8.4970 C.3       1 VD9        -0.0644
     15 H1         21.8521    2.7748   11.2919 H         1 VD9         0.1634
     16 H2         22.7086    1.3443   11.7611 H         1 VD9         0.1634
     17 H3         26.4706    3.0093   10.0316 H         1 VD9         0.0619
     18 H4         27.7191    5.1726   10.2962 H         1 VD9         0.0565
     19 H5         23.9416    7.1927   11.0621 H         1 VD9         0.0565
     20 H6         22.8007    4.9596   10.8746 H         1 VD9         0.0619
     21 H7         28.8079    6.7571   10.8918 H         1 VD9         0.0401
     22 H8         28.9600    8.5345   10.6817 H         1 VD9         0.0401
     23 H9         28.0820    8.3600    8.4015 H         1 VD9         0.0272
     24 H10        27.8601    6.5893    8.6068 H         1 VD9         0.0272
     25 H11        29.9666    7.0974    7.4067 H         1 VD9         0.0230
     26 H12        30.2927    6.3298    8.9976 H         1 VD9         0.0230
     27 H13        30.5146    8.1005    8.7923 H         1 VD9         0.0230
@<TRIPOS>BOND
     1    1    2 2  
     2    2    3 2  
     3    2    4 am 
     4    2    5 1  
     5    5    6 ar 
     6    5   10 ar 
     7    6    7 ar 
     8    7    8 ar 
     9    8    9 ar 
    10    8   11 1  
    11    9   10 ar 
    12   11   12 1  
    13   12   13 1  
    14   13   14 1  
    15    4   15 1  
    16    4   16 1  
    17    6   17 1  
    18    7   18 1  
    19    9   19 1  
    20   10   20 1  
    21   12   21 1  
    22   12   22 1  
    23   13   23 1  
    24   13   24 1  
    25   14   25 1  
    26   14   26 1  
    27   14   27 1  
@<TRIPOS>SUBSTRUCTURE
     1 VD9         1

