### 
### Created by X-TOOL on Mon Sep 10 21:13:20 2018
### 

@<TRIPOS>MOLECULE
4wwn_ligand
   45    49     1     0     0
SMALL
GAST_HUCK


@<TRIPOS>ATOM
      1 C19        21.9930   13.3620   23.1400 C.ar      1 3VC         0.1546
      2 N5         23.2630   12.9610   23.2290 N.pl3     1 3VC        -0.2409
      3 C21        23.2800   11.7360   23.7460 C.2       1 3VC         0.1112
      4 N6         22.0260   11.3540   23.9870 N.2       1 3VC        -0.2857
      5 C20        21.2080   12.3280   23.6370 C.ar      1 3VC         0.1017
      6 N4         19.8800   12.4610   23.6930 N.ar      1 3VC        -0.2948
      7 C17        19.3390   13.5870   23.2400 C.ar      1 3VC         0.0502
      8 N3         20.0610   14.6030   22.7540 N.ar      1 3VC        -0.2689
      9 C18        21.3910   14.5340   22.6790 C.ar      1 3VC         0.1571
     10 N7         22.1430   15.5360   22.1820 N.pl3     1 3VC        -0.2862
     11 C10        21.6650   16.8530   21.6770 C.3       1 3VC         0.0776
     12 C11        22.8940   17.7340   21.4680 C.3       1 3VC        -0.0306
     13 C1         20.9680   16.7530   20.3160 C.ar      1 3VC         0.0207
     14 C5         21.4980   15.9010   19.3520 C.ar      1 3VC        -0.0333
     15 C4         20.8590   15.8250   18.1210 C.ar      1 3VC        -0.0031
     16 C9         21.3540   14.9740   17.1520 C.ar      1 3VC        -0.0489
     17 C8         20.7090   14.8830   15.9220 C.ar      1 3VC        -0.0227
     18 C7         19.5800   15.6580   15.6520 C.ar      1 3VC         0.1367
     19 F1         18.9870   15.5450   14.4460 F         1 3VC        -0.1812
     20 C6         19.0760   16.5220   16.6220 C.ar      1 3VC        -0.0097
     21 C3         19.7190   16.5980   17.8550 C.ar      1 3VC         0.0393
     22 N1         19.2290   17.4060   18.7940 N.ar      1 3VC        -0.2934
     23 C2         19.8240   17.5060   19.9940 C.ar      1 3VC         0.0740
     24 C12        19.2180   18.3880   20.8730 C.ar      1 3VC         0.0707
     25 C13        19.6900   19.6950   20.9800 C.ar      1 3VC        -0.0233
     26 C14        19.0440   20.5610   21.8500 C.ar      1 3VC        -0.0400
     27 C15        17.9470   20.0900   22.5680 C.ar      1 3VC        -0.0325
     28 C16        17.5200   18.7740   22.4030 C.ar      1 3VC         0.0125
     29 N2         18.1440   17.9680   21.5730 N.ar      1 3VC        -0.2875
     30 H          24.0889   13.5072   22.9456 H         1 3VC         0.2376
     31 H          24.1720   11.1424   23.9405 H         1 3VC         0.1402
     32 H          18.2599   13.6872   23.2655 H         1 3VC         0.0974
     33 H          23.1595   15.3731   22.1477 H         1 3VC         0.1872
     34 H          20.9812   17.3026   22.4120 H         1 3VC         0.0735
     35 H          22.5794   18.7194   21.0937 H         1 3VC         0.0276
     36 H          23.5643   17.2605   20.7355 H         1 3VC         0.0276
     37 H          23.4239   17.8570   22.4241 H         1 3VC         0.0276
     38 H          22.3853   15.3127   19.5561 H         1 3VC         0.0672
     39 H          22.2396   14.3805   17.3484 H         1 3VC         0.0632
     40 H          21.0871   14.2038   15.1665 H         1 3VC         0.0641
     41 H          18.1980   17.1250   16.4203 H         1 3VC         0.0605
     42 H          20.5416   20.0269   20.3972 H         1 3VC         0.0734
     43 H          19.3856   21.5829   21.9687 H         1 3VC         0.0740
     44 H          17.4258   20.7471   23.2548 H         1 3VC         0.0721
     45 H          16.6660   18.4118   22.9638 H         1 3VC         0.0833
@<TRIPOS>BOND
     1    1    2 1  
     2    1    5 ar 
     3    1    9 ar 
     4    2    3 1  
     5    3    4 2  
     6    4    5 1  
     7    5    6 ar 
     8    6    7 ar 
     9    7    8 ar 
    10    8    9 ar 
    11    9   10 1  
    12   10   11 1  
    13   11   12 1  
    14   11   13 1  
    15   13   14 ar 
    16   13   23 ar 
    17   14   15 ar 
    18   15   16 ar 
    19   15   21 ar 
    20   16   17 ar 
    21   17   18 ar 
    22   18   19 1  
    23   18   20 ar 
    24   20   21 ar 
    25   21   22 ar 
    26   22   23 ar 
    27   23   24 1  
    28   24   25 ar 
    29   24   29 ar 
    30   25   26 ar 
    31   26   27 ar 
    32   27   28 ar 
    33   28   29 ar 
    34    2   30 1  
    35    3   31 1  
    36    7   32 1  
    37   10   33 1  
    38   11   34 1  
    39   12   35 1  
    40   12   36 1  
    41   12   37 1  
    42   14   38 1  
    43   16   39 1  
    44   17   40 1  
    45   20   41 1  
    46   25   42 1  
    47   26   43 1  
    48   27   44 1  
    49   28   45 1  
@<TRIPOS>SUBSTRUCTURE
     1 3VC         1

