### 
### Created by X-TOOL on Mon Sep 10 21:13:20 2018
### 

@<TRIPOS>MOLECULE
4wwo_ligand
   46    50     1     0     0
SMALL
GAST_HUCK


@<TRIPOS>ATOM
      1 C18        22.0970   13.4740   23.3830 C.ar      1 3VD         0.1546
      2 N21        23.3550   13.0490   23.4860 N.pl3     1 3VD        -0.2409
      3 C22        23.3340   11.8200   23.9920 C.2       1 3VD         0.1112
      4 N23        22.0740   11.4570   24.2200 N.2       1 3VD        -0.2857
      5 C19        21.2890   12.4530   23.8540 C.ar      1 3VD         0.1017
      6 N20        19.9640   12.6060   23.8690 N.ar      1 3VD        -0.2948
      7 C15        19.4280   13.7410   23.4290 C.ar      1 3VD         0.0502
      8 N16        20.1740   14.7500   22.9590 N.ar      1 3VD        -0.2689
      9 C17        21.5100   14.6640   22.9160 C.ar      1 3VD         0.1571
     10 N13        22.2640   15.6860   22.4560 N.pl3     1 3VD        -0.2862
     11 C12        21.7420   16.9840   21.9430 C.3       1 3VD         0.0776
     12 C30        22.8810   18.0090   21.9040 C.3       1 3VD        -0.0306
     13 C7         21.1910   16.8720   20.5070 C.ar      1 3VD         0.0192
     14 C6         21.7230   15.9510   19.6090 C.ar      1 3VD        -0.0329
     15 C5         21.1820   15.8870   18.3190 C.ar      1 3VD        -0.0016
     16 C11        21.6850   14.9740   17.4040 C.ar      1 3VD        -0.0503
     17 C10        21.1520   14.8950   16.1240 C.ar      1 3VD        -0.0585
     18 C9         20.1190   15.7450   15.7470 C.ar      1 3VD        -0.0448
     19 C8         19.6050   16.6730   16.6460 C.ar      1 3VD         0.0594
     20 CL1        18.3150   17.7190   16.1170 Cl        1 3VD        -0.0678
     21 C4         20.1420   16.7430   17.9370 C.ar      1 3VD         0.0533
     22 N3         19.6560   17.6190   18.8220 N.ar      1 3VD        -0.2950
     23 C2         20.1590   17.7190   20.0580 C.ar      1 3VD         0.0571
     24 C1         19.5530   18.6480   20.8830 C.ar      1 3VD        -0.0012
     25 C24        18.4440   18.1980   21.5770 C.ar      1 3VD        -0.0168
     26 C25        17.7590   19.0510   22.4220 C.ar      1 3VD         0.1351
     27 F1         16.6880   18.5680   23.0770 F         1 3VD        -0.1829
     28 C26        18.1800   20.3730   22.5780 C.ar      1 3VD        -0.0260
     29 C27        19.2950   20.8260   21.8730 C.ar      1 3VD        -0.0606
     30 C28        19.9870   19.9600   21.0190 C.ar      1 3VD        -0.0542
     31 H          24.1968   13.5797   23.2201 H         1 3VD         0.2376
     32 H          24.2113   11.2057   24.1893 H         1 3VD         0.1402
     33 H          18.3501   13.8537   23.4514 H         1 3VD         0.0974
     34 H          23.2859   15.5572   22.4602 H         1 3VD         0.1872
     35 H          20.9433   17.3354   22.6128 H         1 3VD         0.0736
     36 H          22.4982   18.9683   21.5256 H         1 3VD         0.0276
     37 H          23.6791   17.6452   21.2402 H         1 3VD         0.0276
     38 H          23.2831   18.1492   22.9182 H         1 3VD         0.0276
     39 H          22.5375   15.2982   19.9016 H         1 3VD         0.0671
     40 H          22.4993   14.3180   17.6898 H         1 3VD         0.0632
     41 H          21.5418   14.1701   15.4186 H         1 3VD         0.0631
     42 H          19.7109   15.6841   14.7446 H         1 3VD         0.0637
     43 H          18.1112   17.1733   21.4578 H         1 3VD         0.0627
     44 H          17.6445   21.0421   23.2418 H         1 3VD         0.0622
     45 H          19.6264   21.8518   21.9870 H         1 3VD         0.0614
     46 H          20.8532   20.3099   20.4691 H         1 3VD         0.0609
@<TRIPOS>BOND
     1    1    2 1  
     2    1    5 ar 
     3    1    9 ar 
     4    2    3 1  
     5    3    4 2  
     6    4    5 1  
     7    5    6 ar 
     8    6    7 ar 
     9    7    8 ar 
    10    8    9 ar 
    11    9   10 1  
    12   10   11 1  
    13   11   12 1  
    14   11   13 1  
    15   13   14 ar 
    16   13   23 ar 
    17   14   15 ar 
    18   15   16 ar 
    19   15   21 ar 
    20   16   17 ar 
    21   17   18 ar 
    22   18   19 ar 
    23   19   20 1  
    24   19   21 ar 
    25   21   22 ar 
    26   22   23 ar 
    27   23   24 1  
    28   24   25 ar 
    29   24   30 ar 
    30   25   26 ar 
    31   26   27 1  
    32   26   28 ar 
    33   28   29 ar 
    34   29   30 ar 
    35    2   31 1  
    36    3   32 1  
    37    7   33 1  
    38   10   34 1  
    39   11   35 1  
    40   12   36 1  
    41   12   37 1  
    42   12   38 1  
    43   14   39 1  
    44   16   40 1  
    45   17   41 1  
    46   18   42 1  
    47   25   43 1  
    48   28   44 1  
    49   29   45 1  
    50   30   46 1  
@<TRIPOS>SUBSTRUCTURE
     1 3VD         1

