### 
### Created by X-TOOL on Mon Sep 10 21:13:19 2018
### 

@<TRIPOS>MOLECULE
4wwp_ligand
   48    52     1     0     0
SMALL
GAST_HUCK


@<TRIPOS>ATOM
      1 C30        17.1970   17.1240   21.6710 C.3       1 3VE        -0.0129
      2 C29        17.9390   18.4450   21.5090 C.ar      1 3VE         0.0378
      3 N28        17.5200   19.4780   22.2510 N.ar      1 3VE        -0.2948
      4 C27        18.0890   20.6660   22.1840 C.ar      1 3VE         0.0045
      5 C26        19.1610   20.8850   21.3310 C.ar      1 3VE        -0.0388
      6 C25        19.6280   19.8520   20.5340 C.ar      1 3VE        -0.0375
      7 C11        19.0100   18.6140   20.6260 C.ar      1 3VE         0.0301
      8 C2         19.5260   17.6150   19.8160 C.ar      1 3VE         0.0615
      9 N3         19.0430   17.5150   18.5850 N.ar      1 3VE        -0.2954
     10 C6         19.4990   16.6020   17.7170 C.ar      1 3VE         0.0528
     11 C7         18.9570   16.5230   16.4280 C.ar      1 3VE         0.0592
     12 CL1        17.6990   17.6020   15.9060 Cl        1 3VE        -0.0679
     13 C8         19.4290   15.5670   15.5350 C.ar      1 3VE        -0.0449
     14 C9         20.4420   14.6960   15.9130 C.ar      1 3VE        -0.0586
     15 C10        20.9870   14.7830   17.1920 C.ar      1 3VE        -0.0504
     16 C5         20.5160   15.7300   18.0920 C.ar      1 3VE        -0.0018
     17 C4         21.0600   15.8070   19.3640 C.ar      1 3VE        -0.0331
     18 C1         20.5550   16.7600   20.2440 C.ar      1 3VE         0.0192
     19 C13        21.1500   16.8630   21.6540 C.3       1 3VE         0.0775
     20 C15        22.3250   17.8290   21.5280 C.3       1 3VE        -0.0306
     21 N14        21.6320   15.5570   22.1700 N.pl3     1 3VE        -0.2862
     22 C16        20.8470   14.5520   22.5740 C.ar      1 3VE         0.1571
     23 C21        21.4130   13.3520   23.0080 C.ar      1 3VE         0.1546
     24 N22        22.6710   12.9250   23.1230 N.pl3     1 3VE        -0.2409
     25 C23        22.6350   11.6810   23.5920 C.2       1 3VE         0.1112
     26 N24        21.3630   11.3160   23.7810 N.2       1 3VE        -0.2857
     27 C20        20.5840   12.3270   23.4330 C.ar      1 3VE         0.1017
     28 N17        19.2540   12.4840   23.4170 N.ar      1 3VE        -0.2948
     29 C18        18.7420   13.6380   22.9950 C.ar      1 3VE         0.0502
     30 N19        19.5130   14.6540   22.5840 N.ar      1 3VE        -0.2689
     31 H          17.6432   16.3690   21.0070 H         1 3VE         0.0431
     32 H          16.1381   17.2636   21.4080 H         1 3VE         0.0431
     33 H          17.2741   16.7857   22.7148 H         1 3VE         0.0431
     34 H          17.7165   21.4768   22.7996 H         1 3VE         0.0815
     35 H          19.6316   21.8606   21.2881 H         1 3VE         0.0656
     36 H          20.4576   20.0082   19.8540 H         1 3VE         0.0739
     37 H          19.0043   15.5016   14.5398 H         1 3VE         0.0636
     38 H          20.8074   13.9511   15.2154 H         1 3VE         0.0630
     39 H          21.7827   14.1082   17.4862 H         1 3VE         0.0632
     40 H          21.8599   15.1409   19.6667 H         1 3VE         0.0671
     41 H          20.3962   17.2644   22.3473 H         1 3VE         0.0736
     42 H          22.8049   17.9527   22.5101 H         1 3VE         0.0276
     43 H          21.9614   18.8043   21.1722 H         1 3VE         0.0276
     44 H          23.0556   17.4262   20.8111 H         1 3VE         0.0276
     45 H          22.6507   15.4135   22.2209 H         1 3VE         0.1872
     46 H          23.5185   13.4622   22.8904 H         1 3VE         0.2376
     47 H          23.5054   11.0574   23.7909 H         1 3VE         0.1402
     48 H          17.6649   13.7600   22.9834 H         1 3VE         0.0974
@<TRIPOS>BOND
     1    1    2 1  
     2    2    3 ar 
     3    2    7 ar 
     4    3    4 ar 
     5    4    5 ar 
     6    5    6 ar 
     7    6    7 ar 
     8    7    8 1  
     9    8    9 ar 
    10    8   18 ar 
    11    9   10 ar 
    12   10   11 ar 
    13   10   16 ar 
    14   11   12 1  
    15   11   13 ar 
    16   13   14 ar 
    17   14   15 ar 
    18   15   16 ar 
    19   16   17 ar 
    20   17   18 ar 
    21   18   19 1  
    22   19   20 1  
    23   19   21 1  
    24   21   22 1  
    25   22   23 ar 
    26   22   30 ar 
    27   23   24 1  
    28   23   27 ar 
    29   24   25 1  
    30   25   26 2  
    31   26   27 1  
    32   27   28 ar 
    33   28   29 ar 
    34   29   30 ar 
    35    1   31 1  
    36    1   32 1  
    37    1   33 1  
    38    4   34 1  
    39    5   35 1  
    40    6   36 1  
    41   13   37 1  
    42   14   38 1  
    43   15   39 1  
    44   17   40 1  
    45   19   41 1  
    46   20   42 1  
    47   20   43 1  
    48   20   44 1  
    49   21   45 1  
    50   24   46 1  
    51   25   47 1  
    52   29   48 1  
@<TRIPOS>SUBSTRUCTURE
     1 3VE         1

