### 
### Created by X-TOOL on Mon Sep 10 21:13:25 2018
### 

@<TRIPOS>MOLECULE
4wx6_ligand
   69    69     1     0     0
SMALL
GAST_HUCK


@<TRIPOS>ATOM
      1 C1         37.1560   42.7860   12.4710 C.ar      1 3VK        -0.0406
      2 C2         37.7160   43.4290   13.5650 C.ar      1 3VK         0.0349
      3 C3         38.9000   42.9540   14.1610 C.ar      1 3VK        -0.0385
      4 C14        39.4820   39.2770   17.2630 C.3       1 3VK         0.1360
      5 C15        38.2540   39.8750   17.8970 C.2       1 3VK         0.2042
      6 C18        40.5860   38.9970   18.3520 C.3       1 3VK         0.0026
      7 C19        40.2550   37.9080   19.4420 C.3       1 3VK        -0.0558
      8 C20        41.9300   38.4980   17.7160 C.3       1 3VK        -0.0558
      9 C21        40.7880   40.3790   19.0700 C.3       1 3VK        -0.0558
     10 C22        36.3390   39.5020   19.2660 C.3       1 3VK         0.1200
     11 C23        35.9550   38.4590   20.2640 C.2       1 3VK         0.1985
     12 C25        35.0160   37.9850   22.5030 C.3       1 3VK         0.0324
     13 C27        33.4870   38.1270   22.5540 C.3       1 3VK        -0.0133
     14 C28        32.9050   39.5420   22.7700 C.3       1 3VK         0.0673
     15 C30        33.9680   39.7940   25.2070 C.3       1 3VK         0.0544
     16 C4         39.5340   41.7960   13.6640 C.ar      1 3VK         0.0246
     17 C5         38.9550   41.1490   12.5800 C.ar      1 3VK        -0.0385
     18 C6         37.7960   41.6550   12.0050 C.ar      1 3VK         0.0349
     19 CL7        37.1020   40.8470   10.6710 Cl        1 3VK        -0.0724
     20 CL8        36.8890   44.8550   14.1320 Cl        1 3VK        -0.0724
     21 C9         40.8010   41.1880   14.2910 C.3       1 3VK         0.1001
     22 C10        40.2610   40.0380   15.1080 C.2       1 3VK         0.2386
     23 N11        41.7650   40.6700   13.3100 N.4       1 3VK         0.2574
     24 O12        40.0450   38.9390   14.5990 O.2       1 3VK        -0.3877
     25 N13        39.9950   40.3220   16.4050 N.am      1 3VK        -0.2588
     26 N16        37.5060   39.0030   18.5750 N.am      1 3VK        -0.2664
     27 O17        38.0200   41.0940   17.8160 O.2       1 3VK        -0.3944
     28 N24        35.4740   38.9070   21.4660 N.am      1 3VK        -0.2852
     29 O26        36.0890   37.2910   19.8870 O.2       1 3VK        -0.3949
     30 S29        32.3570   39.8870   24.3860 S.o2      1 3VK        -0.0337
     31 O31        31.5430   38.7020   24.7210 O.2       1 3VK        -0.1746
     32 O32        31.8450   41.2530   24.5760 O.2       1 3VK        -0.1746
     33 C33        43.1730   40.6990   13.7360 C.3       1 3VK        -0.0332
     34 C34        44.0610   40.6310   12.4570 C.3       1 3VK        -0.0245
     35 H1         36.2523   43.1566   12.0009 H         1 3VK         0.0573
     36 H2         39.3267   43.4812   15.0066 H         1 3VK         0.0570
     37 H3         39.2399   38.3615   16.7033 H         1 3VK         0.0805
     38 H4         41.1042   37.8127   20.1347 H         1 3VK         0.0237
     39 H5         40.0724   36.9410   18.9506 H         1 3VK         0.0237
     40 H6         39.3575   38.2102   20.0016 H         1 3VK         0.0237
     41 H7         42.2483   39.2015   16.9326 H         1 3VK         0.0237
     42 H8         41.7793   37.5017   17.2749 H         1 3VK         0.0237
     43 H9         42.7051   38.4409   18.4944 H         1 3VK         0.0237
     44 H10        39.8338   40.7079   19.5074 H         1 3VK         0.0237
     45 H11        41.1327   41.1251   18.3389 H         1 3VK         0.0237
     46 H12        41.5389   40.2720   19.8667 H         1 3VK         0.0237
     47 H13        36.5757   40.4471   19.7767 H         1 3VK         0.0763
     48 H14        35.5173   39.6661   18.5533 H         1 3VK         0.0763
     49 H15        35.2952   36.9525   22.2462 H         1 3VK         0.0520
     50 H16        35.4570   38.2534   23.4743 H         1 3VK         0.0520
     51 H17        33.1253   37.4936   23.3774 H         1 3VK         0.0300
     52 H18        33.0898   37.7504   21.5999 H         1 3VK         0.0300
     53 H19        32.0502   39.6647   22.0887 H         1 3VK         0.0500
     54 H20        33.6862   40.2728   22.5136 H         1 3VK         0.0500
     55 H21        33.8433   39.9895   26.2823 H         1 3VK         0.0464
     56 H22        34.6443   40.5456   24.7737 H         1 3VK         0.0464
     57 H23        34.3951   38.7905   25.0639 H         1 3VK         0.0464
     58 H24        39.4080   40.2481   12.1821 H         1 3VK         0.0570
     59 H25        41.3024   41.9299   14.9298 H         1 3VK         0.1260
     60 H26        41.6822   41.2220   12.4707 H         1 3VK         0.2049
     61 H27        41.5204   39.7132   13.1084 H         1 3VK         0.2049
     62 H28        40.1512   41.2419   16.7647 H         1 3VK         0.1886
     63 H29        37.7458   38.0326   18.6042 H         1 3VK         0.1881
     64 H30        35.4353   39.8913   21.6383 H         1 3VK         0.1851
     65 H31        43.3852   39.8364   14.3848 H         1 3VK         0.0811
     66 H32        43.3785   41.6299   14.2848 H         1 3VK         0.0811
     67 H33        45.1222   40.6511   12.7459 H         1 3VK         0.0281
     68 H34        43.8405   41.4937   11.8112 H         1 3VK         0.0281
     69 H35        43.8472   39.7002   11.9112 H         1 3VK         0.0281
@<TRIPOS>BOND
     1    2    1 ar 
     2   18    1 ar 
     3    3    2 ar 
     4    2   20 1  
     5   16    3 ar 
     6    4    5 1  
     7    4    6 1  
     8   25    4 1  
     9    5   26 am 
    10    5   27 2  
    11    6    7 1  
    12    6    8 1  
    13    6    9 1  
    14   10   11 1  
    15   26   10 1  
    16   11   28 am 
    17   11   29 2  
    18   12   13 1  
    19   28   12 1  
    20   13   14 1  
    21   14   30 1  
    22   30   15 1  
    23   16   17 ar 
    24   21   16 1  
    25   17   18 ar 
    26   18   19 1  
    27   22   21 1  
    28   21   23 1  
    29   22   24 2  
    30   22   25 am 
    31   23   33 1  
    32   30   31 2  
    33   30   32 2  
    34   33   34 1  
    35    1   35 1  
    36    3   36 1  
    37    4   37 1  
    38    7   38 1  
    39    7   39 1  
    40    7   40 1  
    41    8   41 1  
    42    8   42 1  
    43    8   43 1  
    44    9   44 1  
    45    9   45 1  
    46    9   46 1  
    47   10   47 1  
    48   10   48 1  
    49   12   49 1  
    50   12   50 1  
    51   13   51 1  
    52   13   52 1  
    53   14   53 1  
    54   14   54 1  
    55   15   55 1  
    56   15   56 1  
    57   15   57 1  
    58   17   58 1  
    59   21   59 1  
    60   23   60 1  
    61   23   61 1  
    62   25   62 1  
    63   26   63 1  
    64   28   64 1  
    65   33   65 1  
    66   33   66 1  
    67   34   67 1  
    68   34   68 1  
    69   34   69 1  
@<TRIPOS>SUBSTRUCTURE
     1 3VK         1

