### 
### Created by X-TOOL on Mon Sep 10 21:13:23 2018
### 

@<TRIPOS>MOLECULE
4wxi_ligand
   68    72     1     0     0
SMALL
GAST_HUCK


@<TRIPOS>ATOM
      1 C13        44.6710  -21.0240   29.9870 C.ar      1 3VM        -0.0113
      2 C18        48.0600  -21.7420   32.3490 C.2       1 3VM         0.2399
      3 C17        41.2770  -20.5920   28.4550 C.ar      1 3VM         0.0539
      4 C16        46.9880  -20.8590   30.6150 C.ar      1 3VM        -0.0499
      5 C15        39.7930  -23.1480   28.7650 C.ar      1 3VM        -0.0386
      6 C19        38.9350  -18.3080   29.1450 C.2       1 3VM         0.1815
      7 C20        37.0570  -16.6750   29.5400 C.3       1 3VM        -0.0328
      8 C21        38.8170  -16.1700   27.7430 C.3       1 3VM        -0.0328
      9 C22        36.1690  -15.6170   28.8960 C.3       1 3VM        -0.0431
     10 C23        37.9120  -15.0640   27.1730 C.3       1 3VM        -0.0431
     11 C24        38.0460  -17.2550   28.5220 C.3       1 3VM         0.0488
     12 C11        42.8720  -20.3320   26.7800 C.ar      1 3VM         0.0019
     13 C12        46.7740  -21.6190   31.7730 C.ar      1 3VM         0.0772
     14 C27        36.0570  -13.4210   27.7670 C.3       1 3VM        -0.0325
     15 C1         41.1530  -25.3760   29.7200 C.ar      1 3VM        -0.0687
     16 C2         41.1770  -25.0580   28.3560 C.ar      1 3VM        -0.0686
     17 C3         40.4590  -24.5740   30.6120 C.ar      1 3VM        -0.0686
     18 C4         45.4740  -22.1030   32.0520 C.ar      1 3VM        -0.0364
     19 C5         44.4390  -21.8040   31.1440 C.ar      1 3VM        -0.0496
     20 C6         40.5010  -23.9420   27.8650 C.ar      1 3VM        -0.0601
     21 C7         39.7900  -23.4480   30.1310 C.ar      1 3VM        -0.0601
     22 C8         43.9010  -20.5410   27.6910 C.ar      1 3VM        -0.0346
     23 C9         45.9570  -20.5280   29.7090 C.ar      1 3VM        -0.0557
     24 C10        42.2450  -20.8290   29.4320 C.ar      1 3VM        -0.0240
     25 C14        43.5890  -20.7700   29.0400 C.ar      1 3VM        -0.0062
     26 C25        37.0070  -14.4950   28.2670 C.3       1 3VM        -0.0006
     27 C26        39.1080  -21.8990   28.2890 C.3       1 3VM         0.0160
     28 C28        39.8060  -20.6420   28.8440 C.3       1 3VM         0.0998
     29 N29        41.5630  -20.3640   27.1330 N.ar      1 3VM        -0.2977
     30 N30        48.9900  -21.0540   31.6710 N.pl3     1 3VM        -0.2548
     31 N31        48.3270  -20.5490   30.6250 N.2       1 3VM        -0.4398
     32 N32        48.2680  -22.4190   33.5130 N.pl3     1 3VM        -0.2608
     33 N33        36.7440  -12.2190   27.4830 N.4       1 3VM         0.2187
     34 N34        39.0390  -19.4840   28.4300 N.am      1 3VM        -0.2684
     35 O35        39.5010  -18.0990   30.2030 O.2       1 3VM        -0.3966
     36 H1         36.4250  -17.4864   29.9302 H         1 3VM         0.0292
     37 H2         37.6192  -16.2178   30.3676 H         1 3VM         0.0292
     38 H3         39.5475  -15.7065   28.4223 H         1 3VM         0.0292
     39 H4         39.3468  -16.6513   26.9078 H         1 3VM         0.0292
     40 H5         35.5108  -15.1852   29.6643 H         1 3VM         0.0271
     41 H6         35.5578  -16.0899   28.1132 H         1 3VM         0.0271
     42 H7         37.2887  -15.4844   26.3700 H         1 3VM         0.0271
     43 H8         38.5391  -14.2571   26.7661 H         1 3VM         0.0271
     44 H9         37.4367  -17.7808   27.7722 H         1 3VM         0.0538
     45 H10        43.1264  -20.1353   25.7448 H         1 3VM         0.0797
     46 H11        35.2983  -13.2261   28.5392 H         1 3VM         0.0816
     47 H12        35.5642  -13.7771   26.8503 H         1 3VM         0.0816
     48 H13        41.6794  -26.2529   30.0792 H         1 3VM         0.0559
     49 H14        41.7303  -25.6901   27.6709 H         1 3VM         0.0599
     50 H15        40.4362  -24.8179   31.6680 H         1 3VM         0.0599
     51 H16        45.2791  -22.6895   32.9426 H         1 3VM         0.0639
     52 H17        43.4410  -22.1807   31.3367 H         1 3VM         0.0639
     53 H18        40.5255  -23.6979   26.8091 H         1 3VM         0.0557
     54 H19        39.2633  -22.8000   30.8222 H         1 3VM         0.0557
     55 H20        44.9340  -20.5272   27.3627 H         1 3VM         0.0654
     56 H21        46.1490  -19.9165   28.8348 H         1 3VM         0.0633
     57 H22        41.9674  -21.0505   30.4562 H         1 3VM         0.0649
     58 H23        37.6507  -14.0527   29.0417 H         1 3VM         0.0352
     59 H24        38.0621  -21.9099   28.6296 H         1 3VM         0.0474
     60 H25        39.1353  -21.8701   27.1897 H         1 3VM         0.0474
     61 H26        39.7690  -20.6887   29.9424 H         1 3VM         0.0771
     62 H27        49.9871  -20.9404   31.9028 H         1 3VM         0.2538
     63 H28        47.4892  -22.9208   33.9631 H         1 3VM         0.2097
     64 H29        49.2040  -22.4289   33.9428 H         1 3VM         0.2097
     65 H30        36.0888  -11.5272   27.1541 H         1 3VM         0.1994
     66 H31        37.4384  -12.3887   26.7723 H         1 3VM         0.1994
     67 H32        37.1947  -11.8838   28.3200 H         1 3VM         0.1994
     68 H33        38.5481  -19.5414   27.5607 H         1 3VM         0.1886
@<TRIPOS>BOND
     1    1   19 ar 
     2    1   23 ar 
     3   25    1 1  
     4   13    2 2  
     5    2   30 1  
     6    2   32 1  
     7    3   24 ar 
     8   28    3 1  
     9    3   29 ar 
    10    4   13 ar 
    11   23    4 ar 
    12    4   31 2  
    13    5   20 ar 
    14    5   21 ar 
    15   27    5 1  
    16    6   11 1  
    17   34    6 am 
    18    6   35 2  
    19    7    9 1  
    20   11    7 1  
    21    8   10 1  
    22   11    8 1  
    23    9   26 1  
    24   10   26 1  
    25   12   22 ar 
    26   29   12 ar 
    27   18   13 ar 
    28   26   14 1  
    29   14   33 1  
    30   16   15 ar 
    31   17   15 ar 
    32   20   16 ar 
    33   21   17 ar 
    34   19   18 ar 
    35   25   22 ar 
    36   24   25 ar 
    37   28   27 1  
    38   28   34 1  
    39   30   31 1  
    40    7   36 1  
    41    7   37 1  
    42    8   38 1  
    43    8   39 1  
    44    9   40 1  
    45    9   41 1  
    46   10   42 1  
    47   10   43 1  
    48   11   44 1  
    49   12   45 1  
    50   14   46 1  
    51   14   47 1  
    52   15   48 1  
    53   16   49 1  
    54   17   50 1  
    55   18   51 1  
    56   19   52 1  
    57   20   53 1  
    58   21   54 1  
    59   22   55 1  
    60   23   56 1  
    61   24   57 1  
    62   26   58 1  
    63   27   59 1  
    64   27   60 1  
    65   28   61 1  
    66   30   62 1  
    67   32   63 1  
    68   32   64 1  
    69   33   65 1  
    70   33   66 1  
    71   33   67 1  
    72   34   68 1  
@<TRIPOS>SUBSTRUCTURE
     1 3VM         1

