### 
### Created by X-TOOL on Mon Sep 10 21:13:22 2018
### 

@<TRIPOS>MOLECULE
4wy1_ligand
   34    36     1     0     0
SMALL
GAST_HUCK


@<TRIPOS>ATOM
      1 C4         24.5500   37.9850   41.3230 C.ar      1 3VO         0.0287
      2 N2         21.1110   35.5930   39.9540 N.pl3     1 3VO        -0.2674
      3 C7         25.6180   38.6420   42.0760 C.ar      1 3VO         0.1645
      4 C6         26.2770   36.6200   40.2500 C.ar      1 3VO        -0.0006
      5 C9         22.6150   38.1450   43.0560 C.3       1 3VO        -0.0087
      6 C13        27.2750   37.3190   40.9740 C.ar      1 3VO         0.1648
      7 C8         23.0780   38.3490   41.5490 C.3       1 3VO         0.1231
      8 O1         21.6310   40.2890   41.3900 O.3       1 3VO        -0.3848
      9 C1         21.2230   40.2310   42.8020 C.3       1 3VO         0.0463
     10 C2         21.2250   38.7730   43.3690 C.3       1 3VO        -0.0299
     11 C3         22.9050   39.8540   41.1310 C.3       1 3VO         0.0680
     12 C5         24.9520   36.9670   40.4390 C.ar      1 3VO        -0.0378
     13 C10        22.8160   36.6720   43.5100 C.3       1 3VO        -0.0055
     14 S1         21.8640   35.4900   42.4890 S.3       1 3VO        -0.0881
     15 C11        21.7690   36.3390   40.9080 C.cat     1 3VO         0.2579
     16 N1         22.2230   37.5480   40.5980 N.pl3     1 3VO        -0.2844
     17 C12        26.9640   38.3480   41.8750 C.ar      1 3VO         0.0380
     18 F1         25.3950   39.6530   42.9110 F         1 3VO        -0.1563
     19 F2         28.5400   36.9700   40.7960 F         1 3VO        -0.1572
     20 H1         20.9883   35.9670   39.0022 H         1 3VO         0.3186
     21 H2         20.7419   34.6615   40.1929 H         1 3VO         0.3186
     22 H3         26.5475   35.8281   39.5609 H         1 3VO         0.0665
     23 H4         23.3238   38.7282   43.6622 H         1 3VO         0.0248
     24 H5         20.2070   40.6428   42.8924 H         1 3VO         0.0559
     25 H6         21.9200   40.8408   43.3955 H         1 3VO         0.0559
     26 H7         21.0596   38.7937   44.4563 H         1 3VO         0.0283
     27 H8         20.4306   38.1831   42.8884 H         1 3VO         0.0283
     28 H9         23.1084   39.9548   40.0547 H         1 3VO         0.0496
     29 H10        23.6184   40.4699   41.6982 H         1 3VO         0.0496
     30 H11        24.1908   36.4321   39.8826 H         1 3VO         0.0823
     31 H12        22.4897   36.5774   44.5562 H         1 3VO         0.0369
     32 H13        23.8846   36.4222   43.4352 H         1 3VO         0.0369
     33 H14        21.9843   37.9511   39.6807 H         1 3VO         0.3097
     34 H15        27.7425   38.8940   42.3954 H         1 3VO         0.0674
@<TRIPOS>BOND
     1    1    3 ar 
     2    7    1 1  
     3    1   12 ar 
     4   15    2 ar 
     5    3   17 ar 
     6    3   18 1  
     7    4    6 ar 
     8   12    4 ar 
     9    5    7 1  
    10    5   10 1  
    11   13    5 1  
    12   17    6 ar 
    13    6   19 1  
    14    7   11 1  
    15    7   16 1  
    16    9    8 1  
    17   11    8 1  
    18   10    9 1  
    19   14   13 1  
    20   14   15 1  
    21   15   16 ar 
    22    2   20 1  
    23    2   21 1  
    24    4   22 1  
    25    5   23 1  
    26    9   24 1  
    27    9   25 1  
    28   10   26 1  
    29   10   27 1  
    30   11   28 1  
    31   11   29 1  
    32   12   30 1  
    33   13   31 1  
    34   13   32 1  
    35   16   33 1  
    36   17   34 1  
@<TRIPOS>SUBSTRUCTURE
     1 3VO         1

