### 
### Created by X-TOOL on Mon Sep 10 21:13:25 2018
### 

@<TRIPOS>MOLECULE
4wy3_ligand
   70    74     1     0     0
SMALL
GAST_HUCK


@<TRIPOS>ATOM
      1 O1        -21.0300  -44.7730    1.3920 O.2       1 3X5        -0.3688
      2 C24       -20.5690  -43.6450    1.4530 C.2       1 3X5         0.1488
      3 C23       -21.3940  -42.5090    2.0100 C.3       1 3X5         0.0595
      4 C25       -20.4920  -41.5640    2.7940 C.3       1 3X5         0.0616
      5 C26       -19.8000  -40.6210    1.8400 C.2       1 3X5         0.0594
      6 N3        -18.5780  -40.0730    2.0050 N.pl3     1 3X5        -0.2622
      7 C28       -18.3200  -39.2900    0.9340 C.2       1 3X5         0.0875
      8 N2        -19.3770  -39.3420    0.0950 N.2       1 3X5        -0.3437
      9 C27       -20.3050  -40.1600    0.6350 C.2       1 3X5        -0.0274
     10 N1        -22.4360  -43.0500    2.9040 N.4       1 3X5         0.2486
     11 C22       -23.3880  -41.9820    3.2500 C.3       1 3X5        -0.0077
     12 C21       -24.7610  -42.5940    3.5290 C.3       1 3X5         0.0844
     13 C20       -24.8730  -42.9890    5.0000 C.3       1 3X5        -0.0216
     14 C19       -24.7540  -41.7770    5.9130 C.3       1 3X5        -0.0341
     15 C18       -24.9510  -42.1890    7.3660 C.3       1 3X5        -0.0498
     16 C17       -24.8580  -40.9770    8.2860 C.3       1 3X5        -0.0528
     17 C16       -25.8460  -39.8910    7.8750 C.3       1 3X5        -0.0527
     18 C15       -25.6640  -39.4990    6.4120 C.3       1 3X5        -0.0481
     19 C14       -25.7730  -40.7230    5.5120 C.3       1 3X5        -0.0177
     20 C13       -25.5640  -40.3270    4.0570 C.3       1 3X5         0.0369
     21 N         -25.7640  -41.5530    3.2900 N.am      1 3X5        -0.2641
     22 C         -26.7520  -41.7760    2.4270 C.2       1 3X5         0.2073
     23 O         -27.1490  -42.9030    2.1820 O.2       1 3X5        -0.3849
     24 C1        -27.3910  -40.6050    1.7410 C.ar      1 3X5         0.0495
     25 C12       -28.2890  -39.8000    2.4320 C.ar      1 3X5        -0.0418
     26 C11       -28.8810  -38.7150    1.7960 C.ar      1 3X5        -0.0489
     27 C4        -28.5750  -38.4350    0.4690 C.ar      1 3X5        -0.0140
     28 C3        -27.6770  -39.2410   -0.2220 C.ar      1 3X5        -0.0489
     29 C2        -27.0850  -40.3250    0.4140 C.ar      1 3X5        -0.0418
     30 C5        -29.2080  -37.2750   -0.2110 C.ar      1 3X5        -0.0153
     31 C10       -29.2600  -37.2260   -1.5990 C.ar      1 3X5        -0.0530
     32 C9        -29.8520  -36.1410   -2.2350 C.ar      1 3X5        -0.0605
     33 C8        -30.3930  -35.1050   -1.4830 C.ar      1 3X5        -0.0611
     34 C7        -30.3410  -35.1530   -0.0950 C.ar      1 3X5        -0.0605
     35 C6        -29.7490  -36.2380    0.5410 C.ar      1 3X5        -0.0530
     36 H1        -19.5552  -43.4558    1.1033 H         1 3X5         0.1411
     37 H2        -21.8690  -41.9608    1.1831 H         1 3X5         0.1114
     38 H3        -19.7387  -42.1477    3.3433 H         1 3X5         0.0526
     39 H4        -21.0983  -40.9852    3.5063 H         1 3X5         0.0526
     40 H5        -17.9508  -40.2250    2.8077 H         1 3X5         0.2386
     41 H6        -17.4105  -38.7128    0.7741 H         1 3X5         0.1149
     42 H7        -21.2726  -40.4113    0.2030 H         1 3X5         0.0324
     43 H8        -22.0070  -43.4032    3.7450 H         1 3X5         0.2038
     44 H9        -22.9248  -43.7975    2.4367 H         1 3X5         0.2038
     45 H10       -23.4656  -41.2742    2.4116 H         1 3X5         0.0837
     46 H11       -23.0341  -41.4515    4.1463 H         1 3X5         0.0837
     47 H12       -24.9323  -43.4658    2.8805 H         1 3X5         0.0611
     48 H13       -24.0685  -43.6991    5.2418 H         1 3X5         0.0292
     49 H14       -25.8484  -43.4688    5.1681 H         1 3X5         0.0292
     50 H15       -23.7459  -41.3506    5.8035 H         1 3X5         0.0305
     51 H16       -24.1725  -42.9145    7.6445 H         1 3X5         0.0268
     52 H17       -25.9420  -42.6530    7.4788 H         1 3X5         0.0268
     53 H18       -23.8375  -40.5691    8.2389 H         1 3X5         0.0265
     54 H19       -25.0800  -41.2917    9.3164 H         1 3X5         0.0265
     55 H20       -25.6862  -39.0041    8.5058 H         1 3X5         0.0265
     56 H21       -26.8702  -40.2649    8.0207 H         1 3X5         0.0265
     57 H22       -24.6725  -39.0410    6.2810 H         1 3X5         0.0269
     58 H23       -26.4426  -38.7741    6.1323 H         1 3X5         0.0269
     59 H24       -26.7812  -41.1493    5.6207 H         1 3X5         0.0323
     60 H25       -24.5455  -39.9401    3.9057 H         1 3X5         0.0525
     61 H26       -26.2952  -39.5618    3.7573 H         1 3X5         0.0525
     62 H27       -28.5276  -40.0183    3.4666 H         1 3X5         0.0667
     63 H28       -29.5814  -38.0871    2.3348 H         1 3X5         0.0633
     64 H29       -27.4389  -39.0235   -1.2569 H         1 3X5         0.0633
     65 H30       -26.3843  -40.9527   -0.1245 H         1 3X5         0.0667
     66 H31       -28.8387  -38.0342   -2.1858 H         1 3X5         0.0629
     67 H32       -29.8917  -36.1029   -3.3176 H         1 3X5         0.0619
     68 H33       -30.8556  -34.2594   -1.9791 H         1 3X5         0.0622
     69 H34       -30.7620  -34.3444    0.4915 H         1 3X5         0.0619
     70 H35       -29.7091  -36.2757    1.6236 H         1 3X5         0.0629
@<TRIPOS>BOND
     1    1    2 2  
     2    2    3 1  
     3    3    4 1  
     4    3   10 1  
     5    4    5 1  
     6    5    6 1  
     7    5    9 2  
     8    6    7 1  
     9    7    8 2  
    10    8    9 1  
    11   10   11 1  
    12   11   12 1  
    13   12   13 1  
    14   12   21 1  
    15   13   14 1  
    16   14   15 1  
    17   14   19 1  
    18   15   16 1  
    19   16   17 1  
    20   17   18 1  
    21   18   19 1  
    22   19   20 1  
    23   20   21 1  
    24   21   22 am 
    25   22   23 2  
    26   22   24 1  
    27   24   25 ar 
    28   24   29 ar 
    29   25   26 ar 
    30   26   27 ar 
    31   27   28 ar 
    32   27   30 1  
    33   28   29 ar 
    34   30   31 ar 
    35   30   35 ar 
    36   31   32 ar 
    37   32   33 ar 
    38   33   34 ar 
    39   34   35 ar 
    40    2   36 1  
    41    3   37 1  
    42    4   38 1  
    43    4   39 1  
    44    6   40 1  
    45    7   41 1  
    46    9   42 1  
    47   10   43 1  
    48   10   44 1  
    49   11   45 1  
    50   11   46 1  
    51   12   47 1  
    52   13   48 1  
    53   13   49 1  
    54   14   50 1  
    55   15   51 1  
    56   15   52 1  
    57   16   53 1  
    58   16   54 1  
    59   17   55 1  
    60   17   56 1  
    61   18   57 1  
    62   18   58 1  
    63   19   59 1  
    64   20   60 1  
    65   20   61 1  
    66   25   62 1  
    67   26   63 1  
    68   28   64 1  
    69   29   65 1  
    70   31   66 1  
    71   32   67 1  
    72   33   68 1  
    73   34   69 1  
    74   35   70 1  
@<TRIPOS>SUBSTRUCTURE
     1 3X5         1

