### 
### Created by X-TOOL on Mon Sep 10 21:13:23 2018
### 

@<TRIPOS>MOLECULE
4wy6_ligand
   37    39     1     0     0
SMALL
GAST_HUCK


@<TRIPOS>ATOM
      1 C4         20.4310  -38.6250    8.9120 C.ar      1 3VP         0.1645
      2 N2         15.4750  -40.1330    6.3020 N.pl3     1 3VP        -0.2674
      3 C7         17.8840  -38.7130    8.7000 C.3       1 3VP         0.1231
      4 C6         21.8790  -39.2200    7.1070 C.ar      1 3VP         0.1648
      5 C9         16.3040  -37.8110   10.9370 C.3       1 3VP         0.0854
      6 C13        16.3400  -40.0220    7.3700 C.cat     1 3VP         0.2579
      7 C8         17.6860  -37.2260    9.1330 C.3       1 3VP         0.0685
      8 C1         20.7690  -39.5300    6.3150 C.ar      1 3VP        -0.0006
      9 C2         19.4960  -39.3560    6.8430 C.ar      1 3VP        -0.0378
     10 C3         19.2860  -38.9110    8.1510 C.ar      1 3VP         0.0287
     11 C5         21.7330  -38.7600    8.4140 C.ar      1 3VP         0.0380
     12 F1         23.0980  -39.3690    6.6120 F         1 3VP        -0.1572
     13 F2         20.3340  -38.2130   10.1700 F         1 3VP        -0.1563
     14 O1         16.4560  -37.0380    9.7730 O.3       1 3VP        -0.3791
     15 C10        16.3200  -39.3030   10.5880 C.3       1 3VP        -0.0246
     16 C11        17.6510  -39.6420    9.9150 C.3       1 3VP        -0.0083
     17 C12        17.7270  -41.1030    9.5090 C.3       1 3VP        -0.0055
     18 S1         16.5470  -41.5810    8.2130 S.3       1 3VP        -0.0881
     19 N1         16.8830  -38.8740    7.6400 N.pl3     1 3VP        -0.2844
     20 C14        14.9080  -37.4090   11.4850 C.3       1 3VP         0.1162
     21 F3         14.9440  -36.1410   11.9440 F         1 3VP        -0.2464
     22 H1         15.2623  -39.3077    5.7236 H         1 3VP         0.3186
     23 H2         15.0415  -41.0412    6.0826 H         1 3VP         0.3186
     24 H3         17.0960  -37.5875   11.6669 H         1 3VP         0.0621
     25 H4         17.7258  -36.5852    8.2398 H         1 3VP         0.0496
     26 H5         18.4948  -36.9439    9.8231 H         1 3VP         0.0496
     27 H6         20.8999  -39.9004    5.3047 H         1 3VP         0.0665
     28 H7         18.6363  -39.5727    6.2193 H         1 3VP         0.0823
     29 H8         22.5957  -38.5155    9.0232 H         1 3VP         0.0674
     30 H9         15.4911  -39.5302    9.9015 H         1 3VP         0.0287
     31 H10        16.2090  -39.8980   11.5065 H         1 3VP         0.0287
     32 H11        18.4538  -39.4566   10.6438 H         1 3VP         0.0248
     33 H12        17.5293  -41.7186   10.3989 H         1 3VP         0.0369
     34 H13        18.7436  -41.3059    9.1411 H         1 3VP         0.0369
     35 H14        16.6015  -38.0488    7.0916 H         1 3VP         0.3097
     36 H15        14.6291  -38.0864   12.3056 H         1 3VP         0.0641
     37 H16        14.1638  -37.4842   10.6785 H         1 3VP         0.0641
@<TRIPOS>BOND
     1   10    1 ar 
     2    1   11 ar 
     3    1   13 1  
     4    6    2 ar 
     5    7    3 1  
     6    3   10 1  
     7    3   16 1  
     8    3   19 1  
     9    4    8 ar 
    10   11    4 ar 
    11    4   12 1  
    12   14    5 1  
    13    5   15 1  
    14    5   20 1  
    15    6   18 1  
    16   19    6 ar 
    17    7   14 1  
    18    8    9 ar 
    19    9   10 ar 
    20   15   16 1  
    21   16   17 1  
    22   17   18 1  
    23   20   21 1  
    24    2   22 1  
    25    2   23 1  
    26    5   24 1  
    27    7   25 1  
    28    7   26 1  
    29    8   27 1  
    30    9   28 1  
    31   11   29 1  
    32   15   30 1  
    33   15   31 1  
    34   16   32 1  
    35   17   33 1  
    36   17   34 1  
    37   19   35 1  
    38   20   36 1  
    39   20   37 1  
@<TRIPOS>SUBSTRUCTURE
     1 3VP         1

