### 
### Created by X-TOOL on Mon Sep 10 21:13:21 2018
### 

@<TRIPOS>MOLECULE
4wyo_ligand
   55    59     1     0     0
SMALL
GAST_HUCK


@<TRIPOS>ATOM
      1 C6         11.5070  -10.3530  -18.8370 C.3       1 3W2         0.0020
      2 C9         10.0600  -10.9770  -22.3500 C.2       1 3W2         0.1397
      3 C8         10.7000  -11.2710  -20.9890 C.3       1 3W2         0.0540
      4 C18         5.6550   -9.0640  -15.6030 C.ar      1 3W2         0.0157
      5 C16         7.3440  -11.2850  -15.4010 C.ar      1 3W2        -0.0511
      6 C19         4.5150   -8.1600  -15.5840 C.2       1 3W2         0.0235
      7 C26        10.1880   -7.3660  -22.4780 C.2       1 3W2         0.0759
      8 C1         10.5200  -10.0970  -20.0020 C.3       1 3W2         0.1027
      9 C2          9.0360  -10.0780  -19.5510 C.3       1 3W2         0.0020
     10 C3          8.8350   -9.1610  -18.3340 C.3       1 3W2         0.0362
     11 N4          9.7820   -9.5630  -17.2670 N.am      1 3W2        -0.2735
     12 C5         11.2290   -9.4950  -17.5920 C.3       1 3W2         0.0362
     13 O7         10.8580   -8.8120  -20.5890 O.3       1 3W2        -0.3282
     14 O10         9.6430  -11.8550  -23.0810 O.2       1 3W2        -0.3825
     15 C11         9.3390   -9.9660  -16.0370 C.2       1 3W2         0.2003
     16 C12         7.8870  -10.0300  -15.7250 C.ar      1 3W2         0.0396
     17 O13        10.1340  -10.3070  -15.1800 O.2       1 3W2        -0.3888
     18 C14         7.0380   -8.9090  -15.8400 C.ar      1 3W2        -0.0430
     19 C15         5.9950  -11.4490  -15.2310 C.ar      1 3W2        -0.0305
     20 C17         5.1270  -10.3510  -15.2990 C.ar      1 3W2         0.0918
     21 N20         3.4540   -8.8570  -15.2760 N.2       1 3W2        -0.2043
     22 N21         3.7830  -10.2050  -15.0860 N.pl3     1 3W2        -0.2108
     23 C22        10.3850   -8.5240  -21.8290 C.2       1 3W2         0.1176
     24 C23        10.0050   -9.5610  -22.7470 C.2       1 3W2         0.1218
     25 N24         9.5610   -8.9880  -23.8250 N.2       1 3W2        -0.1959
     26 N25         9.6790   -7.6970  -23.7100 N.pl3     1 3W2        -0.2055
     27 C27         9.3210   -6.7640  -24.7850 C.3       1 3W2         0.0820
     28 C28         7.8800   -7.0660  -25.2190 C.3       1 3W2        -0.0301
     29 C29         9.4790   -5.3080  -24.3110 C.3       1 3W2        -0.0301
     30 C30        10.2690   -7.0060  -25.9700 C.3       1 3W2        -0.0301
     31 H1         12.5254  -10.1332  -19.1899 H         1 3W2         0.0317
     32 H2         11.4389  -11.4129  -18.5506 H         1 3W2         0.0317
     33 H3         11.7753  -11.4523  -21.1334 H         1 3W2         0.0516
     34 H4         10.2307  -12.1696  -20.5620 H         1 3W2         0.0516
     35 H5          8.0037  -12.1372  -15.2837 H         1 3W2         0.0622
     36 H6          4.5416   -7.0910  -15.7902 H         1 3W2         0.0723
     37 H7         10.3911   -6.3641  -22.1028 H         1 3W2         0.0835
     38 H8          8.7292  -11.1001  -19.2842 H         1 3W2         0.0317
     39 H9          8.4136   -9.7133  -20.3814 H         1 3W2         0.0317
     40 H10         7.8027   -9.2566  -17.9664 H         1 3W2         0.0522
     41 H11         9.0262   -8.1170  -18.6229 H         1 3W2         0.0522
     42 H12        11.5124   -8.4514  -17.7933 H         1 3W2         0.0522
     43 H13        11.8152   -9.8770  -16.7432 H         1 3W2         0.0522
     44 H14         7.4431   -7.9397  -16.1073 H         1 3W2         0.0658
     45 H15         5.5946  -12.4384  -15.0419 H         1 3W2         0.0569
     46 H16         3.1268  -10.9566  -14.8302 H         1 3W2         0.2465
     47 H17         7.5882   -6.3777  -26.0259 H         1 3W2         0.0264
     48 H18         7.2035   -6.9337  -24.3618 H         1 3W2         0.0264
     49 H19         7.8156   -8.1029  -25.5804 H         1 3W2         0.0264
     50 H20         9.2067   -4.6246  -25.1288 H         1 3W2         0.0264
     51 H21        10.5237   -5.1295  -24.0166 H         1 3W2         0.0264
     52 H22         8.8195   -5.1294  -23.4490 H         1 3W2         0.0264
     53 H23        10.0170   -6.3153  -26.7881 H         1 3W2         0.0264
     54 H24        10.1614   -8.0433  -26.3197 H         1 3W2         0.0264
     55 H25        11.3072   -6.8325  -25.6504 H         1 3W2         0.0264
@<TRIPOS>BOND
     1    1    8 1  
     2   12    1 1  
     3    3    2 1  
     4    2   14 2  
     5    2   24 1  
     6    8    3 1  
     7    4    6 1  
     8   18    4 ar 
     9    4   20 ar 
    10   16    5 ar 
    11    5   19 ar 
    12    6   21 2  
    13   23    7 2  
    14    7   26 1  
    15    9    8 1  
    16    8   13 1  
    17   10    9 1  
    18   11   10 1  
    19   11   12 1  
    20   15   11 am 
    21   13   23 1  
    22   16   15 1  
    23   15   17 2  
    24   16   18 ar 
    25   19   20 ar 
    26   20   22 1  
    27   21   22 1  
    28   23   24 1  
    29   24   25 2  
    30   25   26 1  
    31   26   27 1  
    32   27   28 1  
    33   27   29 1  
    34   27   30 1  
    35    1   31 1  
    36    1   32 1  
    37    3   33 1  
    38    3   34 1  
    39    5   35 1  
    40    6   36 1  
    41    7   37 1  
    42    9   38 1  
    43    9   39 1  
    44   10   40 1  
    45   10   41 1  
    46   12   42 1  
    47   12   43 1  
    48   18   44 1  
    49   19   45 1  
    50   22   46 1  
    51   28   47 1  
    52   28   48 1  
    53   28   49 1  
    54   29   50 1  
    55   29   51 1  
    56   29   52 1  
    57   30   53 1  
    58   30   54 1  
    59   30   55 1  
@<TRIPOS>SUBSTRUCTURE
     1 3W2         1

