### 
### Created by X-TOOL on Mon Sep 10 21:13:17 2018
### 

@<TRIPOS>MOLECULE
4wz8_ligand
   54    58     1     0     0
SMALL
GAST_HUCK


@<TRIPOS>ATOM
      1 C1          7.0530  -11.4000  -15.6710 C.ar      1 3W7        -0.0419
      2 C2          5.7000  -11.4610  -15.4120 C.ar      1 3W7        -0.0531
      3 C3          7.0460   -8.9700  -15.8670 C.ar      1 3W7        -0.0269
      4 C4          4.6470   -8.0680  -15.5100 C.2       1 3W7         0.1104
      5 C5         10.3020   -6.7800  -22.2560 C.2       1 3W7         0.0105
      6 C6          5.6870   -9.0250  -15.6170 C.ar      1 3W7         0.0384
      7 C7          7.6910  -10.1960  -15.8980 C.ar      1 3W7         0.0511
      8 C8         10.5450   -8.0790  -21.7620 C.2       1 3W7        -0.0077
      9 C9          5.0640  -10.2390  -15.4000 C.ar      1 3W7        -0.0092
     10 C10        10.1680   -8.9280  -22.7740 C.2       1 3W7         0.1382
     11 C11        10.2340  -10.3590  -22.6740 C.2       1 3W7         0.1508
     12 C12         9.1410  -10.2600  -16.1550 C.2       1 3W7         0.2074
     13 C13        11.0590   -8.5310  -20.4560 C.3       1 3W7        -0.0192
     14 C14        10.8050  -10.8610  -21.3640 C.3       1 3W7         0.0296
     15 C15        11.3340  -10.5260  -18.9910 C.3       1 3W7        -0.0235
     16 C16         9.0560  -10.0050  -19.8170 C.3       1 3W7        -0.0235
     17 C17        11.0350   -9.8310  -17.6610 C.3       1 3W7         0.0342
     18 C18         8.7240   -9.3960  -18.4670 C.3       1 3W7         0.0342
     19 C19        10.5510   -9.9540  -20.1570 C.3       1 3W7        -0.0043
     20 C20         9.9810   -7.9730  -26.2640 C.3       1 3W7        -0.0330
     21 C21         7.7300   -8.2140  -25.2140 C.3       1 3W7        -0.0330
     22 C22         9.2020   -8.5380  -25.0900 C.3       1 3W7         0.0747
     23 N23         3.4670   -8.6310  -15.2410 N.pl3     1 3W7        -0.2442
     24 N24         9.8070   -6.8010  -23.5000 N.2       1 3W7        -0.2100
     25 N25         3.7470   -9.9400  -15.1780 N.2       1 3W7        -0.3319
     26 N26         9.7230   -8.1160  -23.7910 N.pl3     1 3W7        -0.1955
     27 N27         9.6070   -9.8300  -17.3960 N.am      1 3W7        -0.2723
     28 O28         9.8520  -11.1420  -23.5360 O.2       1 3W7        -0.3841
     29 O29         9.8330  -10.6900  -15.2460 O.2       1 3W7        -0.3845
     30 H           7.6291  -12.3178  -15.6971 H         1 3W7         0.0669
     31 H           5.1792  -12.3946  -15.2324 H         1 3W7         0.0630
     32 H           7.5694   -8.0344  -16.0273 H         1 3W7         0.0680
     33 H           4.7938   -6.9960  -15.6332 H         1 3W7         0.1370
     34 H          10.4942   -5.8683  -21.6924 H         1 3W7         0.0660
     35 H          10.7093   -7.8461  -19.6695 H         1 3W7         0.0386
     36 H          12.1588   -8.5334  -20.4778 H         1 3W7         0.0386
     37 H          11.8928  -10.9703  -21.4856 H         1 3W7         0.0488
     38 H          10.3591  -11.8439  -21.1519 H         1 3W7         0.0488
     39 H          11.0830  -11.5924  -18.8917 H         1 3W7         0.0293
     40 H          12.4075  -10.4205  -19.2063 H         1 3W7         0.0293
     41 H           8.5030   -9.4555  -20.5930 H         1 3W7         0.0293
     42 H           8.7349  -11.0571  -19.8134 H         1 3W7         0.0293
     43 H          11.3952   -8.7926  -17.7064 H         1 3W7         0.0522
     44 H          11.5530  -10.3637  -16.8499 H         1 3W7         0.0522
     45 H           7.6939   -9.6774  -18.2031 H         1 3W7         0.0522
     46 H           8.7946   -8.3017  -18.5530 H         1 3W7         0.0522
     47 H           9.5363   -8.3296  -27.2048 H         1 3W7         0.0260
     48 H          11.0277   -8.3059  -26.2039 H         1 3W7         0.0260
     49 H           9.9435   -6.8741  -26.2342 H         1 3W7         0.0260
     50 H           7.1885   -8.6333  -24.3532 H         1 3W7         0.0260
     51 H           7.3355   -8.6506  -26.1434 H         1 3W7         0.0260
     52 H           7.5953   -7.1225  -25.2355 H         1 3W7         0.0260
     53 H           9.3032   -9.6324  -25.1352 H         1 3W7         0.0666
     54 H           2.5558   -8.1683  -15.1122 H         1 3W7         0.2935
@<TRIPOS>BOND
     1    1    2 ar 
     2    7    1 ar 
     3    2    9 ar 
     4    3    6 ar 
     5    7    3 ar 
     6    6    4 2  
     7    4   23 1  
     8    8    5 1  
     9    5   24 2  
    10    6    9 ar 
    11   12    7 1  
    12   10    8 2  
    13    8   13 1  
    14    9   25 2  
    15   10   11 1  
    16   26   10 1  
    17   11   14 1  
    18   11   28 2  
    19   27   12 am 
    20   12   29 2  
    21   13   19 1  
    22   14   19 1  
    23   15   17 1  
    24   19   15 1  
    25   16   18 1  
    26   19   16 1  
    27   17   27 1  
    28   18   27 1  
    29   22   20 1  
    30   22   21 1  
    31   22   26 1  
    32   23   25 1  
    33   24   26 1  
    34    1   30 1  
    35    2   31 1  
    36    3   32 1  
    37    4   33 1  
    38    5   34 1  
    39   13   35 1  
    40   13   36 1  
    41   14   37 1  
    42   14   38 1  
    43   15   39 1  
    44   15   40 1  
    45   16   41 1  
    46   16   42 1  
    47   17   43 1  
    48   17   44 1  
    49   18   45 1  
    50   18   46 1  
    51   20   47 1  
    52   20   48 1  
    53   20   49 1  
    54   21   50 1  
    55   21   51 1  
    56   21   52 1  
    57   22   53 1  
    58   23   54 1  
@<TRIPOS>SUBSTRUCTURE
     1 3W7         1

