### 
### Created by X-TOOL on Mon Sep 10 21:13:23 2018
### 

@<TRIPOS>MOLECULE
4wzv_ligand
   69    72     1     0     0
SMALL
GAST_HUCK


@<TRIPOS>ATOM
      1 O13         5.7340    7.8150   25.9710 O.2       1 E40        -0.1483
      2 S13         5.1760    8.6770   24.9260 S.o2      1 E40         0.0937
      3 O14         5.7660   10.0130   25.0250 O.2       1 E40        -0.1483
      4 C28         5.6420    7.8460   23.3970 C.ar      1 E40         0.1092
      5 C14         5.6330    6.4580   23.3480 C.ar      1 E40        -0.0362
      6 C17         6.0280    5.8010   22.2010 C.ar      1 E40        -0.0548
      7 C16         6.4270    6.5270   21.0910 C.ar      1 E40        -0.0246
      8 C21         6.9420    5.7880   19.8710 C.ar      1 E40        -0.0279
      9 C26         6.2430    4.5230   19.3950 C.ar      1 E40        -0.0616
     10 C25         6.7140    3.8610   18.3680 C.ar      1 E40        -0.0312
     11 C24         7.9940    4.3430   17.6940 C.ar      1 E40         0.0926
     12 O24         8.5000    3.6290   16.6110 O.3       1 E40        -0.3200
     13 C61         8.0760    2.3160   16.4210 C.3       1 E40         0.0599
     14 C23         8.6220    5.4170   18.1210 C.ar      1 E40        -0.0312
     15 C30         8.0680    6.1840   19.3160 C.ar      1 E40        -0.0616
     16 C15         6.4510    7.9060   21.1430 C.ar      1 E40        -0.0548
     17 C29         6.0630    8.5650   22.2900 C.ar      1 E40        -0.0362
     18 N12         3.4940    8.8250   25.1420 N.am      1 E40        -0.0885
     19 O15         2.8370    7.6180   24.9040 O.3       1 E40        -0.2585
     20 C67         2.6320    6.7320   25.9760 C.3       1 E40         0.0804
     21 C69         1.9340    5.4960   25.4360 C.3       1 E40        -0.0366
     22 C68         1.7350    7.3610   27.0460 C.3       1 E40        -0.0366
     23 C31         2.9100    9.9200   24.3770 C.3       1 E40         0.1608
     24 C11         2.7560    9.6110   22.8840 C.2       1 E40         0.2235
     25 O2          2.0130    8.7660   22.4980 O.2       1 E40        -0.3948
     26 N2          3.3990   10.4590   21.9010 N.am      1 E40        -0.1626
     27 O7          3.2570   10.1050   20.5630 O.3       1 E40        -0.2717
     28 C32         1.5490   10.1530   24.9950 C.3       1 E40         0.0112
     29 C33         0.9900   11.4530   24.4560 C.3       1 E40         0.0604
     30 N48         0.1300   11.2110   23.3240 N.am      1 E40        -0.1841
     31 C52         0.1130   11.9780   22.1030 C.2       1 E40         0.2400
     32 O54         0.8720   12.8490   21.8000 O.2       1 E40        -0.3670
     33 C49        -0.9850   10.2850   23.2390 C.2       1 E40         0.2400
     34 O53        -1.3230    9.4840   24.0470 O.2       1 E40        -0.3670
     35 C50        -1.6700   10.4940   21.9110 C.ar      1 E40         0.0732
     36 C51        -1.0480   11.4690   21.2640 C.ar      1 E40         0.0732
     37 C55        -2.8820    9.7910   21.3130 C.ar      1 E40        -0.0372
     38 C56        -3.3100   10.1580   20.1240 C.ar      1 E40        -0.0523
     39 C57        -2.5870   11.2790   19.3860 C.ar      1 E40        -0.0523
     40 C58        -1.5470   11.8860   19.8950 C.ar      1 E40        -0.0372
     41 H1          5.3145    5.8890   24.2139 H         1 E40         0.0633
     42 H2          6.0261    4.7175   22.1685 H         1 E40         0.0609
     43 H3          5.3548    4.1697   19.9062 H         1 E40         0.0601
     44 H4          6.1996    2.9802   18.0011 H         1 E40         0.0548
     45 H5          8.5659    1.8979   15.5293 H         1 E40         0.0579
     46 H6          6.9850    2.2995   16.2816 H         1 E40         0.0579
     47 H7          8.3422    1.7136   17.3020 H         1 E40         0.0579
     48 H8          9.5262    5.7539   17.6270 H         1 E40         0.0548
     49 H9          8.5961    7.0471   19.7050 H         1 E40         0.0601
     50 H10         6.7763    8.4732   20.2784 H         1 E40         0.0609
     51 H11         6.0873    9.6481   22.3259 H         1 E40         0.0633
     52 H12         3.6003    6.4583   26.4204 H         1 E40         0.0615
     53 H13         1.7612    4.7844   26.2569 H         1 E40         0.0255
     54 H14         2.5653    5.0242   24.6686 H         1 E40         0.0255
     55 H15         0.9699    5.7841   24.9915 H         1 E40         0.0255
     56 H16         1.5921    6.6471   27.8706 H         1 E40         0.0255
     57 H17         0.7590    7.6120   26.6051 H         1 E40         0.0255
     58 H18         2.2096    8.2756   27.4310 H         1 E40         0.0255
     59 H19         3.5361   10.8179   24.4860 H         1 E40         0.0782
     60 H20         3.9235   11.2658   22.1730 H         1 E40         0.2217
     61 H21         3.7194   10.7324   20.0198 H         1 E40         0.2490
     62 H22         1.6446   10.2161   26.0890 H         1 E40         0.0332
     63 H23         0.8760    9.3233   24.7329 H         1 E40         0.0332
     64 H24         1.8220   12.1016   24.1445 H         1 E40         0.0573
     65 H25         0.4121   11.9526   25.2474 H         1 E40         0.0573
     66 H26        -3.3842    9.0004   21.8587 H         1 E40         0.0682
     67 H27        -4.1667    9.6689   19.6746 H         1 E40         0.0662
     68 H28        -2.9463   11.5821   18.4092 H         1 E40         0.0662
     69 H29        -1.0486   12.6764   19.3456 H         1 E40         0.0682
@<TRIPOS>BOND
     1    1    2 2  
     2    2    3 2  
     3    2    4 1  
     4    2   18 am 
     5    4    5 ar 
     6    4   17 ar 
     7    5    6 ar 
     8    6    7 ar 
     9    7    8 1  
    10    7   16 ar 
    11    8    9 ar 
    12    8   15 ar 
    13    9   10 ar 
    14   10   11 ar 
    15   11   12 1  
    16   11   14 ar 
    17   12   13 1  
    18   14   15 ar 
    19   16   17 ar 
    20   18   19 1  
    21   18   23 1  
    22   19   20 1  
    23   20   21 1  
    24   20   22 1  
    25   23   24 1  
    26   23   28 1  
    27   24   25 2  
    28   24   26 am 
    29   26   27 1  
    30   28   29 1  
    31   29   30 1  
    32   30   31 am 
    33   30   33 am 
    34   31   32 2  
    35   31   36 1  
    36   33   34 2  
    37   33   35 1  
    38   35   36 ar 
    39   35   37 ar 
    40   36   40 ar 
    41   37   38 ar 
    42   38   39 ar 
    43   39   40 ar 
    44    5   41 1  
    45    6   42 1  
    46    9   43 1  
    47   10   44 1  
    48   13   45 1  
    49   13   46 1  
    50   13   47 1  
    51   14   48 1  
    52   15   49 1  
    53   16   50 1  
    54   17   51 1  
    55   20   52 1  
    56   21   53 1  
    57   21   54 1  
    58   21   55 1  
    59   22   56 1  
    60   22   57 1  
    61   22   58 1  
    62   23   59 1  
    63   26   60 1  
    64   27   61 1  
    65   28   62 1  
    66   28   63 1  
    67   29   64 1  
    68   29   65 1  
    69   37   66 1  
    70   38   67 1  
    71   39   68 1  
    72   40   69 1  
@<TRIPOS>SUBSTRUCTURE
     1 E40         1

