### 
### Created by X-TOOL on Mon Sep 10 21:13:23 2018
### 

@<TRIPOS>MOLECULE
4x0f_ligand
   41    43     1     0     0
SMALL
GAST_HUCK


@<TRIPOS>ATOM
      1 C5        -53.4890   49.5030    9.2990 C.ar      1 ROL        -0.0554
      2 C6        -53.1970   49.4000   10.6560 C.ar      1 ROL        -0.0393
      3 C7        -53.6170   50.3720   11.5520 C.ar      1 ROL         0.1139
      4 C8        -54.3810   51.4590   11.0850 C.ar      1 ROL         0.1122
      5 C9        -54.7010   51.5430    9.7380 C.ar      1 ROL        -0.0479
      6 C10       -54.2510   50.5740    8.8600 C.ar      1 ROL        -0.0796
      7 C3        -52.9450   48.4940    8.3050 C.3       1 ROL         0.0221
      8 C2        -51.7980   47.5990    8.8080 C.3       1 ROL         0.0499
      9 C1        -52.4960   46.3350    9.2410 C.2       1 ROL         0.1782
     10 O1        -52.0420   45.4690    9.9800 O.2       1 ROL        -0.3969
     11 N1        -53.7050   46.3230    8.7070 N.am      1 ROL        -0.2847
     12 C4        -54.0290   47.4820    7.8870 C.3       1 ROL         0.0437
     13 O3        -53.2980   50.3540   12.8960 O.3       1 ROL        -0.3201
     14 C11       -52.4770   49.2560   13.4720 C.3       1 ROL         0.0787
     15 C15       -51.8520   49.5750   14.8110 C.3       1 ROL        -0.0226
     16 C14       -53.0350   49.4820   15.7510 C.3       1 ROL        -0.0503
     17 C13       -53.8050   48.3280   15.3070 C.3       1 ROL        -0.0503
     18 C12       -53.4100   48.1150   13.8620 C.3       1 ROL        -0.0226
     19 O2        -54.7370   52.3840   12.0290 O.3       1 ROL        -0.3294
     20 C16       -55.5590   53.4830   11.6170 C.3       1 ROL         0.0554
     21 H1        -52.6332   48.5478   11.0179 H         1 ROL         0.0450
     22 H2        -55.3033   52.3675    9.3739 H         1 ROL         0.0493
     23 H3        -54.4992   50.6537    7.8078 H         1 ROL         0.0436
     24 H4        -52.5982   49.0550    7.4247 H         1 ROL         0.0483
     25 H5        -51.2760   48.0688    9.6547 H         1 ROL         0.0526
     26 H6        -51.0783   47.3934    8.0020 H         1 ROL         0.0526
     27 H7        -54.3498   45.5732    8.8552 H         1 ROL         0.1852
     28 H8        -53.9594   47.2437    6.8154 H         1 ROL         0.0544
     29 H9        -55.0364   47.8611    8.1137 H         1 ROL         0.0544
     30 H10       -51.7142   48.9440   12.7435 H         1 ROL         0.0645
     31 H11       -51.4173   50.5854   14.8169 H         1 ROL         0.0294
     32 H12       -51.0763   48.8406   15.0734 H         1 ROL         0.0294
     33 H13       -53.6448   50.3955   15.6908 H         1 ROL         0.0266
     34 H14       -52.6915   49.3380   16.7860 H         1 ROL         0.0266
     35 H15       -54.8832   48.5311   15.3855 H         1 ROL         0.0266
     36 H16       -53.5538   47.4425   15.9094 H         1 ROL         0.0266
     37 H17       -52.8917   47.1510   13.7520 H         1 ROL         0.0294
     38 H18       -54.3047   48.1254   13.2222 H         1 ROL         0.0294
     39 H19       -55.7587   54.1352   12.4800 H         1 ROL         0.0570
     40 H20       -56.5103   53.1003   11.2188 H         1 ROL         0.0570
     41 H21       -55.0391   54.0572   10.8360 H         1 ROL         0.0570
@<TRIPOS>BOND
     1    1    2 ar 
     2    1    6 ar 
     3    1    7 1  
     4    2    3 ar 
     5    3    4 ar 
     6    3   13 1  
     7    4    5 ar 
     8    4   19 1  
     9    5    6 ar 
    10    7    8 1  
    11    7   12 1  
    12    8    9 1  
    13    9   10 2  
    14    9   11 am 
    15   11   12 1  
    16   13   14 1  
    17   14   15 1  
    18   14   18 1  
    19   15   16 1  
    20   16   17 1  
    21   17   18 1  
    22   19   20 1  
    23    2   21 1  
    24    5   22 1  
    25    6   23 1  
    26    7   24 1  
    27    8   25 1  
    28    8   26 1  
    29   11   27 1  
    30   12   28 1  
    31   12   29 1  
    32   14   30 1  
    33   15   31 1  
    34   15   32 1  
    35   16   33 1  
    36   16   34 1  
    37   17   35 1  
    38   17   36 1  
    39   18   37 1  
    40   18   38 1  
    41   20   39 1  
    42   20   40 1  
    43   20   41 1  
@<TRIPOS>SUBSTRUCTURE
     1 ROL         1

