### 
### Created by X-TOOL on Mon Sep 10 21:13:23 2018
### 

@<TRIPOS>MOLECULE
4x0u_ligand
   28    28     1     0     0
SMALL
GAST_HUCK


@<TRIPOS>ATOM
      1 C13        60.7980   68.4800   12.9810 C.2       1 3W9         0.1168
      2 O01        60.1310   69.4510   13.3040 O.2       1 3W9        -0.3692
      3 C12        61.7650   68.6400   11.8410 C.ar      1 3W9         0.0164
      4 C10        62.3140   69.8950   11.5950 C.ar      1 3W9        -0.0547
      5 C08        63.2090   70.0730   10.5430 C.ar      1 3W9        -0.0375
      6 C05        63.5640   69.0030    9.7210 C.ar      1 3W9         0.0463
      7 C09        63.0060   67.7480    9.9750 C.ar      1 3W9        -0.0375
      8 C11        62.1110   67.5650   11.0280 C.ar      1 3W9        -0.0547
      9 N02        64.4750   69.1930    8.6540 N.pl3     1 3W9        -0.3061
     10 C04        64.9230   68.0680    7.8320 C.3       1 3W9         0.0252
     11 C07        63.9220   67.7410    6.7400 C.3       1 3W9        -0.0452
     12 C03        64.9980   70.5290    8.3610 C.3       1 3W9         0.0252
     13 C06        66.2430   70.8150    9.1820 C.3       1 3W9        -0.0452
     14 H1         60.6955   67.5292   13.5019 H         1 3W9         0.1311
     15 H2         62.0443   70.7359   12.2237 H         1 3W9         0.0640
     16 H3         63.6344   71.0533   10.3609 H         1 3W9         0.0532
     17 H4         63.2721   66.9063    9.3458 H         1 3W9         0.0532
     18 H5         61.6848   66.5857   11.2134 H         1 3W9         0.0640
     19 H6         65.0511   67.1847    8.4750 H         1 3W9         0.0514
     20 H7         65.8861   68.3263    7.3677 H         1 3W9         0.0514
     21 H8         64.2923   66.8931    6.1451 H         1 3W9         0.0249
     22 H9         63.7915   68.6172    6.0879 H         1 3W9         0.0249
     23 H10        62.9564   67.4756    7.1952 H         1 3W9         0.0249
     24 H11        64.2286   71.2777    8.6008 H         1 3W9         0.0514
     25 H12        65.2494   70.5910    7.2919 H         1 3W9         0.0514
     26 H13        66.6156   71.8223    8.9442 H         1 3W9         0.0249
     27 H14        67.0181   70.0717    8.9438 H         1 3W9         0.0249
     28 H15        65.9972   70.7583   10.2527 H         1 3W9         0.0249
@<TRIPOS>BOND
     1    1    2 2  
     2    1    3 1  
     3    3    4 ar 
     4    3    8 ar 
     5    4    5 ar 
     6    5    6 ar 
     7    6    7 ar 
     8    6    9 1  
     9    7    8 ar 
    10    9   10 1  
    11    9   12 1  
    12   10   11 1  
    13   12   13 1  
    14    1   14 1  
    15    4   15 1  
    16    5   16 1  
    17    7   17 1  
    18    8   18 1  
    19   10   19 1  
    20   10   20 1  
    21   11   21 1  
    22   11   22 1  
    23   11   23 1  
    24   12   24 1  
    25   12   25 1  
    26   13   26 1  
    27   13   27 1  
    28   13   28 1  
@<TRIPOS>SUBSTRUCTURE
     1 3W9         1

