### 
### Created by X-TOOL on Sun Nov 13 14:28:28 2016
### 

@<TRIPOS>MOLECULE
4x11_ligand
   39    39     1     0     0
SMALL
GAST_HUCK


@<TRIPOS>ATOM
      1 C1         17.9520  -21.4950    9.8970 C.2       1 SIA         0.1039
      2 C2         17.9060  -23.0170    9.7810 C.3       1 SIA         0.2179
      3 C3         19.1050  -23.6000    9.0130 C.3       1 SIA         0.0351
      4 C4         20.4150  -23.3880    9.7840 C.3       1 SIA         0.0850
      5 C5         20.3090  -23.9570   11.1890 C.3       1 SIA         0.0964
      6 C6         19.1090  -23.3190   11.8810 C.3       1 SIA         0.1143
      7 C7         18.9030  -23.8110   13.3170 C.3       1 SIA         0.1114
      8 C8         17.5520  -23.3730   13.8990 C.3       1 SIA         0.1065
      9 C9         17.4350  -23.7250   15.3810 C.3       1 SIA         0.0727
     10 C10        22.1030  -24.4380   12.7810 C.2       1 SIA         0.1733
     11 C11        23.3330  -23.9170   13.4770 C.3       1 SIA         0.0257
     12 N5         21.5070  -23.6110   11.9260 N.am      1 SIA        -0.2790
     13 O1A        18.4820  -20.7870    9.0000 O.co2     1 SIA        -0.5426
     14 O1B        17.4470  -20.9750   10.9220 O.co2     1 SIA        -0.5426
     15 O2         16.6650  -23.4440    9.1560 O.3       1 SIA        -0.3631
     16 O4         21.5480  -23.9790    9.1400 O.3       1 SIA        -0.3893
     17 O6         17.9330  -23.5540   11.1080 O.3       1 SIA        -0.3385
     18 O7         19.0390  -25.2290   13.3470 O.3       1 SIA        -0.3865
     19 O8         17.3460  -21.9490   13.7340 O.3       1 SIA        -0.3869
     20 O9         16.2900  -23.0370   15.9270 O.3       1 SIA        -0.3924
     21 O10        21.6940  -25.5620   12.9880 O.2       1 SIA        -0.3974
     22 H1         19.1803  -23.1030    8.0346 H         1 SIA         0.0336
     23 H2         18.9463  -24.6784    8.8653 H         1 SIA         0.0336
     24 H3         20.5890  -22.3043    9.8561 H         1 SIA         0.0618
     25 H4         20.1896  -25.0498   11.1491 H         1 SIA         0.0608
     26 H5         19.2848  -22.2340   11.9233 H         1 SIA         0.0646
     27 H6         19.6941  -23.3741   13.9441 H         1 SIA         0.0647
     28 H7         16.7593  -23.9051   13.3527 H         1 SIA         0.0643
     29 H8         18.3455  -23.4078   15.9106 H         1 SIA         0.0584
     30 H9         17.3041  -24.8112   15.4950 H         1 SIA         0.0584
     31 H10        23.7279  -24.6908   14.1518 H         1 SIA         0.0467
     32 H11        23.0729  -23.0207   14.0593 H         1 SIA         0.0467
     33 H12        24.0965  -23.6591   12.7283 H         1 SIA         0.0467
     34 H13        21.9062  -22.7050   11.7851 H         1 SIA         0.1856
     35 H14        15.9290  -23.1171    9.6601 H         1 SIA         0.2112
     36 H15        21.6269  -23.6320    8.2592 H         1 SIA         0.2099
     37 H16        19.8816  -25.4730   12.9821 H         1 SIA         0.2100
     38 H17        16.4814  -21.7164   14.0515 H         1 SIA         0.2100
     39 H18        16.4065  -22.0998   15.8243 H         1 SIA         0.2095
@<TRIPOS>BOND
     1    2    1 1  
     2    1   13 ar 
     3    1   14 ar 
     4    3    2 1  
     5    2   15 1  
     6   17    2 1  
     7    4    3 1  
     8    5    4 1  
     9    4   16 1  
    10    5    6 1  
    11   12    5 1  
    12    6    7 1  
    13    6   17 1  
    14    7    8 1  
    15    7   18 1  
    16    8    9 1  
    17    8   19 1  
    18    9   20 1  
    19   10   11 1  
    20   10   12 am 
    21   10   21 2  
    22    3   22 1  
    23    3   23 1  
    24    4   24 1  
    25    5   25 1  
    26    6   26 1  
    27    7   27 1  
    28    8   28 1  
    29    9   29 1  
    30    9   30 1  
    31   11   31 1  
    32   11   32 1  
    33   11   33 1  
    34   12   34 1  
    35   15   35 1  
    36   16   36 1  
    37   18   37 1  
    38   19   38 1  
    39   20   39 1  
@<TRIPOS>SUBSTRUCTURE
     1 SIA         1

