### 
### Created by X-TOOL on Mon Sep 10 21:13:21 2018
### 

@<TRIPOS>MOLECULE
4x13_ligand
  129   133     1     0     0
SMALL
GAST_HUCK


@<TRIPOS>ATOM
      1 C1         19.8680   24.2490   10.0540 C.2       1 SIA         0.1041
      2 C2         18.9580   25.4050   10.5050 C.3       1 SIA         0.2204
      3 C3         17.6910   24.9150   11.2230 C.3       1 SIA         0.0353
      4 C4         18.0340   24.3510   12.5990 C.3       1 SIA         0.0850
      5 C5         18.8390   25.3630   13.4200 C.3       1 SIA         0.0964
      6 C6         20.0710   25.7280   12.6310 C.3       1 SIA         0.1143
      7 C7         20.9770   26.7250   13.3340 C.3       1 SIA         0.1114
      8 C8         22.1110   27.2360   12.4640 C.3       1 SIA         0.1065
      9 C9         23.1930   27.8910   13.3200 C.3       1 SIA         0.0727
     10 C10        19.2660   25.4160   15.8400 C.2       1 SIA         0.1733
     11 C11        19.6720   24.5940   17.0360 C.3       1 SIA         0.0257
     12 N5         19.2140   24.7740   14.6810 N.am      1 SIA        -0.2790
     13 O1A        19.3890   23.1350    9.7200 O.co2     1 SIA        -0.5426
     14 O1B        21.1010   24.4430    9.9870 O.co2     1 SIA        -0.5426
     15 O4         16.8430   23.9640   13.2970 O.3       1 SIA        -0.3893
     16 O6         19.6510   26.2820   11.3890 O.3       1 SIA        -0.3384
     17 O7         20.2250   27.8600   13.7480 O.3       1 SIA        -0.3865
     18 O8         22.6410   26.1770   11.6750 O.3       1 SIA        -0.3869
     19 O9         24.2990   28.2050   12.4690 O.3       1 SIA        -0.3924
     20 O10        19.0210   26.5960   15.9450 O.2       1 SIA        -0.3974
     21 C1         18.6510   24.6360    5.7180 C.3       1 GAL         0.1884
     22 C2         19.3930   25.3080    4.5610 C.3       1 GAL         0.1341
     23 C3         20.7640   25.7490    5.0280 C.3       1 GAL         0.1141
     24 C4         20.6160   26.5930    6.2790 C.3       1 GAL         0.1119
     25 C5         19.7780   25.8940    7.3390 C.3       1 GAL         0.1132
     26 C6         19.5220   26.7580    8.5660 C.3       1 GAL         0.0786
     27 O2         19.5600   24.4020    3.4840 O.3       1 GAL        -0.3841
     28 O3         21.3970   26.4830    4.0010 O.3       1 GAL        -0.3864
     29 O4         19.9330   27.7610    5.9480 O.3       1 GAL        -0.3865
     30 O5         18.5310   25.5060    6.8180 O.3       1 GAL        -0.3405
     31 O6         18.5000   26.1580    9.3590 O.3       1 GAL        -0.3441
     32 C1         14.2620   21.8330    6.3170 C.3       1 NAG         0.1854
     33 C2         14.9180   22.5580    7.4730 C.3       1 NAG         0.1210
     34 C3         15.8420   23.6610    6.9860 C.3       1 NAG         0.1114
     35 C4         16.8060   23.1460    5.9250 C.3       1 NAG         0.1181
     36 C5         16.0500   22.3790    4.8630 C.3       1 NAG         0.1134
     37 C6         16.9930   21.7730    3.8300 C.3       1 NAG         0.0730
     38 C7         13.8780   22.6980    9.6920 C.2       1 NAG         0.1733
     39 C8         12.7710   23.3040   10.5110 C.3       1 NAG         0.0257
     40 N2         13.9140   23.0590    8.4010 N.am      1 NAG        -0.2766
     41 O3         16.5480   24.2100    8.0750 O.3       1 NAG        -0.3867
     42 O4         17.3630   24.2430    5.2460 O.3       1 NAG        -0.3401
     43 O5         15.2720   21.3610    5.4590 O.3       1 NAG        -0.3408
     44 O6         17.7440   20.7220    4.3870 O.3       1 NAG        -0.3924
     45 O7         14.6800   21.9160   10.2300 O.2       1 NAG        -0.3974
     46 C1         10.2220   19.1980    5.9980 C.3       1 GAL         0.1884
     47 C2         11.3520   19.8100    6.8180 C.3       1 GAL         0.1345
     48 C3         12.4820   20.2940    5.9490 C.3       1 GAL         0.1206
     49 C4         12.9410   19.1280    5.0960 C.3       1 GAL         0.1123
     50 C5         11.7490   18.5540    4.3130 C.3       1 GAL         0.1130
     51 C6         12.1850   17.3290    3.5180 C.3       1 GAL         0.0730
     52 O2         10.8800   20.9190    7.5260 O.3       1 GAL        -0.3841
     53 O3         13.4730   20.7420    6.8400 O.3       1 GAL        -0.3403
     54 O4         13.5290   18.1270    5.9140 O.3       1 GAL        -0.3865
     55 O5         10.7050   18.1580    5.1810 O.3       1 GAL        -0.3405
     56 O6         11.0930   16.7510    2.8410 O.3       1 GAL        -0.3924
     57 C2          6.6780   16.1000    6.6430 C.3       1 BGC         0.1339
     58 C3          7.9870   16.7430    7.0580 C.3       1 BGC         0.1144
     59 C4          8.1160   18.1090    6.3950 C.3       1 BGC         0.1184
     60 C5          6.8650   18.9610    6.6410 C.3       1 BGC         0.1134
     61 C6          6.8970   20.2410    5.8270 C.3       1 BGC         0.0730
     62 C1          5.5370   17.0340    7.0330 C.3       1 BGC         0.1854
     63 O1          4.2720   16.4400    6.7260 O.3       1 BGC        -0.3649
     64 O2          6.5470   14.8280    7.2870 O.3       1 BGC        -0.3841
     65 O3          9.0980   15.8990    6.7270 O.3       1 BGC        -0.3864
     66 O4          9.2620   18.7570    6.9680 O.3       1 BGC        -0.3401
     67 O5          5.6700   18.2560    6.3090 O.3       1 BGC        -0.3407
     68 O6          7.3460   21.2740    6.6990 O.3       1 BGC        -0.3924
     69 H1         17.2151   24.1285   10.6190 H         1 SIA         0.0336
     70 H2         16.9945   25.7581   11.3419 H         1 SIA         0.0336
     71 H3         18.6552   23.4544   12.4567 H         1 SIA         0.0618
     72 H4         18.2335   26.2631   13.6019 H         1 SIA         0.0608
     73 H5         20.6484   24.8104   12.4447 H         1 SIA         0.0646
     74 H6         21.4072   26.2306   14.2174 H         1 SIA         0.0647
     75 H7         21.7065   27.9998   11.7836 H         1 SIA         0.0643
     76 H8         23.5152   27.1969   14.1102 H         1 SIA         0.0584
     77 H9         22.8010   28.8112   13.7777 H         1 SIA         0.0584
     78 H10        19.6791   25.2306   17.9331 H         1 SIA         0.0467
     79 H11        20.6779   24.1802   16.8721 H         1 SIA         0.0467
     80 H12        18.9553   23.7713   17.1759 H         1 SIA         0.0467
     81 H13        19.4542   23.8033   14.6818 H         1 SIA         0.1856
     82 H14        17.0787   23.5678   14.1276 H         1 SIA         0.2099
     83 H15        19.5032   27.5771   14.2971 H         1 SIA         0.2100
     84 H16        21.9451   25.7915   11.1558 H         1 SIA         0.2100
     85 H17        24.6302   27.4068   12.0745 H         1 SIA         0.2095
     86 H18        19.2095   23.7430    6.0351 H         1 SIA         0.0938
     87 H19        18.8183   26.1818    4.2200 H         1 SIA         0.0671
     88 H20        21.3718   24.8626    5.2621 H         1 SIA         0.0648
     89 H21        21.6117   26.8280    6.6830 H         1 SIA         0.0647
     90 H22        20.3241   24.9939    7.6577 H         1 SIA         0.0647
     91 H23        19.1999   27.7608    8.2488 H         1 SIA         0.0586
     92 H24        20.4459   26.8395    9.1574 H         1 SIA         0.0586
     93 H25        20.0617   23.6509    3.7784 H         1 SIA         0.2101
     94 H26        20.8760   27.2499    3.7942 H         1 SIA         0.2100
     95 H27        20.4211   28.2348    5.2848 H         1 SIA         0.2100
     96 H28        13.6074   22.5239    5.7655 H         1 SIA         0.0935
     97 H29        15.5361   21.8280    8.0162 H         1 SIA         0.0633
     98 H30        15.2269   24.4535    6.5349 H         1 SIA         0.0645
     99 H31        17.5851   22.5217    6.3868 H         1 SIA         0.0650
    100 H32        15.3760   23.0786    4.3470 H         1 SIA         0.0647
    101 H33        17.6793   22.5529    3.4684 H         1 SIA         0.0584
    102 H34        16.4019   21.3852    2.9873 H         1 SIA         0.0584
    103 H35        12.8394   22.9395   11.5466 H         1 SIA         0.0467
    104 H36        11.7990   23.0156   10.0843 H         1 SIA         0.0467
    105 H37        12.8652   24.3999   10.5011 H         1 SIA         0.0467
    106 H38        13.2235   23.6980    8.0620 H         1 SIA         0.1857
    107 H39        17.0855   24.9320    7.7709 H         1 SIA         0.2100
    108 H40        17.1557   20.0439    4.6976 H         1 SIA         0.2095
    109 H41         9.7672   19.9636    5.3523 H         1 SIA         0.0938
    110 H42        11.7303   19.0528    7.5205 H         1 SIA         0.0671
    111 H43        12.1567   21.1205    5.3000 H         1 SIA         0.0651
    112 H44        13.6952   19.4864    4.3799 H         1 SIA         0.0647
    113 H45        11.3741   19.3246    3.6234 H         1 SIA         0.0647
    114 H46        12.6143   16.5870    4.2073 H         1 SIA         0.0584
    115 H47        12.9458   17.6296    2.7826 H         1 SIA         0.0584
    116 H48        10.1624   20.6522    8.0885 H         1 SIA         0.2101
    117 H49        14.2625   18.4988    6.3896 H         1 SIA         0.2100
    118 H50        10.4345   16.4863    3.4725 H         1 SIA         0.2095
    119 H51         6.6691   15.9527    5.5530 H         1 SIA         0.0671
    120 H52         7.9765   16.8848    8.1488 H         1 SIA         0.0648
    121 H53         8.2598   17.9822    5.3118 H         1 SIA         0.0651
    122 H54         6.8353   19.2216    7.7093 H         1 SIA         0.0647
    123 H55         5.8905   20.4750    5.4500 H         1 SIA         0.0584
    124 H56         7.5901   20.1333    4.9796 H         1 SIA         0.0584
    125 H57         5.5884   17.2385    8.1126 H         1 SIA         0.0935
    126 H58         4.1807   15.6258    7.2069 H         1 SIA         0.2126
    127 H59         7.2685   14.2671    7.0275 H         1 SIA         0.2101
    128 H60         9.9032   16.3061    7.0245 H         1 SIA         0.2100
    129 H61         8.2126   21.0588    7.0232 H         1 SIA         0.2095
@<TRIPOS>BOND
     1    2    1 1  
     2    1   13 ar 
     3    1   14 ar 
     4    2    3 1  
     5    2   16 1  
     6   31    2 1  
     7    3    4 1  
     8    4    5 1  
     9    4   15 1  
    10    6    5 1  
    11    5   12 1  
    12    6    7 1  
    13   16    6 1  
    14    7    8 1  
    15    7   17 1  
    16    8    9 1  
    17    8   18 1  
    18    9   19 1  
    19   10   11 1  
    20   12   10 am 
    21   10   20 2  
    22   21   22 1  
    23   21   30 1  
    24   42   21 1  
    25   22   23 1  
    26   22   27 1  
    27   23   24 1  
    28   23   28 1  
    29   25   24 1  
    30   24   29 1  
    31   25   26 1  
    32   30   25 1  
    33   26   31 1  
    34   32   33 1  
    35   32   43 1  
    36   53   32 1  
    37   33   34 1  
    38   33   40 1  
    39   34   35 1  
    40   34   41 1  
    41   36   35 1  
    42   35   42 1  
    43   36   37 1  
    44   43   36 1  
    45   37   44 1  
    46   38   39 1  
    47   40   38 am 
    48   38   45 2  
    49   46   47 1  
    50   46   55 1  
    51   66   46 1  
    52   47   48 1  
    53   47   52 1  
    54   48   49 1  
    55   48   53 1  
    56   50   49 1  
    57   49   54 1  
    58   50   51 1  
    59   55   50 1  
    60   51   56 1  
    61   58   57 1  
    62   57   62 1  
    63   57   64 1  
    64   59   58 1  
    65   58   65 1  
    66   59   60 1  
    67   59   66 1  
    68   60   61 1  
    69   60   67 1  
    70   61   68 1  
    71   62   63 1  
    72   62   67 1  
    73    3   69 1  
    74    3   70 1  
    75    4   71 1  
    76    5   72 1  
    77    6   73 1  
    78    7   74 1  
    79    8   75 1  
    80    9   76 1  
    81    9   77 1  
    82   11   78 1  
    83   11   79 1  
    84   11   80 1  
    85   12   81 1  
    86   15   82 1  
    87   17   83 1  
    88   18   84 1  
    89   19   85 1  
    90   21   86 1  
    91   22   87 1  
    92   23   88 1  
    93   24   89 1  
    94   25   90 1  
    95   26   91 1  
    96   26   92 1  
    97   27   93 1  
    98   28   94 1  
    99   29   95 1  
   100   32   96 1  
   101   33   97 1  
   102   34   98 1  
   103   35   99 1  
   104   36  100 1  
   105   37  101 1  
   106   37  102 1  
   107   39  103 1  
   108   39  104 1  
   109   39  105 1  
   110   40  106 1  
   111   41  107 1  
   112   44  108 1  
   113   46  109 1  
   114   47  110 1  
   115   48  111 1  
   116   49  112 1  
   117   50  113 1  
   118   51  114 1  
   119   51  115 1  
   120   52  116 1  
   121   54  117 1  
   122   56  118 1  
   123   57  119 1  
   124   58  120 1  
   125   59  121 1  
   126   60  122 1  
   127   61  123 1  
   128   61  124 1  
   129   62  125 1  
   130   63  126 1  
   131   64  127 1  
   132   65  128 1  
   133   68  129 1  
@<TRIPOS>SUBSTRUCTURE
     1 SIA         1

