### 
### Created by X-TOOL on Mon Sep 10 21:13:23 2018
### 

@<TRIPOS>MOLECULE
4x1f_ligand
   46    49     1     0     0
SMALL
GAST_HUCK


@<TRIPOS>ATOM
      1 CAB        13.2690   77.1610    0.4730 C.3       1 3WF        -0.0557
      2 CAV        13.4010   78.6440    0.7280 C.3       1 3WF         0.0113
      3 CAN        12.7420   79.0240    2.0160 C.3       1 3WF        -0.0421
      4 CAK        11.2440   78.8180    1.9050 C.3       1 3WF        -0.0420
      5 CAR        10.6430   79.5090    0.7060 C.3       1 3WF        -0.0116
      6 CAQ         9.2730   79.2850    0.6080 C.ar      1 3WF        -0.0484
      7 CAG         8.5520   78.9650    1.7410 C.ar      1 3WF        -0.0749
      8 CAF         7.2040   78.7350    1.7440 C.ar      1 3WF        -0.0468
      9 CAO         6.5260   78.8350    0.5600 C.ar      1 3WF         0.0739
     10 OAC         5.2110   78.6280    0.5720 O.3       1 3WF        -0.3393
     11 CAH         7.2330   79.1720   -0.5960 C.ar      1 3WF        -0.0385
     12 CAP         8.5990   79.3820   -0.5770 C.ar      1 3WF        -0.0491
     13 CAI         9.2450   79.7200   -1.7420 C.3       1 3WF        -0.0236
     14 CAJ        10.7230   79.9960   -1.5960 C.3       1 3WF        -0.0396
     15 CAS        11.3420   79.1250   -0.5370 C.3       1 3WF        -0.0259
     16 CAT        12.7850   79.4680   -0.3430 C.3       1 3WF        -0.0273
     17 CAL        13.6610   79.1500   -1.4940 C.3       1 3WF        -0.0457
     18 CAM        15.0360   78.9360   -0.8920 C.3       1 3WF        -0.0118
     19 CAU        14.8580   79.0300    0.5780 C.3       1 3WF         0.1317
     20 OAD        15.6590   78.1060    1.2190 O.3       1 3WF        -0.3760
     21 CAE        15.1180   80.3630    1.0080 C.1       1 3WF        -0.0704
     22 CAA        15.2670   81.2040    1.2690 C.1       1 3WF        -0.1163
     23 H1         12.2153   76.8633    0.5780 H         1 3WF         0.0236
     24 H2         13.8806   76.6079    1.2010 H         1 3WF         0.0236
     25 H3         13.6149   76.9319   -0.5457 H         1 3WF         0.0236
     26 H4         12.9502   80.0817    2.2349 H         1 3WF         0.0273
     27 H5         13.1379   78.3966    2.8281 H         1 3WF         0.0273
     28 H6         10.7671   79.2139    2.8137 H         1 3WF         0.0286
     29 H7         11.0431   77.7394    1.8256 H         1 3WF         0.0286
     30 H8         10.7879   80.5905    0.8447 H         1 3WF         0.0429
     31 H9          9.0849   78.8919    2.6821 H         1 3WF         0.0511
     32 H10         6.6858   78.4799    2.6613 H         1 3WF         0.0468
     33 H11         4.8679   78.7274   -0.3083 H         1 3WF         0.2457
     34 H12         6.6966   79.2715   -1.5327 H         1 3WF         0.0462
     35 H13         8.7675   80.6245   -2.1469 H         1 3WF         0.0410
     36 H14         9.1216   78.8903   -2.4536 H         1 3WF         0.0410
     37 H15        10.8644   81.0512   -1.3192 H         1 3WF         0.0290
     38 H16        11.2205   79.7991   -2.5571 H         1 3WF         0.0290
     39 H17        11.2194   78.0574   -0.7721 H         1 3WF         0.0326
     40 H18        12.8531   80.5388   -0.1006 H         1 3WF         0.0311
     41 H19        13.6779   79.9852   -2.2096 H         1 3WF         0.0269
     42 H20        13.3154   78.2381   -2.0028 H         1 3WF         0.0269
     43 H21        15.7320   79.7121   -1.2431 H         1 3WF         0.0303
     44 H22        15.4236   77.9441   -1.1674 H         1 3WF         0.0303
     45 H23        16.5690   78.2751    1.0053 H         1 3WF         0.2114
     46 H24        15.4432   82.1984    1.5776 H         1 3WF         0.1229
@<TRIPOS>BOND
     1    1    2 1  
     2    2    3 1  
     3    2   16 1  
     4    2   19 1  
     5    3    4 1  
     6    4    5 1  
     7    5    6 1  
     8    5   15 1  
     9    6    7 ar 
    10    6   12 ar 
    11    7    8 ar 
    12    8    9 ar 
    13    9   10 1  
    14    9   11 ar 
    15   11   12 ar 
    16   12   13 1  
    17   13   14 1  
    18   14   15 1  
    19   15   16 1  
    20   16   17 1  
    21   17   18 1  
    22   18   19 1  
    23   19   20 1  
    24   19   21 1  
    25   21   22 3  
    26    1   23 1  
    27    1   24 1  
    28    1   25 1  
    29    3   26 1  
    30    3   27 1  
    31    4   28 1  
    32    4   29 1  
    33    5   30 1  
    34    7   31 1  
    35    8   32 1  
    36   10   33 1  
    37   11   34 1  
    38   13   35 1  
    39   13   36 1  
    40   14   37 1  
    41   14   38 1  
    42   15   39 1  
    43   16   40 1  
    44   17   41 1  
    45   17   42 1  
    46   18   43 1  
    47   18   44 1  
    48   20   45 1  
    49   22   46 1  
@<TRIPOS>SUBSTRUCTURE
     1 3WF         1

