### 
### Created by X-TOOL on Mon Sep 10 21:13:24 2018
### 

@<TRIPOS>MOLECULE
4x21_ligand
   51    54     1     0     0
SMALL
GAST_HUCK


@<TRIPOS>ATOM
      1 C11        16.1730   29.5540   72.5300 C.3       1 3WH         0.0364
      2 C10        15.2300   30.4660   71.8050 C.3       1 3WH        -0.0092
      3 C13        13.5870   33.1710   71.4860 C.ar      1 3WH         0.1805
      4 C01        18.8000   25.3400   71.9690 C.3       1 3WH        -0.0451
      5 C02        17.3040   25.5300   72.2990 C.3       1 3WH         0.0284
      6 N03        16.8690   26.9110   72.4350 N.am      1 3WH        -0.2733
      7 C04        15.9030   27.2960   73.3940 C.2       1 3WH         0.2599
      8 O05        15.4080   26.4630   74.1500 O.2       1 3WH        -0.4007
      9 N06        15.5580   28.6060   73.4190 N.am      1 3WH        -0.2594
     10 C07        14.5870   29.2290   74.3160 C.3       1 3WH         0.0364
     11 C08        13.5860   30.0940   73.6090 C.3       1 3WH        -0.0092
     12 C09        14.2380   31.0980   72.7060 C.3       1 3WH         0.0458
     13 N12        13.3290   31.9870   72.0110 N.pl3     1 3WH        -0.2867
     14 N14        14.8400   33.5680   71.4040 N.ar      1 3WH        -0.2639
     15 C15        15.0540   34.7540   70.8570 C.ar      1 3WH         0.0397
     16 C16        14.0000   35.5310   70.4070 C.ar      1 3WH         0.0404
     17 I17        14.1980   37.4320   69.5680 I         1 3WH        -0.0512
     18 C18        12.7070   35.0190   70.5520 C.ar      1 3WH         0.0141
     19 N19        12.5050   33.8350   71.0880 N.ar      1 3WH        -0.2631
     20 C20        16.4310   35.1830   70.7570 C.2       1 3WH         0.0132
     21 C21        16.9550   36.1620   70.0110 C.2       1 3WH         0.0510
     22 N22        18.2820   36.2870   70.1450 N.pl3     1 3WH        -0.2664
     23 C23        18.7050   35.3310   70.9880 C.ar      1 3WH         0.0714
     24 C24        17.5770   34.6050   71.4160 C.ar      1 3WH        -0.0094
     25 C25        17.7310   33.5500   72.3040 C.ar      1 3WH        -0.0720
     26 C26        19.0170   33.2710   72.7330 C.ar      1 3WH        -0.0775
     27 C27        20.1210   33.9960   72.3290 C.ar      1 3WH        -0.0749
     28 C28        19.9670   35.0270   71.4320 C.ar      1 3WH        -0.0408
     29 H1         16.8593   30.1774   73.1219 H         1 3WH         0.0520
     30 H2         16.7452   28.9911   71.7779 H         1 3WH         0.0520
     31 H3         14.6918   29.8823   71.0436 H         1 3WH         0.0307
     32 H4         15.8144   31.2583   71.3144 H         1 3WH         0.0307
     33 H5         19.0241   24.2661   71.8880 H         1 3WH         0.0249
     34 H6         19.4112   25.7827   72.7693 H         1 3WH         0.0249
     35 H7         19.0308   25.8357   71.0145 H         1 3WH         0.0249
     36 H8         17.0968   25.0133   73.2477 H         1 3WH         0.0514
     37 H9         16.7164   25.0663   71.4929 H         1 3WH         0.0514
     38 H10        17.2632   27.6069   71.8347 H         1 3WH         0.1845
     39 H11        15.1324   29.8501   75.0417 H         1 3WH         0.0520
     40 H12        14.0449   28.4336   74.8484 H         1 3WH         0.0520
     41 H13        12.9883   30.6302   74.3608 H         1 3WH         0.0307
     42 H14        12.9268   29.4519   73.0064 H         1 3WH         0.0307
     43 H15        14.8185   31.7514   73.3738 H         1 3WH         0.0562
     44 H16        12.3593   31.6534   71.9142 H         1 3WH         0.1871
     45 H17        11.8592   35.6061   70.2180 H         1 3WH         0.0890
     46 H18        16.3594   36.7970   69.3569 H         1 3WH         0.1107
     47 H19        18.8737   36.9922   69.6829 H         1 3WH         0.2342
     48 H20        16.8817   32.9700   72.6466 H         1 3WH         0.0544
     49 H21        19.1647   32.4444   73.4185 H         1 3WH         0.0522
     50 H22        21.1038   33.7536   72.7170 H         1 3WH         0.0538
     51 H23        20.8259   35.5885   71.0826 H         1 3WH         0.0552
@<TRIPOS>BOND
     1    2    1 1  
     2    1    9 1  
     3   12    2 1  
     4   13    3 1  
     5    3   14 ar 
     6    3   19 ar 
     7    5    4 1  
     8    6    5 1  
     9    7    6 am 
    10    7    8 2  
    11    9    7 am 
    12   10    9 1  
    13   11   10 1  
    14   12   11 1  
    15   12   13 1  
    16   14   15 ar 
    17   15   16 ar 
    18   15   20 1  
    19   16   17 1  
    20   16   18 ar 
    21   18   19 ar 
    22   20   21 2  
    23   20   24 1  
    24   21   22 1  
    25   22   23 1  
    26   23   24 ar 
    27   23   28 ar 
    28   24   25 ar 
    29   25   26 ar 
    30   26   27 ar 
    31   27   28 ar 
    32    1   29 1  
    33    1   30 1  
    34    2   31 1  
    35    2   32 1  
    36    4   33 1  
    37    4   34 1  
    38    4   35 1  
    39    5   36 1  
    40    5   37 1  
    41    6   38 1  
    42   10   39 1  
    43   10   40 1  
    44   11   41 1  
    45   11   42 1  
    46   12   43 1  
    47   13   44 1  
    48   18   45 1  
    49   21   46 1  
    50   22   47 1  
    51   25   48 1  
    52   26   49 1  
    53   27   50 1  
    54   28   51 1  
@<TRIPOS>SUBSTRUCTURE
     1 3WH         1

