### 
### Created by X-TOOL on Mon Sep 10 21:13:22 2018
### 

@<TRIPOS>MOLECULE
4x24_ligand
   40    42     1     0     0
SMALL
GAST_HUCK


@<TRIPOS>ATOM
      1 C2         14.8510   -6.4650   19.2960 C.ar      1 TDI         0.0439
      2 C4         13.1090   -7.4060   20.5370 C.ar      1 TDI         0.0483
      3 C5         13.9010   -8.5940   20.7960 C.ar      1 TDI         0.1304
      4 C6         15.2410   -8.6060   20.2240 C.ar      1 TDI         0.1459
      5 CS5         9.1500   -9.4550   15.1140 C.3       1 TDI        -0.0181
      6 S          10.2490   -8.1340   15.4210 S.3       1 TDI        -0.1636
      7 C5'        10.2850   -8.2290   17.2090 C.3       1 TDI         0.0036
      8 C4'         9.1600   -7.4590   17.9120 C.3       1 TDI         0.0391
      9 C1'         9.1180   -7.7280   19.4160 C.3       1 TDI        -0.0248
     10 N1'        10.0120   -6.7060   19.9370 N.4       1 TDI         0.2442
     11 C10        10.5760   -6.7150   21.2860 C.3       1 TDI        -0.0117
     12 C9         11.7940   -7.6110   21.1870 C.2       1 TDI         0.0166
     13 C8         11.9150   -8.8610   21.7670 C.2       1 TDI         0.0326
     14 N7         13.1520   -9.4170   21.5490 N.pl3     1 TDI        -0.2768
     15 N6         16.0490   -9.6700   20.4330 N.pl3     1 TDI        -0.3157
     16 N1         15.6490   -7.5420   19.5040 N.ar      1 TDI        -0.2741
     17 N3         13.5990   -6.3910   19.7860 N.ar      1 TDI        -0.3132
     18 C2'        10.2710   -5.6010   19.0170 C.3       1 TDI        -0.0040
     19 C3'         9.3740   -5.9610   17.8500 C.3       1 TDI         0.1032
     20 O3'         8.1530   -5.2710   18.0620 O.3       1 TDI        -0.3860
     21 H1         15.2348   -5.6344   18.7147 H         1 TDI         0.0956
     22 H2          8.9959   -9.5593   14.0299 H         1 TDI         0.0340
     23 H3          8.1862   -9.2514   15.6034 H         1 TDI         0.0340
     24 H4          9.5754  -10.3867   15.5151 H         1 TDI         0.0340
     25 H5         11.2469   -7.8228   17.5549 H         1 TDI         0.0382
     26 H6         10.2088   -9.2876   17.4980 H         1 TDI         0.0382
     27 H7          8.2021   -7.7323   17.4455 H         1 TDI         0.0388
     28 H8          9.4866   -8.7374   19.6509 H         1 TDI         0.0818
     29 H9          8.0997   -7.6075   19.8143 H         1 TDI         0.0818
     30 H10        10.8165   -7.2128   19.6023 H         1 TDI         0.2042
     31 H11         9.8519   -7.1228   22.0066 H         1 TDI         0.0901
     32 H12        10.8656   -5.6990   21.5923 H         1 TDI         0.0901
     33 H13        11.1211   -9.3481   22.3313 H         1 TDI         0.0886
     34 H14        13.4603  -10.3311   21.9100 H         1 TDI         0.2266
     35 H15        16.9972   -9.6835   20.0309 H         1 TDI         0.1805
     36 H16        15.7163  -10.4669   20.9943 H         1 TDI         0.1805
     37 H17        11.3284   -5.5688   18.7157 H         1 TDI         0.0840
     38 H18         9.9861   -4.6350   19.4593 H         1 TDI         0.0840
     39 H19         9.8240   -5.6720   16.8888 H         1 TDI         0.0652
     40 H20         8.3196   -4.3361   18.0900 H         1 TDI         0.2100
@<TRIPOS>BOND
     1    1   16 ar 
     2   17    1 ar 
     3    2    3 ar 
     4   12    2 1  
     5    2   17 ar 
     6    3    4 ar 
     7    3   14 1  
     8    4   15 1  
     9    4   16 ar 
    10    6    5 1  
    11    7    6 1  
    12    8    7 1  
    13    9    8 1  
    14    8   19 1  
    15   10    9 1  
    16   11   10 1  
    17   10   18 1  
    18   11   12 1  
    19   12   13 2  
    20   13   14 1  
    21   18   19 1  
    22   19   20 1  
    23    1   21 1  
    24    5   22 1  
    25    5   23 1  
    26    5   24 1  
    27    7   25 1  
    28    7   26 1  
    29    8   27 1  
    30    9   28 1  
    31    9   29 1  
    32   10   30 1  
    33   11   31 1  
    34   11   32 1  
    35   13   33 1  
    36   14   34 1  
    37   15   35 1  
    38   15   36 1  
    39   18   37 1  
    40   18   38 1  
    41   19   39 1  
    42   20   40 1  
@<TRIPOS>SUBSTRUCTURE
     1 TDI         1

