### 
### Created by X-TOOL on Mon Sep 10 21:13:20 2018
### 

@<TRIPOS>MOLECULE
4x2i_ligand
   40    43     1     0     0
SMALL
GAST_HUCK


@<TRIPOS>ATOM
      1 C1        -13.8710   -7.5630    1.3080 C.3       1 3X0         0.0595
      2 C2        -13.1140   -7.4480    2.6410 C.3       1 3X0         0.0619
      3 C3        -11.1670   -6.4790    3.7270 C.ar      1 3X0         0.0600
      4 C4         -9.9700   -5.7600    3.6960 C.ar      1 3X0        -0.0393
      5 C5         -9.3640   -5.3380    4.8900 C.ar      1 3X0        -0.0586
      6 C6         -9.8900   -5.7210    6.1240 C.ar      1 3X0         0.0270
      7 C7        -11.0680   -6.4750    6.1610 C.ar      1 3X0        -0.0586
      8 N1        -12.7580   -5.7140    0.0240 N.pl3     1 3X0        -0.1727
      9 N2        -14.4480   -4.4390   -0.4060 N.2       1 3X0        -0.2826
     10 N3        -14.8570   -5.5070    0.3490 N.2       1 3X0        -0.2821
     11 C8        -11.6690   -6.8270    4.9810 C.ar      1 3X0        -0.0393
     12 C10       -11.4960   -6.3170    0.1300 C.ar      1 3X0         0.1268
     13 CL         -9.1650   -5.2480    7.6010 Cl        1 3X0        -0.0822
     14 N         -11.7980   -6.8180    2.5230 N.pl3     1 3X0        -0.2585
     15 C9        -11.0630   -6.8920    1.3200 C.ar      1 3X0         0.0974
     16 C14        -9.8440   -7.5560    1.3690 C.ar      1 3X0        -0.0434
     17 C13        -9.0100   -7.6210    0.2740 C.ar      1 3X0        -0.0796
     18 C12        -9.3850   -7.0370   -0.9210 C.ar      1 3X0        -0.0787
     19 C11       -10.6180   -6.4020   -1.0000 C.ar      1 3X0        -0.0370
     20 C16       -13.8070   -6.2610    0.6210 C.2       1 3X0         0.1466
     21 C         -15.2710   -8.0880    1.5750 C.3       1 3X0        -0.0441
     22 C15       -13.1400   -4.5680   -0.5810 C.2       1 3X0         0.1384
     23 C17       -12.2540   -3.6470   -1.3770 C.3       1 3X0         0.0157
     24 H1        -13.3586   -8.2995    0.6716 H         1 3X0         0.0558
     25 H2        -12.9781   -8.4598    3.0506 H         1 3X0         0.0593
     26 H3        -13.7232   -6.8502    3.3349 H         1 3X0         0.0593
     27 H4         -9.5062   -5.5264    2.7445 H         1 3X0         0.0528
     28 H5         -8.4811   -4.7101    4.8528 H         1 3X0         0.0591
     29 H6        -11.4988   -6.7762    7.1090 H         1 3X0         0.0591
     30 H7        -12.5837   -7.4071    5.0243 H         1 3X0         0.0528
     31 H8         -9.5408   -8.0356    2.2927 H         1 3X0         0.0507
     32 H9         -8.0569   -8.1318    0.3502 H         1 3X0         0.0523
     33 H10        -8.7279   -7.0738   -1.7824 H         1 3X0         0.0496
     34 H11       -10.9243   -5.9591   -1.9408 H         1 3X0         0.0544
     35 H12       -15.8183   -8.1727    0.6246 H         1 3X0         0.0260
     36 H13       -15.8017   -7.3938    2.2431 H         1 3X0         0.0260
     37 H14       -15.2070   -9.0778    2.0506 H         1 3X0         0.0260
     38 H15       -12.8463   -2.7966   -1.7458 H         1 3X0         0.0467
     39 H16       -11.8283   -4.1948   -2.2306 H         1 3X0         0.0467
     40 H17       -11.4402   -3.2766   -0.7363 H         1 3X0         0.0467
@<TRIPOS>BOND
     1    1    2 1  
     2   20    1 1  
     3    1   21 1  
     4    2   14 1  
     5    3    4 ar 
     6    3   11 ar 
     7   14    3 1  
     8    4    5 ar 
     9    5    6 ar 
    10    7    6 ar 
    11    6   13 1  
    12   11    7 ar 
    13    8   12 1  
    14    8   20 1  
    15   22    8 1  
    16    9   10 1  
    17    9   22 2  
    18   10   20 2  
    19   12   15 ar 
    20   12   19 ar 
    21   14   15 1  
    22   15   16 ar 
    23   16   17 ar 
    24   17   18 ar 
    25   18   19 ar 
    26   22   23 1  
    27    1   24 1  
    28    2   25 1  
    29    2   26 1  
    30    4   27 1  
    31    5   28 1  
    32    7   29 1  
    33   11   30 1  
    34   16   31 1  
    35   17   32 1  
    36   18   33 1  
    37   19   34 1  
    38   21   35 1  
    39   21   36 1  
    40   21   37 1  
    41   23   38 1  
    42   23   39 1  
    43   23   40 1  
@<TRIPOS>SUBSTRUCTURE
     1 3X0         1

