### 
### Created by X-TOOL on Mon Sep 10 21:13:24 2018
### 

@<TRIPOS>MOLECULE
4x2l_ligand
   29    30     1     0     0
SMALL
GAST_HUCK


@<TRIPOS>ATOM
      1 C4         16.8600  -42.1070    9.3760 C.3       1 3WP        -0.0085
      2 N2         14.5740  -41.0190    6.3070 N.pl3     1 3WP        -0.2674
      3 C7         18.7260  -40.1330    6.9010 C.ar      1 3WP        -0.0379
      4 C6         18.3890  -39.7500    8.2150 C.ar      1 3WP         0.0260
      5 C9         21.1070  -40.0670    7.3870 C.ar      1 3WP         0.1648
      6 C8         20.0440  -40.2980    6.4890 C.ar      1 3WP        -0.0006
      7 C1         16.5890  -38.2240    9.2210 C.3       1 3WP        -0.0457
      8 C2         16.9240  -39.6400    8.7170 C.3       1 3WP         0.0944
      9 C3         16.6900  -40.6690    9.8350 C.3       1 3WP        -0.0251
     10 S1         15.6870  -42.5820    8.0920 S.3       1 3WP        -0.0884
     11 C5         15.4400  -40.9680    7.3360 C.cat     1 3WP         0.2578
     12 N1         15.9760  -39.8370    7.6160 N.pl3     1 3WP        -0.2868
     13 C10        20.8460  -39.6540    8.7030 C.ar      1 3WP         0.0380
     14 C11        19.4950  -39.5180    9.0980 C.ar      1 3WP         0.1644
     15 F1         19.3090  -39.1990   10.3800 F         1 3WP        -0.1563
     16 F2         22.3810  -40.3120    7.0090 F         1 3WP        -0.1572
     17 H1         16.7186  -42.7702   10.2421 H         1 3WP         0.0366
     18 H2         17.8795  -42.2307    8.9820 H         1 3WP         0.0366
     19 H3         14.3431  -40.1615    5.7852 H         1 3WP         0.3186
     20 H4         14.1422  -41.9156    6.0413 H         1 3WP         0.3186
     21 H5         17.9295  -40.3051    6.1862 H         1 3WP         0.0823
     22 H6         20.2557  -40.6060    5.4715 H         1 3WP         0.0665
     23 H7         15.5446  -38.1948    9.5651 H         1 3WP         0.0167
     24 H8         16.7257  -37.5016    8.4028 H         1 3WP         0.0167
     25 H9         17.2572  -37.9640   10.0552 H         1 3WP         0.0167
     26 H10        17.4088  -40.4740   10.6445 H         1 3WP         0.0211
     27 H11        15.6658  -40.5432   10.2159 H         1 3WP         0.0211
     28 H12        15.7270  -39.0230    7.0360 H         1 3WP         0.3096
     29 H13        21.6544  -39.4459    9.3945 H         1 3WP         0.0674
@<TRIPOS>BOND
     1    1    9 1  
     2   10    1 1  
     3   11    2 ar 
     4    4    3 ar 
     5    3    6 ar 
     6    8    4 1  
     7    4   14 ar 
     8    6    5 ar 
     9    5   13 ar 
    10    5   16 1  
    11    8    7 1  
    12    9    8 1  
    13    8   12 1  
    14   10   11 1  
    15   11   12 ar 
    16   13   14 ar 
    17   14   15 1  
    18    1   17 1  
    19    1   18 1  
    20    2   19 1  
    21    2   20 1  
    22    3   21 1  
    23    6   22 1  
    24    7   23 1  
    25    7   24 1  
    26    7   25 1  
    27    9   26 1  
    28    9   27 1  
    29   12   28 1  
    30   13   29 1  
@<TRIPOS>SUBSTRUCTURE
     1 3WP         1

