### 
### Created by X-TOOL on Mon Sep 10 21:13:25 2018
### 

@<TRIPOS>MOLECULE
4x2s_ligand
   15    14     1     0     0
SMALL
GAST_HUCK


@<TRIPOS>ATOM
      1 N          29.6850  -75.1250  -17.4380 N.4       1 ASP         0.2339
      2 CA         31.1130  -75.3630  -17.2750 C.3       1 ASP         0.0398
      3 C          31.4240  -75.8540  -15.8550 C.2       1 ASP         0.0862
      4 O          32.1110  -76.8590  -15.6570 O.co2     1 ASP        -0.5642
      5 CB         31.8940  -74.0860  -17.5910 C.3       1 ASP         0.0552
      6 CG         31.8990  -73.7630  -19.0640 C.2       1 ASP         0.0419
      7 OD1        32.4370  -74.5760  -19.8430 O.co2     1 ASP        -0.5687
      8 OD2        31.3590  -72.7020  -19.4420 O.co2     1 ASP        -0.5687
      9 OXT        30.9860  -75.2690  -14.8630 O.co2     1 ASP        -0.5642
     10 H1         29.5028  -74.8037  -18.3759 H         1 ASP         0.2011
     11 H2         29.3836  -74.4248  -16.7785 H         1 ASP         0.2011
     12 H3         29.1805  -75.9818  -17.2724 H         1 ASP         0.2011
     13 H4         31.4198  -76.1443  -17.9859 H         1 ASP         0.1043
     14 H5         32.9332  -74.2154  -17.2546 H         1 ASP         0.0505
     15 H6         31.4343  -73.2475  -17.0474 H         1 ASP         0.0505
@<TRIPOS>BOND
     1    1    2 1  
     2    2    3 1  
     3    2    5 1  
     4    3    4 ar 
     5    3    9 ar 
     6    5    6 1  
     7    6    7 ar 
     8    6    8 ar 
     9    1   10 1  
    10    1   11 1  
    11    1   12 1  
    12    2   13 1  
    13    5   14 1  
    14    5   15 1  
@<TRIPOS>SUBSTRUCTURE
     1 ASP         1

