### 
### Created by X-TOOL on Mon Sep 10 21:13:20 2018
### 

@<TRIPOS>MOLECULE
4x3r_ligand
   88    91     1     0     0
SMALL
GAST_HUCK


@<TRIPOS>ATOM
      1 C34        32.7370    9.4930   33.7220 C.ar      1 686        -0.0751
      2 C31        31.4920    9.1140   34.2100 C.ar      1 686        -0.0737
      3 C30        30.3550    9.9140   34.0050 C.ar      1 686        -0.0443
      4 C33        32.8360   10.6950   33.0280 C.ar      1 686        -0.0737
      5 C32        31.7050   11.5020   32.8230 C.ar      1 686        -0.0443
      6 C29        30.4450   11.1170   33.2990 C.ar      1 686         0.0403
      7 N5         29.3080   11.9590   33.1150 N.pl3     1 686        -0.3050
      8 C26        27.9470   11.3950   33.1300 C.3       1 686         0.0471
      9 C25        26.8730   12.3430   32.5660 C.3       1 686         0.0504
     10 C28        29.5860   13.4000   33.0320 C.3       1 686         0.0471
     11 C27        28.4960   14.1700   32.2910 C.3       1 686         0.0504
     12 N4         27.2340   13.7230   32.8580 N.pl3     1 686        -0.2878
     13 C24        26.4030   14.5690   33.6480 C.ar      1 686         0.1188
     14 C22        25.4180   13.9840   34.4230 C.ar      1 686        -0.0105
     15 C21        24.5790   14.7480   35.2250 C.ar      1 686        -0.0346
     16 N3         26.5290   15.9410   33.6920 N.ar      1 686        -0.2779
     17 C23        25.7090   16.7220   34.4540 C.ar      1 686         0.0165
     18 C20        24.7090   16.1430   35.2510 C.ar      1 686         0.0634
     19 C          23.7640   16.9610   36.1000 C.2       1 686         0.2074
     20 O          22.5510   17.0200   35.8400 O.2       1 686        -0.3874
     21 N          24.1870   17.6370   37.1560 N.am      1 686        -0.2615
     22 C1         25.5660   17.6550   37.6070 C.3       1 686         0.0681
     23 C2         25.9270   16.2640   38.0300 C.ar      1 686        -0.0180
     24 C7         26.8020   15.5110   37.2300 C.ar      1 686        -0.0556
     25 C6         27.1750   14.2180   37.5990 C.ar      1 686        -0.0589
     26 C5         26.6550   13.6760   38.7760 C.ar      1 686         0.0056
     27 BR         27.1610   11.9150   39.2870 Br        1 686        -0.0561
     28 C4         25.7810   14.4280   39.5740 C.ar      1 686        -0.0589
     29 C3         25.4250   15.7360   39.2110 C.ar      1 686        -0.0556
     30 C8         23.2170   18.3870   37.9490 C.3       1 686         0.0355
     31 C9         23.1480   19.8110   37.4130 C.3       1 686        -0.0322
     32 C10        22.2980   19.9720   36.1300 C.3       1 686        -0.0476
     33 C11        20.8400   19.6050   36.3410 C.3       1 686        -0.0181
     34 C12        19.8980   20.1860   35.2670 C.3       1 686         0.0947
     35 C13        20.1570   19.5350   33.9340 C.2       1 686         0.0599
     36 O2         20.7890   20.0560   33.0350 O.co2     1 686        -0.5666
     37 O1         19.6610   18.3320   33.7150 O.co2     1 686        -0.5666
     38 N1         18.5560   19.9060   35.7030 N.am      1 686        -0.2576
     39 C14        17.8660   20.6550   36.5700 C.2       1 686         0.2608
     40 O7         18.3160   21.6920   37.0770 O.2       1 686        -0.4006
     41 N2         16.6550   20.2110   36.8950 N.am      1 686        -0.2575
     42 C15        16.0220   20.7060   38.0820 C.3       1 686         0.0962
     43 C19        16.9790   20.5180   39.2330 C.2       1 686         0.0600
     44 O6         17.8590   19.6200   39.2930 O.co2     1 686        -0.5666
     45 O5         16.8210   21.3640   40.2250 O.co2     1 686        -0.5666
     46 C16        14.7300   20.0120   38.5180 C.3       1 686        -0.0066
     47 C17        14.9300   18.5170   38.6140 C.3       1 686         0.0038
     48 C18        13.7810   17.7690   39.2700 C.2       1 686         0.0350
     49 O4         12.8960   18.2860   39.9840 O.co2     1 686        -0.5690
     50 O3         13.7170   16.4520   39.0560 O.co2     1 686        -0.5690
     51 H1         33.6088    8.8680   33.8781 H         1 686         0.0505
     52 H2         31.3963    8.1841   34.7589 H         1 686         0.0583
     53 H3         29.3970    9.5944   34.3990 H         1 686         0.0515
     54 H4         33.7976   11.0123   32.6410 H         1 686         0.0583
     55 H5         31.8088   12.4387   32.2874 H         1 686         0.0515
     56 H6         27.6837   11.1531   34.1703 H         1 686         0.0534
     57 H7         27.9469   10.4743   32.5281 H         1 686         0.0534
     58 H8         25.9024   12.1131   33.0297 H         1 686         0.0542
     59 H9         26.8005   12.2067   31.4769 H         1 686         0.0542
     60 H10        30.5397   13.5443   32.5033 H         1 686         0.0534
     61 H11        29.6682   13.8017   34.0527 H         1 686         0.0534
     62 H12        28.5328   13.9445   31.2150 H         1 686         0.0542
     63 H13        28.6215   15.2521   32.4434 H         1 686         0.0542
     64 H14        25.2980   12.9068   34.4043 H         1 686         0.0621
     65 H15        23.8224   14.2639   35.8318 H         1 686         0.0748
     66 H16        25.8311   17.7991   34.4436 H         1 686         0.0838
     67 H17        25.6727   18.3444   38.4575 H         1 686         0.0691
     68 H18        26.2237   17.9795   36.7872 H         1 686         0.0691
     69 H19        27.1926   15.9398   36.3142 H         1 686         0.0564
     70 H20        27.8570   13.6440   36.9822 H         1 686         0.0626
     71 H21        25.3759   13.9943   40.4811 H         1 686         0.0626
     72 H22        24.7689   16.3240   39.8426 H         1 686         0.0564
     73 H23        23.5326   18.4026   39.0026 H         1 686         0.0523
     74 H24        22.2276   17.9129   37.8695 H         1 686         0.0523
     75 H25        24.1723   20.1447   37.1908 H         1 686         0.0285
     76 H26        22.7149   20.4521   38.1949 H         1 686         0.0285
     77 H27        22.7149   19.3204   35.3480 H         1 686         0.0268
     78 H28        22.3526   21.0203   35.8013 H         1 686         0.0268
     79 H29        20.5239   19.9850   37.3237 H         1 686         0.0305
     80 H30        20.7511   18.5087   36.3258 H         1 686         0.0305
     81 H31        20.0491   21.2720   35.1788 H         1 686         0.0723
     82 H32        18.1070   19.0934   35.3313 H         1 686         0.1869
     83 H33        16.1912   19.5391   36.3175 H         1 686         0.1869
     84 H34        15.8100   21.7749   37.9324 H         1 686         0.0724
     85 H35        13.9407   20.2237   37.7817 H         1 686         0.0323
     86 H36        14.4270   20.3992   39.5020 H         1 686         0.0323
     87 H37        15.8416   18.3291   39.2002 H         1 686         0.0432
     88 H38        15.0607   18.1216   37.5959 H         1 686         0.0432
@<TRIPOS>BOND
     1    1    2 ar 
     2    1    4 ar 
     3    2    3 ar 
     4    3    6 ar 
     5    4    5 ar 
     6    5    6 ar 
     7    6    7 1  
     8    7    8 1  
     9    7   10 1  
    10    8    9 1  
    11    9   12 1  
    12   10   11 1  
    13   11   12 1  
    14   12   13 1  
    15   13   14 ar 
    16   13   16 ar 
    17   14   15 ar 
    18   15   18 ar 
    19   16   17 ar 
    20   17   18 ar 
    21   18   19 1  
    22   19   20 2  
    23   19   21 am 
    24   21   22 1  
    25   21   30 1  
    26   22   23 1  
    27   23   24 ar 
    28   23   29 ar 
    29   24   25 ar 
    30   25   26 ar 
    31   26   27 1  
    32   26   28 ar 
    33   28   29 ar 
    34   30   31 1  
    35   31   32 1  
    36   32   33 1  
    37   33   34 1  
    38   34   35 1  
    39   34   38 1  
    40   35   36 ar 
    41   35   37 ar 
    42   38   39 am 
    43   39   40 2  
    44   39   41 am 
    45   41   42 1  
    46   42   43 1  
    47   42   46 1  
    48   43   44 ar 
    49   43   45 ar 
    50   46   47 1  
    51   47   48 1  
    52   48   49 ar 
    53   48   50 ar 
    54    1   51 1  
    55    2   52 1  
    56    3   53 1  
    57    4   54 1  
    58    5   55 1  
    59    8   56 1  
    60    8   57 1  
    61    9   58 1  
    62    9   59 1  
    63   10   60 1  
    64   10   61 1  
    65   11   62 1  
    66   11   63 1  
    67   14   64 1  
    68   15   65 1  
    69   17   66 1  
    70   22   67 1  
    71   22   68 1  
    72   24   69 1  
    73   25   70 1  
    74   28   71 1  
    75   29   72 1  
    76   30   73 1  
    77   30   74 1  
    78   31   75 1  
    79   31   76 1  
    80   32   77 1  
    81   32   78 1  
    82   33   79 1  
    83   33   80 1  
    84   34   81 1  
    85   38   82 1  
    86   41   83 1  
    87   42   84 1  
    88   46   85 1  
    89   46   86 1  
    90   47   87 1  
    91   47   88 1  
@<TRIPOS>SUBSTRUCTURE
     1 686         1

