### 
### Created by X-TOOL on Mon Sep 10 21:13:25 2018
### 

@<TRIPOS>MOLECULE
4x47_ligand
   36    36     1     0     0
SMALL
GAST_HUCK


@<TRIPOS>ATOM
      1 C1         -9.2150   41.3280  -18.2110 C.2       1 DAN         0.0809
      2 C2         -9.7940   41.3520  -16.8620 C.2       1 DAN         0.1088
      3 C3        -10.8770   40.6580  -16.5140 C.2       1 DAN        -0.0276
      4 C4        -11.4220   40.7570  -15.1310 C.3       1 DAN         0.1003
      5 C5        -11.0240   42.0640  -14.4670 C.3       1 DAN         0.1064
      6 C6         -9.5170   42.3580  -14.5910 C.3       1 DAN         0.1321
      7 C7         -9.2660   43.8380  -14.1960 C.3       1 DAN         0.1154
      8 C8         -7.9970   44.6100  -14.4400 C.3       1 DAN         0.1068
      9 C9         -7.1230   44.7990  -13.1800 C.3       1 DAN         0.0727
     10 C10       -12.0160   43.0370  -12.4510 C.2       1 DAN         0.1734
     11 C11       -12.3100   42.8150  -11.0080 C.3       1 DAN         0.0257
     12 N5        -11.4200   42.0380  -13.0670 N.am      1 DAN        -0.2770
     13 O1A        -9.9050   40.8690  -19.2060 O.co2     1 DAN        -0.5623
     14 O1B        -8.0240   41.7640  -18.2660 O.co2     1 DAN        -0.5623
     15 O4        -12.8440   40.6110  -15.1550 O.3       1 DAN        -0.3807
     16 O6         -9.1540   42.2450  -15.9490 O.3       1 DAN        -0.3189
     17 O7        -10.0790   44.5960  -15.0870 O.3       1 DAN        -0.3861
     18 O8         -7.3390   44.0440  -15.6130 O.3       1 DAN        -0.3869
     19 O9         -7.5650   45.7810  -12.1810 O.3       1 DAN        -0.3924
     20 O10       -12.2790   44.0660  -13.0200 O.2       1 DAN        -0.3974
     21 H1        -11.3662   40.0151  -17.2443 H         1 DAN         0.0480
     22 H2        -11.0006   39.9326  -14.5370 H         1 DAN         0.0740
     23 H3        -11.5681   42.8785  -14.9675 H         1 DAN         0.0632
     24 H4         -8.9310   41.6721  -13.9616 H         1 DAN         0.0697
     25 H5         -9.5523   43.9486  -13.1397 H         1 DAN         0.0650
     26 H6         -8.3015   45.6275  -14.7262 H         1 DAN         0.0643
     27 H7         -6.1214   45.1030  -13.5180 H         1 DAN         0.0584
     28 H8         -7.0594   43.8236  -12.6754 H         1 DAN         0.0584
     29 H9        -12.8050   43.7056  -10.5934 H         1 DAN         0.0467
     30 H10       -11.3703   42.6322  -10.4662 H         1 DAN         0.0467
     31 H11       -12.9719   41.9433  -10.8985 H         1 DAN         0.0467
     32 H12       -11.2275   41.2100  -12.5403 H         1 DAN         0.1858
     33 H13       -13.1768   40.6165  -14.2652 H         1 DAN         0.2127
     34 H14       -10.9638   44.2505  -15.0781 H         1 DAN         0.2100
     35 H15        -7.9661   43.9731  -16.3231 H         1 DAN         0.2100
     36 H16        -7.6122   46.6405  -12.5828 H         1 DAN         0.2095
@<TRIPOS>BOND
     1    2    1 1  
     2    1   13 ar 
     3    1   14 ar 
     4    3    2 2  
     5   16    2 1  
     6    4    3 1  
     7    5    4 1  
     8    4   15 1  
     9    5    6 1  
    10   12    5 1  
    11    6    7 1  
    12    6   16 1  
    13    7    8 1  
    14    7   17 1  
    15    8    9 1  
    16    8   18 1  
    17    9   19 1  
    18   10   11 1  
    19   10   12 am 
    20   10   20 2  
    21    3   21 1  
    22    4   22 1  
    23    5   23 1  
    24    6   24 1  
    25    7   25 1  
    26    8   26 1  
    27    9   27 1  
    28    9   28 1  
    29   11   29 1  
    30   11   30 1  
    31   11   31 1  
    32   12   32 1  
    33   15   33 1  
    34   17   34 1  
    35   18   35 1  
    36   19   36 1  
@<TRIPOS>SUBSTRUCTURE
     1 DAN         1

