### 
### Created by X-TOOL on Mon Sep 10 21:13:23 2018
### 

@<TRIPOS>MOLECULE
4x48_ligand
   46    48     1     0     0
SMALL
GAST_HUCK


@<TRIPOS>ATOM
      1 C21        62.4370   23.9610   42.5070 C.2       1 XPF         0.0470
      2 C18        61.1670   26.0610   42.5240 C.ar      1 XPF        -0.0558
      3 C16        63.5530   26.1200   42.4890 C.ar      1 XPF        -0.0558
      4 C19        61.1220   27.4420   42.5320 C.ar      1 XPF        -0.0274
      5 C25        62.8070   20.3110   41.1450 C.1       1 XPF         0.0786
      6 C23        62.3580   21.7130   43.1470 C.2       1 XPF        -0.0358
      7 C15        63.5160   27.4980   42.4920 C.ar      1 XPF        -0.0274
      8 C22        62.2450   23.0740   43.5380 C.2       1 XPF        -0.0472
      9 C24        62.6490   21.5540   41.8110 C.2       1 XPF         0.1361
     10 C17        62.3800   25.3980   42.5030 C.ar      1 XPF        -0.0054
     11 C14        62.3070   28.1540   42.5020 C.ar      1 XPF         0.0974
     12 C5         61.3500   32.2770   43.1700 C.3       1 XPF         0.0703
     13 C3         61.6210   31.2420   41.1110 C.3       1 XPF         0.0804
     14 C1         60.6110   30.9590   43.2050 C.3       1 XPF         0.0936
     15 C2         61.1810   30.1620   42.0600 C.3       1 XPF         0.1275
     16 C11        59.6670   32.2580   46.5280 C.3       1 XPF        -0.0414
     17 C12        57.4220   31.1760   46.2780 C.3       1 XPF        -0.0414
     18 C10        58.7830   31.3940   45.6660 C.3       1 XPF         0.0899
     19 N26        62.9240   19.2880   40.6060 N.1       1 XPF        -0.3613
     20 N6         60.9020   30.2980   44.4890 N.am      1 XPF        -0.2433
     21 O8         59.9620   29.2560   46.6660 O.2       1 XPF        -0.1552
     22 O9         58.6800   29.0460   44.5510 O.2       1 XPF        -0.1552
     23 O4         61.9210   32.4180   41.8690 O.3       1 XPF        -0.3748
     24 O13        62.3810   29.5330   42.5130 O.3       1 XPF        -0.3067
     25 S20        62.7950   23.0950   41.0710 S.3       1 XPF        -0.0083
     26 S7         59.5510   29.8240   45.3990 S.o2      1 XPF         0.0417
     27 H1         60.2438   25.4929   42.5343 H         1 XPF         0.0627
     28 H2         64.5062   25.6040   42.4756 H         1 XPF         0.0627
     29 H3         60.1704   27.9603   42.5614 H         1 XPF         0.0559
     30 H4         62.2275   20.8791   43.8351 H         1 XPF         0.0642
     31 H5         64.4400   28.0648   42.4865 H         1 XPF         0.0559
     32 H6         62.0268   23.3847   44.5587 H         1 XPF         0.0471
     33 H7         62.1445   32.2817   43.9307 H         1 XPF         0.0580
     34 H8         60.6512   33.1040   43.3644 H         1 XPF         0.0580
     35 H9         60.8144   31.4579   40.3949 H         1 XPF         0.0590
     36 H10        62.5178   30.9136   40.5652 H         1 XPF         0.0590
     37 H11        59.5269   31.1019   43.0853 H         1 XPF         0.0565
     38 H12        60.4658   29.4489   41.6242 H         1 XPF         0.0696
     39 H13        59.1825   33.2323   46.6893 H         1 XPF         0.0248
     40 H14        60.6344   32.4082   46.0264 H         1 XPF         0.0248
     41 H15        59.8294   31.7643   47.4975 H         1 XPF         0.0248
     42 H16        56.9364   32.1483   46.4478 H         1 XPF         0.0248
     43 H17        57.5314   30.6484   47.2370 H         1 XPF         0.0248
     44 H18        56.8055   30.5724   45.5956 H         1 XPF         0.0248
     45 H19        58.6516   31.8959   44.6961 H         1 XPF         0.0549
     46 H20        61.8375   30.1387   44.8045 H         1 XPF         0.1674
@<TRIPOS>BOND
     1    1    8 2  
     2   10    1 1  
     3    1   25 1  
     4    4    2 ar 
     5    2   10 ar 
     6    7    3 ar 
     7    3   10 ar 
     8   11    4 ar 
     9    9    5 1  
    10    5   19 3  
    11    8    6 1  
    12    9    6 2  
    13   11    7 ar 
    14   25    9 1  
    15   24   11 1  
    16   14   12 1  
    17   12   23 1  
    18   15   13 1  
    19   13   23 1  
    20   14   15 1  
    21   20   14 1  
    22   15   24 1  
    23   18   16 1  
    24   18   17 1  
    25   26   18 1  
    26   20   26 am 
    27   26   21 2  
    28   26   22 2  
    29    2   27 1  
    30    3   28 1  
    31    4   29 1  
    32    6   30 1  
    33    7   31 1  
    34    8   32 1  
    35   12   33 1  
    36   12   34 1  
    37   13   35 1  
    38   13   36 1  
    39   14   37 1  
    40   15   38 1  
    41   16   39 1  
    42   16   40 1  
    43   16   41 1  
    44   17   42 1  
    45   17   43 1  
    46   17   44 1  
    47   18   45 1  
    48   20   46 1  
@<TRIPOS>SUBSTRUCTURE
     1 XPF         1

