### 
### Created by X-TOOL on Mon Sep 10 21:13:23 2018
### 

@<TRIPOS>MOLECULE
4x49_ligand
   44    44     1     0     0
SMALL
GAST_HUCK


@<TRIPOS>ATOM
      1 C1        -31.5460   86.6280   19.5190 C.2       1 G39         0.0478
      2 O1A       -32.2860   85.6360   19.7390 O.co2     1 G39        -0.5666
      3 O1B       -30.8050   87.1290   20.4230 O.co2     1 G39        -0.5666
      4 C2        -31.4630   87.1780   18.1680 C.2       1 G39        -0.0181
      5 C3        -30.1940   87.8890   17.7710 C.3       1 G39         0.0201
      6 C4        -30.0860   88.1990   16.3050 C.3       1 G39         0.0100
      7 C5        -31.4400   88.6620   15.7770 C.3       1 G39         0.1202
      8 N5        -31.3520   88.9680   14.3750 N.am      1 G39        -0.2740
      9 C10       -31.5420   90.1670   13.7950 C.2       1 G39         0.1735
     10 O10       -31.8380   91.1710   14.4170 O.2       1 G39        -0.3974
     11 C11       -31.3340   90.1890   12.3070 C.3       1 G39         0.0257
     12 C6        -32.5300   87.6090   15.9580 C.3       1 G39         0.1112
     13 C7        -32.5070   87.0940   17.3520 C.2       1 G39        -0.0470
     14 O7        -33.7750   88.2570   15.7440 O.3       1 G39        -0.3596
     15 C8        -34.8880   87.5320   15.1780 C.3       1 G39         0.0613
     16 C9        -36.1990   87.9270   15.8740 C.3       1 G39        -0.0292
     17 C81       -35.2810   87.7980   13.7200 C.3       1 G39        -0.0292
     18 C82       -34.1290   88.1100   12.8460 C.3       1 G39        -0.0629
     19 C91       -36.2890   87.4980   17.3180 C.3       1 G39        -0.0629
     20 N4        -29.0900   89.2650   16.1830 N.4       1 G39         0.2238
     21 H1        -29.3416   87.2527   18.0513 H         1 G39         0.0441
     22 H2        -30.1427   88.8366   18.3272 H         1 G39         0.0441
     23 H3        -29.7592   87.3087   15.7478 H         1 G39         0.0895
     24 H4        -31.7313   89.5692   16.3267 H         1 G39         0.0664
     25 H5        -31.1253   88.2082   13.7656 H         1 G39         0.1859
     26 H6        -31.5112   91.2060   11.9270 H         1 G39         0.0467
     27 H7        -32.0366   89.4911   11.8282 H         1 G39         0.0467
     28 H8        -30.3020   89.8861   12.0765 H         1 G39         0.0467
     29 H9        -32.3909   86.7836   15.2443 H         1 G39         0.0776
     30 H10       -33.4087   86.6147   17.7302 H         1 G39         0.0592
     31 H11       -34.6788   86.4599   15.3079 H         1 G39         0.0598
     32 H12       -37.0331   87.4657   15.3250 H         1 G39         0.0288
     33 H13       -36.2943   89.0221   15.8334 H         1 G39         0.0288
     34 H14       -35.9765   88.6499   13.6967 H         1 G39         0.0288
     35 H15       -35.7844   86.9028   13.3262 H         1 G39         0.0288
     36 H16       -34.4846   88.2884   11.8205 H         1 G39         0.0231
     37 H17       -33.4269   87.2632   12.8485 H         1 G39         0.0231
     38 H18       -33.6190   89.0104   13.2190 H         1 G39         0.0231
     39 H19       -37.2541   87.8195   17.7365 H         1 G39         0.0231
     40 H20       -35.4699   87.9591   17.8893 H         1 G39         0.0231
     41 H21       -36.2087   86.4027   17.3808 H         1 G39         0.0231
     42 H22       -28.2041   88.9392   16.5368 H         1 G39         0.1999
     43 H23       -29.3896   90.0672   16.7147 H         1 G39         0.1999
     44 H24       -28.9904   89.5225   15.2136 H         1 G39         0.1999
@<TRIPOS>BOND
     1    1    2 ar 
     2    1    3 ar 
     3    1    4 1  
     4    4    5 1  
     5    4   13 2  
     6    5    6 1  
     7    6    7 1  
     8    6   20 1  
     9    7    8 1  
    10    7   12 1  
    11    8    9 am 
    12    9   10 2  
    13    9   11 1  
    14   12   13 1  
    15   12   14 1  
    16   14   15 1  
    17   15   16 1  
    18   15   17 1  
    19   16   19 1  
    20   17   18 1  
    21    5   21 1  
    22    5   22 1  
    23    6   23 1  
    24    7   24 1  
    25    8   25 1  
    26   11   26 1  
    27   11   27 1  
    28   11   28 1  
    29   12   29 1  
    30   13   30 1  
    31   15   31 1  
    32   16   32 1  
    33   16   33 1  
    34   17   34 1  
    35   17   35 1  
    36   18   36 1  
    37   18   37 1  
    38   18   38 1  
    39   19   39 1  
    40   19   40 1  
    41   19   41 1  
    42   20   42 1  
    43   20   43 1  
    44   20   44 1  
@<TRIPOS>SUBSTRUCTURE
     1 G39         1

