### 
### Created by X-TOOL on Mon Sep 10 21:13:23 2018
### 

@<TRIPOS>MOLECULE
4x50_ligand
   44    46     1     0     0
SMALL
GAST_HUCK


@<TRIPOS>ATOM
      1 C4        -21.0150   -6.8340  -11.2780 C.3       1 3X8         0.1119
      2 C5        -21.4650   -5.8590  -12.3560 C.3       1 3X8         0.1134
      3 C6        -22.7030   -5.0940  -11.8750 C.3       1 3X8         0.0730
      4 C3        -19.7810   -7.5730  -11.7600 C.3       1 3X8         0.1145
      5 CAH       -21.2550   -3.5070  -19.7290 C.ar      1 3X8        -0.0567
      6 CAI       -21.7630   -3.1600  -20.9790 C.ar      1 3X8        -0.0629
      7 CAJ       -22.5030   -4.0770  -21.7170 C.ar      1 3X8        -0.0632
      8 CAK       -22.7360   -5.3460  -21.2050 C.ar      1 3X8        -0.0629
      9 CAL       -22.2250   -5.6930  -19.9590 C.ar      1 3X8        -0.0567
     10 CAG       -21.4840   -4.7780  -19.2150 C.ar      1 3X8        -0.0247
     11 CAD       -20.9820   -5.1520  -17.9650 C.ar      1 3X8        -0.0279
     12 CAC       -20.8570   -4.2340  -16.9210 C.ar      1 3X8        -0.0616
     13 CAB       -20.3580   -4.6330  -15.6790 C.ar      1 3X8        -0.0310
     14 CAE       -20.6020   -6.4720  -17.7580 C.ar      1 3X8        -0.0616
     15 CAF       -20.1040   -6.8680  -16.5260 C.ar      1 3X8        -0.0310
     16 CAA       -19.9790   -5.9600  -15.4820 C.ar      1 3X8         0.0964
     17 O1        -19.4830   -6.4460  -14.3050 O.3       1 3X8        -0.2838
     18 C1        -19.2280   -5.6120  -13.1600 C.3       1 3X8         0.2101
     19 O5        -20.4080   -4.9290  -12.6680 O.3       1 3X8        -0.3368
     20 O6        -22.3900   -4.3590  -10.6880 O.3       1 3X8        -0.3924
     21 O4        -22.0680   -7.7690  -11.0330 O.3       1 3X8        -0.3865
     22 O3        -19.3360   -8.5030  -10.7610 O.3       1 3X8        -0.3864
     23 C2        -18.6990   -6.5400  -12.0680 C.3       1 3X8         0.1386
     24 O2        -18.3780   -5.7800  -10.8930 O.3       1 3X8        -0.3837
     25 H1        -20.7815   -6.2864  -10.3530 H         1 3X8         0.0647
     26 H2        -21.7220   -6.4243  -13.2639 H         1 3X8         0.0647
     27 H3        -23.5119   -5.8076  -11.6595 H         1 3X8         0.0584
     28 H4        -23.0289   -4.3965  -12.6606 H         1 3X8         0.0584
     29 H5        -20.0235   -8.1282  -12.6781 H         1 3X8         0.0648
     30 H6        -20.6815   -2.7862  -19.1576 H         1 3X8         0.0609
     31 H7        -21.5802   -2.1691  -21.3786 H         1 3X8         0.0614
     32 H8        -22.8966   -3.8019  -22.6888 H         1 3X8         0.0605
     33 H9        -23.3145   -6.0643  -21.7746 H         1 3X8         0.0614
     34 H10       -22.4053   -6.6858  -19.5628 H         1 3X8         0.0609
     35 H11       -21.1499   -3.2018  -17.0756 H         1 3X8         0.0601
     36 H12       -20.2659   -3.9146  -14.8725 H         1 3X8         0.0548
     37 H13       -20.6950   -7.1940  -18.5612 H         1 3X8         0.0601
     38 H14       -19.8082   -7.8999  -16.3754 H         1 3X8         0.0548
     39 H15       -18.4681   -4.8605  -13.4204 H         1 3X8         0.0994
     40 H16       -23.1615   -3.8877  -10.3960 H         1 3X8         0.2095
     41 H17       -22.8393   -7.3037  -10.7314 H         1 3X8         0.2100
     42 H18       -18.5637   -8.9583  -11.0754 H         1 3X8         0.2100
     43 H19       -17.7932   -7.0520  -12.4248 H         1 3X8         0.0675
     44 H20       -18.0500   -6.3640  -10.2193 H         1 3X8         0.2101
@<TRIPOS>BOND
     1    2    1 1  
     2    1    4 1  
     3    1   21 1  
     4    2    3 1  
     5   19    2 1  
     6    3   20 1  
     7    4   22 1  
     8    4   23 1  
     9    5    6 ar 
    10   10    5 ar 
    11    6    7 ar 
    12    8    7 ar 
    13    9    8 ar 
    14   10    9 ar 
    15   11   10 1  
    16   12   11 ar 
    17   14   11 ar 
    18   13   12 ar 
    19   16   13 ar 
    20   15   14 ar 
    21   16   15 ar 
    22   17   16 1  
    23   18   17 1  
    24   18   19 1  
    25   18   23 1  
    26   23   24 1  
    27    1   25 1  
    28    2   26 1  
    29    3   27 1  
    30    3   28 1  
    31    4   29 1  
    32    5   30 1  
    33    6   31 1  
    34    7   32 1  
    35    8   33 1  
    36    9   34 1  
    37   12   35 1  
    38   13   36 1  
    39   14   37 1  
    40   15   38 1  
    41   18   39 1  
    42   20   40 1  
    43   21   41 1  
    44   22   42 1  
    45   23   43 1  
    46   24   44 1  
@<TRIPOS>SUBSTRUCTURE
     1 3X8         1

