### 
### Created by X-TOOL on Mon Sep 10 21:13:20 2018
### 

@<TRIPOS>MOLECULE
4x5p_ligand
   50    52     1     0     0
SMALL
GAST_HUCK


@<TRIPOS>ATOM
      1 O3        -15.1180   50.4970  -13.3420 O.co2     1 3XJ        -0.5596
      2 C4         -6.7080   46.7120  -11.1040 C.ar      1 3XJ        -0.0351
      3 C5         -5.4240   46.4830  -10.6460 C.ar      1 3XJ         0.0556
      4 O4         -2.7290   49.0840   -9.0670 O.3       1 3XJ        -0.3372
      5 C6         -9.4770   47.4900  -12.1610 C.2       1 3XJ         0.2310
      6 C7        -10.7380   48.1140  -12.6070 C.ar      1 3XJ         0.0577
      7 C8        -11.4350   47.4510  -13.6330 C.ar      1 3XJ        -0.0383
      8 C9        -12.6870   47.8930  -14.0330 C.ar      1 3XJ        -0.0423
      9 O5         -2.1810   47.2590   -5.9550 O.3       1 3XJ        -0.3865
     10 C10       -13.2550   48.9940  -13.4240 C.ar      1 3XJ         0.0142
     11 O6         -0.0900   46.2640   -7.5790 O.3       1 3XJ        -0.3864
     12 C11       -12.5570   49.6660  -12.4060 C.ar      1 3XJ        -0.0423
     13 C12       -11.2970   49.2380  -12.0070 C.ar      1 3XJ        -0.0383
     14 C13       -14.6370   49.4830  -13.8970 C.2       1 3XJ         0.0654
     15 O7         -0.0020   48.3960   -9.4240 O.3       1 3XJ        -0.3837
     16 C14        -2.2840   48.1090   -9.9560 C.3       1 3XJ         0.2068
     17 O8         -2.6560   50.7080   -6.8170 O.3       1 3XJ        -0.3924
     18 C15        -3.0610   48.5350   -7.7870 C.3       1 3XJ         0.1133
     19 O2        -15.1770   48.8320  -14.8210 O.co2     1 3XJ        -0.5596
     20 O1         -9.3900   46.3470  -11.9760 O.2       1 3XJ        -0.3736
     21 N          -8.3500   48.2980  -12.0300 N.am      1 3XJ        -0.2390
     22 C3         -7.0420   47.9790  -11.6170 C.ar      1 3XJ         0.0560
     23 C2         -6.0730   48.9560  -11.6470 C.ar      1 3XJ        -0.0487
     24 C1         -4.8130   48.7120  -11.1860 C.ar      1 3XJ        -0.0448
     25 CL         -5.0090   44.9220  -10.0830 Cl        1 3XJ        -0.0824
     26 C          -4.4700   47.4700  -10.6730 C.ar      1 3XJ         0.0937
     27 O          -3.2130   47.1260  -10.2170 O.3       1 3XJ        -0.2941
     28 C18        -1.0440   47.4500   -9.4520 C.3       1 3XJ         0.1381
     29 C17        -1.2390   46.8460   -8.1130 C.3       1 3XJ         0.1144
     30 C16        -1.8690   47.8320   -7.1810 C.3       1 3XJ         0.1119
     31 C19        -3.6190   49.6710   -6.9640 C.3       1 3XJ         0.0730
     32 H1         -7.4505   45.9230  -11.0683 H         1 3XJ         0.0484
     33 H2        -10.9901   46.5879  -14.1148 H         1 3XJ         0.0675
     34 H3        -13.2189   47.3748  -14.8227 H         1 3XJ         0.0661
     35 H4         -2.4674   47.9365   -5.3538 H         1 3XJ         0.2100
     36 H5          0.2116   45.5730   -8.1571 H         1 3XJ         0.2100
     37 H6        -13.0068   50.5280  -11.9267 H         1 3XJ         0.0661
     38 H7        -10.7551   49.7741  -11.2363 H         1 3XJ         0.0675
     39 H8          0.7911   47.9825   -9.1038 H         1 3XJ         0.2101
     40 H9         -2.0497   48.6135  -10.9050 H         1 3XJ         0.0988
     41 H10        -3.0266   51.4114   -6.2971 H         1 3XJ         0.2095
     42 H11        -3.8540   47.7835   -7.9146 H         1 3XJ         0.0647
     43 H12        -8.4926   49.2589  -12.2673 H         1 3XJ         0.2217
     44 H13        -6.3153   49.9353  -12.0435 H         1 3XJ         0.0482
     45 H14        -4.0692   49.4998  -11.2210 H         1 3XJ         0.0507
     46 H15        -0.7702   46.6461  -10.1512 H         1 3XJ         0.0675
     47 H16        -1.9618   46.0271   -8.2433 H         1 3XJ         0.0648
     48 H17        -1.1127   48.6067   -6.9866 H         1 3XJ         0.0647
     49 H18        -4.5109   50.0753   -7.4650 H         1 3XJ         0.0584
     50 H19        -3.8970   49.2931   -5.9691 H         1 3XJ         0.0584
@<TRIPOS>BOND
     1   14    1 ar 
     2    3    2 ar 
     3    2   22 ar 
     4    3   25 1  
     5   26    3 ar 
     6   16    4 1  
     7    4   18 1  
     8    5    6 1  
     9    5   20 2  
    10   21    5 am 
    11    6    7 ar 
    12    6   13 ar 
    13    7    8 ar 
    14    8   10 ar 
    15   30    9 1  
    16   12   10 ar 
    17   10   14 1  
    18   29   11 1  
    19   13   12 ar 
    20   14   19 ar 
    21   28   15 1  
    22   16   27 1  
    23   28   16 1  
    24   31   17 1  
    25   18   30 1  
    26   18   31 1  
    27   22   21 1  
    28   23   22 ar 
    29   24   23 ar 
    30   26   24 ar 
    31   27   26 1  
    32   28   29 1  
    33   29   30 1  
    34    2   32 1  
    35    7   33 1  
    36    8   34 1  
    37    9   35 1  
    38   11   36 1  
    39   12   37 1  
    40   13   38 1  
    41   15   39 1  
    42   16   40 1  
    43   17   41 1  
    44   18   42 1  
    45   21   43 1  
    46   23   44 1  
    47   24   45 1  
    48   28   46 1  
    49   29   47 1  
    50   30   48 1  
    51   31   49 1  
    52   31   50 1  
@<TRIPOS>SUBSTRUCTURE
     1 3XJ         1

