### 
### Created by X-TOOL on Mon Sep 10 21:13:21 2018
### 

@<TRIPOS>MOLECULE
4x5r_ligand
   60    63     1     0     0
SMALL
GAST_HUCK


@<TRIPOS>ATOM
      1 O3         11.7080   14.0570  -14.9790 O.3       1 3XO        -0.3371
      2 C4          9.7170   18.4140  -16.1470 C.ar      1 3XO        -0.0341
      3 C5          9.3980   17.1920  -15.5730 C.ar      1 3XO         0.0583
      4 O4         11.1630   13.9260  -11.3500 O.3       1 3XO        -0.3865
      5 C6         10.4530   20.8560  -17.7390 C.2       1 3XO         0.1560
      6 N1         11.7140   22.5450  -19.2510 N.pl3     1 3XO        -0.2940
      7 C7         10.7900   22.0870  -18.3770 C.2       1 3XO         0.1462
      8 C8          9.6950   22.8070  -17.6730 C.2       1 3XO         0.2259
      9 N2         14.1550   23.8070  -19.9970 N.4       1 3XO         0.2359
     10 C9          9.3220   21.4820  -16.9940 C.2       1 3XO         0.2267
     11 O5          9.2670   12.0520  -12.2640 O.3       1 3XO        -0.3864
     12 C10        12.8400   21.7490  -19.8080 C.3       1 3XO         0.0665
     13 O6         10.5300   11.4200  -14.7460 O.3       1 3XO        -0.3837
     14 C11        14.1560   22.4320  -19.5130 C.3       1 3XO        -0.0119
     15 C12        13.0430   24.5410  -19.3930 C.3       1 3XO        -0.0119
     16 C13        11.7180   23.9140  -19.7680 C.3       1 3XO         0.0665
     17 O7         14.0330   13.6380  -13.4710 O.3       1 3XO        -0.3924
     18 C14        15.4690   24.4870  -19.6750 C.3       1 3XO        -0.0430
     19 C15        10.4130   13.7300  -15.4390 C.3       1 3XO         0.2074
     20 O2          8.4910   21.1830  -16.2180 O.2       1 3XO        -0.3670
     21 O1          9.3210   23.9240  -17.6500 O.2       1 3XO        -0.3653
     22 N          11.0350   19.6070  -17.8250 N.pl3     1 3XO        -0.2788
     23 C3         10.6680   18.4410  -17.1610 C.ar      1 3XO         0.0471
     24 C2         11.2820   17.2490  -17.5960 C.ar      1 3XO        -0.0478
     25 C1         10.9200   16.0290  -16.9910 C.ar      1 3XO        -0.0421
     26 CL          8.2250   17.1580  -14.3290 Cl        1 3XO        -0.0817
     27 C           9.9710   16.0190  -15.9710 C.ar      1 3XO         0.0965
     28 O           9.5640   14.8510  -15.3610 O.3       1 3XO        -0.2923
     29 C19         9.7900   12.6380  -14.5780 C.3       1 3XO         0.1382
     30 C18         9.7760   13.0750  -13.1150 C.3       1 3XO         0.1144
     31 C17        11.1840   13.4360  -12.6840 C.3       1 3XO         0.1119
     32 C16        11.7660   14.4990  -13.6080 C.3       1 3XO         0.1133
     33 C20        13.2160   14.7910  -13.2910 C.3       1 3XO         0.0730
     34 H1          9.2362   19.3263  -15.8129 H         1 3XO         0.0508
     35 H2         12.0463   14.1513  -11.0827 H         1 3XO         0.2100
     36 H3         14.0336   23.7983  -20.9976 H         1 3XO         0.2032
     37 H4          8.3774   11.8406  -12.5219 H         1 3XO         0.2100
     38 H5         12.7152   21.6549  -20.8968 H         1 3XO         0.0569
     39 H6         12.8391   20.7485  -19.3510 H         1 3XO         0.0569
     40 H7         10.1422   10.7386  -14.2095 H         1 3XO         0.2101
     41 H8         14.3236   22.4341  -18.4259 H         1 3XO         0.0834
     42 H9         14.9670   21.8777  -20.0080 H         1 3XO         0.0834
     43 H10        13.0627   25.5818  -19.7483 H         1 3XO         0.0834
     44 H11        13.1525   24.5250  -18.2986 H         1 3XO         0.0834
     45 H12        10.8922   24.4864  -19.3203 H         1 3XO         0.0569
     46 H13        11.6051   23.9021  -20.8621 H         1 3XO         0.0569
     47 H14        14.9346   13.8547  -13.2643 H         1 3XO         0.2095
     48 H15        16.2951   23.9249  -20.1350 H         1 3XO         0.0778
     49 H16        15.6087   24.5172  -18.5843 H         1 3XO         0.0778
     50 H17        15.4579   25.5129  -20.0718 H         1 3XO         0.0778
     51 H18        10.4799   13.3862  -16.4817 H         1 3XO         0.0989
     52 H19        11.8419   19.5287  -18.4603 H         1 3XO         0.2046
     53 H20        12.0236   17.2706  -18.3863 H         1 3XO         0.0505
     54 H21        11.3778   15.1023  -17.3177 H         1 3XO         0.0514
     55 H22         8.7533   12.4707  -14.9056 H         1 3XO         0.0675
     56 H23         9.1329   13.9623  -13.0200 H         1 3XO         0.0648
     57 H24        11.8151   12.5362  -12.7294 H         1 3XO         0.0647
     58 H25        11.1784   15.4219  -13.4944 H         1 3XO         0.0647
     59 H26        13.5735   15.5898  -13.9574 H         1 3XO         0.0584
     60 H27        13.2931   15.1238  -12.2454 H         1 3XO         0.0584
@<TRIPOS>BOND
     1    1   19 1  
     2   32    1 1  
     3    3    2 ar 
     4    2   23 ar 
     5    3   26 1  
     6   27    3 ar 
     7   31    4 1  
     8    5    7 2  
     9    5   10 1  
    10   22    5 1  
    11    7    6 1  
    12    6   12 1  
    13    6   16 1  
    14    7    8 1  
    15   10    8 1  
    16    8   21 2  
    17   14    9 1  
    18   15    9 1  
    19    9   18 1  
    20   10   20 2  
    21   30   11 1  
    22   12   14 1  
    23   29   13 1  
    24   16   15 1  
    25   33   17 1  
    26   19   28 1  
    27   19   29 1  
    28   23   22 1  
    29   24   23 ar 
    30   25   24 ar 
    31   27   25 ar 
    32   28   27 1  
    33   30   29 1  
    34   31   30 1  
    35   32   31 1  
    36   32   33 1  
    37    2   34 1  
    38    4   35 1  
    39    9   36 1  
    40   11   37 1  
    41   12   38 1  
    42   12   39 1  
    43   13   40 1  
    44   14   41 1  
    45   14   42 1  
    46   15   43 1  
    47   15   44 1  
    48   16   45 1  
    49   16   46 1  
    50   17   47 1  
    51   18   48 1  
    52   18   49 1  
    53   18   50 1  
    54   19   51 1  
    55   22   52 1  
    56   24   53 1  
    57   25   54 1  
    58   29   55 1  
    59   30   56 1  
    60   31   57 1  
    61   32   58 1  
    62   33   59 1  
    63   33   60 1  
@<TRIPOS>SUBSTRUCTURE
     1 3XO         1

