### 
### Created by X-TOOL on Mon Sep 10 21:13:23 2018
### 

@<TRIPOS>MOLECULE
4x5y_ligand
   68    73     1     0     0
SMALL
GAST_HUCK


@<TRIPOS>ATOM
      1 C4         13.2190    7.6460   12.4760 C.ar      1 3XW         0.1043
      2 C5         13.4720    8.9790   12.3900 C.ar      1 3XW         0.0333
      3 C6         12.4540    9.8010   12.0100 C.ar      1 3XW         0.1217
      4 N1         11.2420    9.3100   11.7230 N.ar      1 3XW        -0.2688
      5 N3         12.0340    7.1030   12.1770 N.ar      1 3XW        -0.2823
      6 FAC        17.5890    8.5180   11.1750 F         1 3XW        -0.1681
      7 CBN        17.8130    7.6790   12.1810 C.3       1 3XW         0.4027
      8 FAD        19.0970    7.7260   12.5190 F         1 3XW        -0.1681
      9 FAE        17.4990    6.4430   11.8050 F         1 3XW        -0.1681
     10 CAT        16.9210    8.0960   13.4280 C.3       1 3XW         0.0918
     11 CBD        15.4590    8.1370   13.0410 C.2       1 3XW         0.0295
     12 SAZ        14.5400    6.8880   12.9860 S.3       1 3XW        -0.0086
     13 CAM        14.7740    9.2300   12.7230 C.2       1 3XW        -0.0561
     14 C2         10.9850    7.9420   11.8160 C.ar      1 3XW         0.0546
     15 NAX        12.6560   11.1390   11.9230 N.pl3     1 3XW        -0.2990
     16 CBK        11.6210   12.1460   11.5470 C.3       1 3XW         0.0502
     17 CAO        11.6900   13.3280   12.5000 C.3       1 3XW         0.0110
     18 CAQ        10.7090   14.4040   12.1390 C.3       1 3XW        -0.0286
     19 CAN        11.8540   12.7020   10.1390 C.3       1 3XW         0.0110
     20 CAP        10.9590   13.9440    9.8710 C.3       1 3XW        -0.0286
     21 NBL        11.1160   15.0030   10.8720 N.4       1 3XW         0.2447
     22 CAR        10.1480   16.0890   10.5420 C.3       1 3XW        -0.0057
     23 CBE        10.1930   17.2910   11.3010 C.ar      1 3XW        -0.0077
     24 CBB         9.0460   17.7770   11.9370 C.ar      1 3XW        -0.0411
     25 CAA         7.8640   17.0530   11.8410 C.3       1 3XW        -0.0352
     26 CAH        11.3470   18.0550   11.4110 C.ar      1 3XW        -0.0701
     27 CAI        11.2980   19.2330   12.1590 C.ar      1 3XW        -0.0483
     28 CBJ        10.1750   19.6460   12.7550 C.ar      1 3XW         0.0660
     29 CBG         9.0540   18.9260   12.6460 C.ar      1 3XW        -0.0063
     30 CAL         8.0990   19.5780   13.3400 C.2       1 3XW        -0.0213
     31 CBC         8.6400   20.6890   13.8580 C.2       1 3XW         0.1748
     32 CAF         8.0330   21.6320   14.6380 C.1       1 3XW         0.1078
     33 NAB         7.6000   22.3580   15.2280 N.1       1 3XW        -0.3454
     34 NBM         9.9010   20.7310   13.4940 N.pl3     1 3XW        -0.2429
     35 CAS        10.7870   21.7980   13.9170 C.3       1 3XW         0.0706
     36 CBA        10.8980   22.9770   12.9640 C.2       1 3XW        -0.0049
     37 CAJ         9.9660   23.8200   12.5960 C.2       1 3XW        -0.0010
     38 NAU        10.6140   24.6300   11.7650 N.2       1 3XW        -0.2254
     39 NAY        11.7590   24.3490   11.6290 N.pl3     1 3XW        -0.2295
     40 CAK        12.0360   23.2880   12.3700 C.2       1 3XW         0.0455
     41 H1         17.2310    9.0914   13.7786 H         1 3XW         0.0558
     42 H2         17.0616    7.3625   14.2356 H         1 3XW         0.0558
     43 H3         15.2076   10.2290   12.7272 H         1 3XW         0.0290
     44 H4          9.9971    7.5447   11.6129 H         1 3XW         0.0981
     45 H5         13.6015   11.4890   12.1338 H         1 3XW         0.1854
     46 H6         10.6276   11.6766   11.5991 H         1 3XW         0.0564
     47 H7         12.7056   13.7495   12.4690 H         1 3XW         0.0340
     48 H8         11.4703   12.9754   13.5185 H         1 3XW         0.0340
     49 H9         10.6975   15.1733   12.9252 H         1 3XW         0.0815
     50 H10         9.7038   13.9692   12.0367 H         1 3XW         0.0815
     51 H11        11.6157   11.9219    9.4010 H         1 3XW         0.0340
     52 H12        12.9102   12.9921   10.0378 H         1 3XW         0.0340
     53 H13         9.9074   13.6214    9.8671 H         1 3XW         0.0815
     54 H14        11.2200   14.3553    8.8848 H         1 3XW         0.0815
     55 H15        12.0614   15.3509   10.9073 H         1 3XW         0.2044
     56 H16         9.1376   15.6697   10.6573 H         1 3XW         0.0940
     57 H17        10.3135   16.3630    9.4896 H         1 3XW         0.0940
     58 H18         8.0341   16.1524   11.2327 H         1 3XW         0.0380
     59 H19         7.0905   17.6750   11.3669 H         1 3XW         0.0380
     60 H20         7.5317   16.7584   12.8473 H         1 3XW         0.0380
     61 H21        12.2657   17.7439   10.9269 H         1 3XW         0.0517
     62 H22        12.1971   19.8302   12.2594 H         1 3XW         0.0479
     63 H23         7.0653   19.2566   13.4590 H         1 3XW         0.0531
     64 H24        11.7927   21.3715   14.0460 H         1 3XW         0.0683
     65 H25        10.4228   22.1772   14.8832 H         1 3XW         0.0683
     66 H26         8.9196   23.8500   12.8963 H         1 3XW         0.0627
     67 H27        12.4300   24.8508   11.0299 H         1 3XW         0.2534
     68 H28        12.9948   22.7811   12.4686 H         1 3XW         0.0871
@<TRIPOS>BOND
     1    1    2 ar 
     2    1    5 ar 
     3   12    1 1  
     4    2    3 ar 
     5    2   13 1  
     6    3    4 ar 
     7    3   15 1  
     8   14    4 ar 
     9    5   14 ar 
    10    7    6 1  
    11    7    8 1  
    12    7    9 1  
    13   10    7 1  
    14   11   10 1  
    15   11   12 1  
    16   11   13 2  
    17   15   16 1  
    18   16   17 1  
    19   16   19 1  
    20   17   18 1  
    21   18   21 1  
    22   19   20 1  
    23   20   21 1  
    24   21   22 1  
    25   22   23 1  
    26   23   24 ar 
    27   23   26 ar 
    28   24   25 1  
    29   24   29 ar 
    30   26   27 ar 
    31   27   28 ar 
    32   28   29 ar 
    33   28   34 1  
    34   29   30 1  
    35   30   31 2  
    36   31   32 1  
    37   31   34 1  
    38   32   33 3  
    39   34   35 1  
    40   35   36 1  
    41   36   37 1  
    42   36   40 2  
    43   37   38 2  
    44   38   39 1  
    45   39   40 1  
    46   10   41 1  
    47   10   42 1  
    48   13   43 1  
    49   14   44 1  
    50   15   45 1  
    51   16   46 1  
    52   17   47 1  
    53   17   48 1  
    54   18   49 1  
    55   18   50 1  
    56   19   51 1  
    57   19   52 1  
    58   20   53 1  
    59   20   54 1  
    60   21   55 1  
    61   22   56 1  
    62   22   57 1  
    63   25   58 1  
    64   25   59 1  
    65   25   60 1  
    66   26   61 1  
    67   27   62 1  
    68   30   63 1  
    69   35   64 1  
    70   35   65 1  
    71   37   66 1  
    72   39   67 1  
    73   40   68 1  
@<TRIPOS>SUBSTRUCTURE
     1 3XW         1

