### 
### Created by X-TOOL on Mon Sep 10 21:13:21 2018
### 

@<TRIPOS>MOLECULE
4x5z_ligand
   55    59     1     0     0
SMALL
GAST_HUCK


@<TRIPOS>ATOM
      1 C4         13.3920    7.6750   12.5580 C.ar      1 3XY         0.1043
      2 C5         13.6900    9.0090   12.4220 C.ar      1 3XY         0.0333
      3 C6         12.6510    9.8680   12.0750 C.ar      1 3XY         0.1217
      4 N1         11.4010    9.3710   11.8030 N.ar      1 3XY        -0.2688
      5 N3         12.1490    7.1610   12.3300 N.ar      1 3XY        -0.2823
      6 FAB        19.3380    7.7060   12.4580 F         1 3XY        -0.1681
      7 CBG        18.0450    7.6850   12.1910 C.3       1 3XY         0.4027
      8 FAC        17.6970    6.4220   11.9290 F         1 3XY        -0.1681
      9 FAD        17.8250    8.4170   11.1280 F         1 3XY        -0.1681
     10 CAQ        17.2250    8.2030   13.3700 C.3       1 3XY         0.0918
     11 CAY        15.7470    8.1620   13.0270 C.2       1 3XY         0.0295
     12 SAV        14.7870    6.7710   13.0740 S.3       1 3XY        -0.0086
     13 CAK        14.9990    9.2640   12.6950 C.2       1 3XY        -0.0561
     14 C2         11.1230    8.0260   11.9830 C.ar      1 3XY         0.0546
     15 NAT        12.8460   11.2070   11.9200 N.pl3     1 3XY        -0.2990
     16 CBE        11.7160   12.1020   11.5450 C.3       1 3XY         0.0502
     17 CAM        11.8090   13.2800   12.4990 C.3       1 3XY         0.0110
     18 CAO        10.7610   14.3580   12.1790 C.3       1 3XY        -0.0285
     19 CAL        11.8250   12.5260   10.0590 C.3       1 3XY         0.0110
     20 CAN        10.9310   13.7230    9.7930 C.3       1 3XY        -0.0285
     21 NBF        11.0470   14.8480   10.7980 N.4       1 3XY         0.2460
     22 CAP        10.0690   15.9070   10.3810 C.3       1 3XY        -0.0028
     23 CAW        10.1530   17.1260   11.2060 C.ar      1 3XY        -0.0096
     24 CAI         9.0200   17.6660   11.8620 C.ar      1 3XY        -0.0609
     25 CBA         9.1070   18.8340   12.5680 C.ar      1 3XY        -0.0120
     26 CAJ         8.1800   19.5280   13.2890 C.2       1 3XY        -0.0198
     27 CAX         8.8070   20.5950   13.8180 C.2       1 3XY         0.1742
     28 CAE         8.3300   21.6400   14.6320 C.1       1 3XY         0.1112
     29 NAA         7.9230   22.4520   15.2800 N.1       1 3XY        -0.3423
     30 NAU        10.0680   20.5720   13.4840 N.pl3     1 3XY        -0.2600
     31 CBB        10.2640   19.4930   12.7050 C.ar      1 3XY         0.0681
     32 CAH        11.3990   19.0250   12.1030 C.ar      1 3XY        -0.0405
     33 CAG        11.3610   17.8670   11.3190 C.ar      1 3XY        -0.0622
     34 H1         17.5195    9.2393   13.5922 H         1 3XY         0.0558
     35 H2         17.4129    7.5715   14.2508 H         1 3XY         0.0558
     36 H3         15.4211   10.2670   12.6531 H         1 3XY         0.0290
     37 H4         10.1132    7.6536   11.8538 H         1 3XY         0.0981
     38 H5         13.7851   11.6050   12.0637 H         1 3XY         0.1854
     39 H6         10.7578   11.5820   11.6916 H         1 3XY         0.0564
     40 H7         12.8122   13.7241   12.4196 H         1 3XY         0.0340
     41 H8         11.6475   12.9202   13.5258 H         1 3XY         0.0340
     42 H9         10.8399   15.1869   12.8978 H         1 3XY         0.0815
     43 H10         9.7498   13.9275   12.2252 H         1 3XY         0.0815
     44 H11        11.5127   11.6887    9.4176 H         1 3XY         0.0340
     45 H12        12.8677   12.7928    9.8320 H         1 3XY         0.0340
     46 H13         9.8875   13.3749    9.7905 H         1 3XY         0.0815
     47 H14        11.1859   14.1248    8.8012 H         1 3XY         0.0815
     48 H15        11.9813   15.2258   10.7760 H         1 3XY         0.2046
     49 H16         9.0517   15.4970   10.4642 H         1 3XY         0.0960
     50 H17        10.2707   16.1778    9.3341 H         1 3XY         0.0960
     51 H18         8.0705   17.1462   11.8037 H         1 3XY         0.0505
     52 H19         7.1299   19.2676   13.4132 H         1 3XY         0.0528
     53 H20        10.7842   21.2565   13.7659 H         1 3XY         0.2252
     54 H21        12.3353   19.5553   12.2342 H         1 3XY         0.0548
     55 H22        12.2518   17.5350   10.7981 H         1 3XY         0.0537
@<TRIPOS>BOND
     1    1    2 ar 
     2    1    5 ar 
     3   12    1 1  
     4    2    3 ar 
     5    2   13 1  
     6    3    4 ar 
     7    3   15 1  
     8   14    4 ar 
     9    5   14 ar 
    10    7    6 1  
    11    7    8 1  
    12    7    9 1  
    13   10    7 1  
    14   11   10 1  
    15   11   12 1  
    16   11   13 2  
    17   15   16 1  
    18   16   17 1  
    19   16   19 1  
    20   17   18 1  
    21   18   21 1  
    22   19   20 1  
    23   20   21 1  
    24   21   22 1  
    25   22   23 1  
    26   23   24 ar 
    27   23   33 ar 
    28   24   25 ar 
    29   25   26 1  
    30   25   31 ar 
    31   26   27 2  
    32   27   28 1  
    33   27   30 1  
    34   28   29 3  
    35   30   31 1  
    36   31   32 ar 
    37   32   33 ar 
    38   10   34 1  
    39   10   35 1  
    40   13   36 1  
    41   14   37 1  
    42   15   38 1  
    43   16   39 1  
    44   17   40 1  
    45   17   41 1  
    46   18   42 1  
    47   18   43 1  
    48   19   44 1  
    49   19   45 1  
    50   20   46 1  
    51   20   47 1  
    52   21   48 1  
    53   22   49 1  
    54   22   50 1  
    55   24   51 1  
    56   26   52 1  
    57   30   53 1  
    58   32   54 1  
    59   33   55 1  
@<TRIPOS>SUBSTRUCTURE
     1 3XY         1

