### 
### Created by X-TOOL on Mon Sep 10 21:13:24 2018
### 

@<TRIPOS>MOLECULE
4x60_ligand
   54    57     1     0     0
SMALL
GAST_HUCK


@<TRIPOS>ATOM
      1 C2         22.6980  -51.8800   -9.5380 C.ar      1 3XV         0.0770
      2 C4         21.9690  -50.2190  -11.0960 C.ar      1 3XV         0.1250
      3 C5         23.2550  -50.1780  -11.6640 C.ar      1 3XV         0.0277
      4 C6         24.2580  -51.0130  -11.1410 C.ar      1 3XV         0.1354
      5 CAT        22.6940  -44.5410  -10.6490 C.3       1 3XV        -0.0219
      6 CAU        23.1820  -43.2140  -10.1550 C.3       1 3XV         0.0190
      7 CAV        23.0950  -43.1370   -8.7550 C.ar      1 3XV        -0.0309
      8 CBB        23.8720  -42.1720   -8.0960 C.ar      1 3XV        -0.0665
      9 CBA        23.8280  -42.0550   -6.7060 C.ar      1 3XV        -0.0755
     10 CAZ        23.0060  -42.8920   -5.9570 C.ar      1 3XV        -0.0753
     11 CAY        22.2240  -43.8490   -6.5960 C.ar      1 3XV        -0.0618
     12 CAW        22.2590  -43.9850   -7.9940 C.ar      1 3XV         0.0035
     13 CAX        21.4540  -44.9730   -8.5730 C.3       1 3XV        -0.0001
     14 NAS        21.3950  -44.8900  -10.0420 N.4       1 3XV         0.2494
     15 CAR        21.0110  -46.2030  -10.5670 C.3       1 3XV        -0.0019
     16 CAB        19.5250  -46.4890  -10.3170 C.3       1 3XV         0.1147
     17 OAA        18.7520  -45.4130  -10.8630 O.3       1 3XV        -0.3845
     18 CAC        19.1220  -47.8450  -10.9480 C.3       1 3XV         0.0618
     19 NAD        20.1710  -48.8260  -10.6350 N.am      1 3XV        -0.2801
     20 CAE        20.9510  -49.3820  -11.5840 C.2       1 3XV         0.2287
     21 OAF        20.8130  -49.1640  -12.7950 O.2       1 3XV        -0.3744
     22 N3         21.7090  -51.0450  -10.0550 N.ar      1 3XV        -0.2632
     23 N1         23.9760  -51.8390  -10.1050 N.ar      1 3XV        -0.2469
     24 NAJ        25.5030  -51.0060  -11.6550 N.pl3     1 3XV        -0.2922
     25 CAK        26.6070  -51.7870  -11.0510 C.3       1 3XV         0.0870
     26 CAL        27.2710  -51.0390   -9.9030 C.3       1 3XV         0.0730
     27 OAM        28.5570  -51.3460  -10.5250 O.3       1 3XV        -0.3750
     28 CAN        27.9090  -51.5750  -11.8110 C.3       1 3XV         0.0730
     29 H1         22.4810  -52.5482   -8.7125 H         1 3XV         0.1094
     30 H2         23.4696  -49.5127  -12.4925 H         1 3XV         0.0732
     31 H3         23.4314  -45.3145  -10.3884 H         1 3XV         0.0837
     32 H4         22.5793  -44.4972  -11.7421 H         1 3XV         0.0837
     33 H5         22.5675  -42.4166  -10.5983 H         1 3XV         0.0463
     34 H6         24.2308  -43.0803  -10.4584 H         1 3XV         0.0463
     35 H7         24.5115  -41.5122   -8.6712 H         1 3XV         0.0537
     36 H8         24.4366  -41.3091   -6.2076 H         1 3XV         0.0541
     37 H9         22.9751  -42.7984   -4.8775 H         1 3XV         0.0541
     38 H10        21.5815  -44.4959   -6.0097 H         1 3XV         0.0539
     39 H11        20.4334  -44.8685   -8.1763 H         1 3XV         0.0965
     40 H12        21.8564  -45.9583   -8.2950 H         1 3XV         0.0965
     41 H13        20.7099  -44.1984  -10.3037 H         1 3XV         0.2049
     42 H14        21.6136  -46.9779  -10.0706 H         1 3XV         0.0841
     43 H15        21.2034  -46.2264  -11.6498 H         1 3XV         0.0841
     44 H16        19.3469  -46.5410   -9.2328 H         1 3XV         0.0667
     45 H17        17.8289  -45.5801  -10.7135 H         1 3XV         0.2101
     46 H18        19.0281  -47.7352  -12.0385 H         1 3XV         0.0547
     47 H19        18.1617  -48.1801  -10.5291 H         1 3XV         0.0547
     48 H20        20.3116  -49.0913   -9.6812 H         1 3XV         0.1851
     49 H21        25.6932  -50.4399  -12.4942 H         1 3XV         0.1851
     50 H22        26.3110  -52.8281  -10.8549 H         1 3XV         0.0605
     51 H23        27.1211  -51.4936   -8.9126 H         1 3XV         0.0584
     52 H24        27.0300  -49.9668   -9.8547 H         1 3XV         0.0584
     53 H25        27.9092  -50.7055  -12.4847 H         1 3XV         0.0584
     54 H26        28.2709  -52.4602  -12.3545 H         1 3XV         0.0584
@<TRIPOS>BOND
     1   22    1 ar 
     2    1   23 ar 
     3    2    3 ar 
     4   20    2 1  
     5    2   22 ar 
     6    3    4 ar 
     7    4   23 ar 
     8    4   24 1  
     9    5    6 1  
    10   14    5 1  
    11    6    7 1  
    12    7    8 ar 
    13   12    7 ar 
    14    8    9 ar 
    15   10    9 ar 
    16   11   10 ar 
    17   12   11 ar 
    18   13   12 1  
    19   14   13 1  
    20   15   14 1  
    21   16   15 1  
    22   16   17 1  
    23   18   16 1  
    24   19   18 1  
    25   19   20 am 
    26   20   21 2  
    27   24   25 1  
    28   25   26 1  
    29   25   28 1  
    30   26   27 1  
    31   27   28 1  
    32    1   29 1  
    33    3   30 1  
    34    5   31 1  
    35    5   32 1  
    36    6   33 1  
    37    6   34 1  
    38    8   35 1  
    39    9   36 1  
    40   10   37 1  
    41   11   38 1  
    42   13   39 1  
    43   13   40 1  
    44   14   41 1  
    45   15   42 1  
    46   15   43 1  
    47   16   44 1  
    48   17   45 1  
    49   18   46 1  
    50   18   47 1  
    51   19   48 1  
    52   24   49 1  
    53   25   50 1  
    54   26   51 1  
    55   26   52 1  
    56   28   53 1  
    57   28   54 1  
@<TRIPOS>SUBSTRUCTURE
     1 3XV         1

