### 
### Created by X-TOOL on Mon Sep 10 21:13:24 2018
### 

@<TRIPOS>MOLECULE
4x61_ligand
   54    57     1     0     0
SMALL
GAST_HUCK


@<TRIPOS>ATOM
      1 C2         22.6510  -51.8580   -9.4550 C.ar      1 3XV         0.0770
      2 C4         21.9380  -50.2840  -11.0900 C.ar      1 3XV         0.1250
      3 C5         23.2330  -50.2620  -11.6190 C.ar      1 3XV         0.0277
      4 C6         24.2320  -51.0540  -11.0560 C.ar      1 3XV         0.1354
      5 CAT        22.7520  -44.4700  -10.7190 C.3       1 3XV        -0.0219
      6 CAU        23.3010  -43.1850  -10.1290 C.3       1 3XV         0.0190
      7 CAV        23.1310  -43.1450   -8.7430 C.ar      1 3XV        -0.0309
      8 CBB        23.8130  -42.1520   -8.0340 C.ar      1 3XV        -0.0665
      9 CBA        23.6900  -42.0550   -6.6490 C.ar      1 3XV        -0.0755
     10 CAZ        22.8750  -42.9580   -5.9650 C.ar      1 3XV        -0.0753
     11 CAY        22.1870  -43.9530   -6.6600 C.ar      1 3XV        -0.0618
     12 CAW        22.3060  -44.0540   -8.0490 C.ar      1 3XV         0.0035
     13 CAX        21.5990  -45.0730   -8.6970 C.3       1 3XV        -0.0001
     14 NAS        21.4480  -44.8130  -10.1400 N.4       1 3XV         0.2494
     15 CAR        20.9930  -46.0270  -10.8270 C.3       1 3XV        -0.0019
     16 CAB        19.5560  -46.4180  -10.4680 C.3       1 3XV         0.1147
     17 OAA        18.6720  -45.4030  -10.9380 O.3       1 3XV        -0.3845
     18 CAC        19.2150  -47.7730  -11.1070 C.3       1 3XV         0.0618
     19 NAD        20.2740  -48.7360  -10.7550 N.am      1 3XV        -0.2801
     20 CAE        20.9420  -49.4860  -11.6490 C.2       1 3XV         0.2287
     21 OAF        20.7280  -49.4880  -12.8610 O.2       1 3XV        -0.3744
     22 N3         21.6520  -51.0610  -10.0300 N.ar      1 3XV        -0.2632
     23 N1         23.9480  -51.8310   -9.9940 N.ar      1 3XV        -0.2469
     24 NAJ        25.4660  -51.0300  -11.5680 N.pl3     1 3XV        -0.2922
     25 CAK        26.5470  -51.9240  -11.1060 C.3       1 3XV         0.0870
     26 CAL        27.3110  -51.2860   -9.9700 C.3       1 3XV         0.0730
     27 OAM        28.4490  -51.1120  -10.8430 O.3       1 3XV        -0.3750
     28 CAN        27.7670  -51.7200  -11.9640 C.3       1 3XV         0.0730
     29 H1         22.4252  -52.4889   -8.6029 H         1 3XV         0.1094
     30 H2         23.4598  -49.6278  -12.4683 H         1 3XV         0.0732
     31 H3         23.4594  -45.2875  -10.5160 H         1 3XV         0.0837
     32 H4         22.6387  -44.3446  -11.8059 H         1 3XV         0.0837
     33 H5         22.7733  -42.3310  -10.5787 H         1 3XV         0.0463
     34 H6         24.3743  -43.1156  -10.3597 H         1 3XV         0.0463
     35 H7         24.4441  -41.4500   -8.5669 H         1 3XV         0.0537
     36 H8         24.2240  -41.2831   -6.1067 H         1 3XV         0.0541
     37 H9         22.7760  -42.8859   -4.8879 H         1 3XV         0.0541
     38 H10        21.5572  -44.6510   -6.1203 H         1 3XV         0.0539
     39 H11        20.5995  -45.1540   -8.2449 H         1 3XV         0.0965
     40 H12        22.1403  -46.0211   -8.5624 H         1 3XV         0.0965
     41 H13        20.7908  -44.0622  -10.2833 H         1 3XV         0.2049
     42 H14        21.6607  -46.8565  -10.5512 H         1 3XV         0.0841
     43 H15        21.0487  -45.8568  -11.9123 H         1 3XV         0.0841
     44 H16        19.4619  -46.5025   -9.3753 H         1 3XV         0.0667
     45 H17        17.7777  -45.6375  -10.7195 H         1 3XV         0.2101
     46 H18        19.1607  -47.6645  -12.2003 H         1 3XV         0.0547
     47 H19        18.2471  -48.1301  -10.7254 H         1 3XV         0.0547
     48 H20        20.5110  -48.8381   -9.7889 H         1 3XV         0.1851
     49 H21        25.6729  -50.3569  -12.3197 H         1 3XV         0.1851
     50 H22        26.2059  -52.9591  -10.9568 H         1 3XV         0.0605
     51 H23        27.4954  -51.9573   -9.1184 H         1 3XV         0.0584
     52 H24        26.8742  -50.3441   -9.6066 H         1 3XV         0.0584
     53 H25        27.6094  -51.0421  -12.8158 H         1 3XV         0.0584
     54 H26        28.2286  -52.6534  -12.3186 H         1 3XV         0.0584
@<TRIPOS>BOND
     1   22    1 ar 
     2    1   23 ar 
     3    2    3 ar 
     4   20    2 1  
     5    2   22 ar 
     6    3    4 ar 
     7    4   23 ar 
     8    4   24 1  
     9    5    6 1  
    10   14    5 1  
    11    6    7 1  
    12    7    8 ar 
    13   12    7 ar 
    14    8    9 ar 
    15   10    9 ar 
    16   11   10 ar 
    17   12   11 ar 
    18   13   12 1  
    19   14   13 1  
    20   15   14 1  
    21   16   15 1  
    22   16   17 1  
    23   18   16 1  
    24   19   18 1  
    25   19   20 am 
    26   20   21 2  
    27   24   25 1  
    28   25   26 1  
    29   25   28 1  
    30   26   27 1  
    31   27   28 1  
    32    1   29 1  
    33    3   30 1  
    34    5   31 1  
    35    5   32 1  
    36    6   33 1  
    37    6   34 1  
    38    8   35 1  
    39    9   36 1  
    40   10   37 1  
    41   11   38 1  
    42   13   39 1  
    43   13   40 1  
    44   14   41 1  
    45   15   42 1  
    46   15   43 1  
    47   16   44 1  
    48   17   45 1  
    49   18   46 1  
    50   18   47 1  
    51   19   48 1  
    52   24   49 1  
    53   25   50 1  
    54   26   51 1  
    55   26   52 1  
    56   28   53 1  
    57   28   54 1  
@<TRIPOS>SUBSTRUCTURE
     1 3XV         1

