### 
### Created by X-TOOL on Mon Sep 10 21:13:25 2018
### 

@<TRIPOS>MOLECULE
4x63_ligand
   54    57     1     0     0
SMALL
GAST_HUCK


@<TRIPOS>ATOM
      1 C2         22.8130  -51.8770   -9.3690 C.ar      1 3XV         0.0770
      2 C4         22.0970  -50.3200  -11.0200 C.ar      1 3XV         0.1250
      3 C5         23.3890  -50.3220  -11.5490 C.ar      1 3XV         0.0277
      4 C6         24.3940  -51.1070  -10.9830 C.ar      1 3XV         0.1354
      5 CAT        22.5370  -44.2960  -10.6800 C.3       1 3XV        -0.0219
      6 CAU        22.9630  -42.9500  -10.1370 C.3       1 3XV         0.0190
      7 CAV        22.9580  -42.9630   -8.7430 C.ar      1 3XV        -0.0309
      8 CBB        23.7220  -42.0050   -8.0760 C.ar      1 3XV        -0.0665
      9 CBA        23.7580  -41.9710   -6.6840 C.ar      1 3XV        -0.0755
     10 CAZ        23.0210  -42.8960   -5.9500 C.ar      1 3XV        -0.0753
     11 CAY        22.2520  -43.8540   -6.6080 C.ar      1 3XV        -0.0618
     12 CAW        22.2100  -43.8970   -8.0030 C.ar      1 3XV         0.0035
     13 CAX        21.4220  -44.8920   -8.6050 C.3       1 3XV        -0.0001
     14 NAS        21.2790  -44.7510  -10.0700 N.4       1 3XV         0.2494
     15 CAR        21.0060  -46.0680  -10.6610 C.3       1 3XV        -0.0019
     16 CAB        19.5410  -46.4960  -10.5130 C.3       1 3XV         0.1147
     17 OAA        18.7080  -45.5080  -11.1180 O.3       1 3XV        -0.3845
     18 CAC        19.3140  -47.8650  -11.1770 C.3       1 3XV         0.0618
     19 NAD        20.3710  -48.8040  -10.7490 N.am      1 3XV        -0.2801
     20 CAE        21.1230  -49.5150  -11.6110 C.2       1 3XV         0.2287
     21 OAF        21.0080  -49.4640  -12.8360 O.2       1 3XV        -0.3744
     22 N3         21.8080  -51.0820   -9.9490 N.ar      1 3XV        -0.2632
     23 N1         24.1130  -51.8730   -9.9120 N.ar      1 3XV        -0.2469
     24 NAJ        25.6170  -51.0720  -11.5260 N.pl3     1 3XV        -0.2922
     25 CAK        26.7570  -51.8850  -11.0620 C.3       1 3XV         0.0870
     26 CAL        27.5570  -51.1290  -10.0280 C.3       1 3XV         0.0730
     27 OAM        28.7000  -51.1220  -10.9210 O.3       1 3XV        -0.3750
     28 CAN        27.9240  -51.6810  -12.0050 C.3       1 3XV         0.0730
     29 H1         22.5876  -52.4920   -8.5053 H         1 3XV         0.1094
     30 H2         23.6144  -49.7051  -12.4114 H         1 3XV         0.0732
     31 H3         23.3248  -45.0332  -10.4658 H         1 3XV         0.0837
     32 H4         22.3972  -44.2143  -11.7680 H         1 3XV         0.0837
     33 H5         22.2656  -42.1781  -10.4944 H         1 3XV         0.0463
     34 H6         23.9780  -42.7205  -10.4933 H         1 3XV         0.0463
     35 H7         24.2926  -41.2808   -8.6460 H         1 3XV         0.0537
     36 H8         24.3582  -41.2264   -6.1738 H         1 3XV         0.0541
     37 H9         23.0452  -42.8712   -4.8666 H         1 3XV         0.0541
     38 H10        21.6810  -44.5727   -6.0313 H         1 3XV         0.0539
     39 H11        20.4186  -44.8556   -8.1558 H         1 3XV         0.0965
     40 H12        21.8820  -45.8691   -8.3962 H         1 3XV         0.0965
     41 H13        20.5337  -44.1050  -10.2778 H         1 3XV         0.2049
     42 H14        21.6419  -46.8148  -10.1631 H         1 3XV         0.0841
     43 H15        21.2542  -46.0305  -11.7320 H         1 3XV         0.0841
     44 H16        19.2930  -46.5729   -9.4441 H         1 3XV         0.0667
     45 H17        17.7979  -45.7660  -11.0305 H         1 3XV         0.2101
     46 H18        19.3460  -47.7514  -12.2706 H         1 3XV         0.0547
     47 H19        18.3314  -48.2587  -10.8778 H         1 3XV         0.0547
     48 H20        20.5366  -48.9176   -9.7694 H         1 3XV         0.1851
     49 H21        25.7723  -50.4352  -12.3205 H         1 3XV         0.1851
     50 H22        26.4741  -52.9201  -10.8200 H         1 3XV         0.0605
     51 H23        27.7209  -51.6840   -9.0926 H         1 3XV         0.0584
     52 H24        27.1614  -50.1290   -9.7966 H         1 3XV         0.0584
     53 H25        27.7220  -50.9747  -12.8237 H         1 3XV         0.0584
     54 H26        28.3361  -52.6134  -12.4183 H         1 3XV         0.0584
@<TRIPOS>BOND
     1   22    1 ar 
     2    1   23 ar 
     3    2    3 ar 
     4   20    2 1  
     5    2   22 ar 
     6    3    4 ar 
     7    4   23 ar 
     8    4   24 1  
     9    5    6 1  
    10   14    5 1  
    11    6    7 1  
    12    7    8 ar 
    13   12    7 ar 
    14    8    9 ar 
    15   10    9 ar 
    16   11   10 ar 
    17   12   11 ar 
    18   13   12 1  
    19   14   13 1  
    20   15   14 1  
    21   16   15 1  
    22   16   17 1  
    23   18   16 1  
    24   19   18 1  
    25   19   20 am 
    26   20   21 2  
    27   24   25 1  
    28   25   26 1  
    29   25   28 1  
    30   26   27 1  
    31   27   28 1  
    32    1   29 1  
    33    3   30 1  
    34    5   31 1  
    35    5   32 1  
    36    6   33 1  
    37    6   34 1  
    38    8   35 1  
    39    9   36 1  
    40   10   37 1  
    41   11   38 1  
    42   13   39 1  
    43   13   40 1  
    44   14   41 1  
    45   15   42 1  
    46   15   43 1  
    47   16   44 1  
    48   17   45 1  
    49   18   46 1  
    50   18   47 1  
    51   19   48 1  
    52   24   49 1  
    53   25   50 1  
    54   26   51 1  
    55   26   52 1  
    56   28   53 1  
    57   28   54 1  
@<TRIPOS>SUBSTRUCTURE
     1 3XV         1

