### 
### Created by X-TOOL on Mon Sep 10 21:13:25 2018
### 

@<TRIPOS>MOLECULE
4x68_ligand
   40    40     1     0     0
SMALL
GAST_HUCK


@<TRIPOS>ATOM
      1 C1        -13.1090    0.8800   16.5140 C.2       1 OP0         0.1743
      2 O8        -12.7000    0.0950   15.6280 O.2       1 OP0        -0.3828
      3 N14       -14.4200    1.2490   16.5990 N.am      1 OP0        -0.2479
      4 C2        -15.2400    1.1570   15.3500 C.3       1 OP0         0.1359
      5 C3        -15.0470    2.4530   14.5810 C.2       1 OP0         0.2250
      6 N15       -14.4260    2.3170   13.3900 N.am      1 OP0        -0.1592
      7 O9        -15.4240    3.5380   15.0330 O.2       1 OP0        -0.3944
      8 C7        -15.0790    1.5600   17.8870 C.3       1 OP0         0.0807
      9 C6        -16.4690    0.9030   18.1070 C.3       1 OP0         0.0316
     10 C5        -17.3670    1.2110   16.8830 C.3       1 OP0        -0.0025
     11 C4        -16.7190    0.7740   15.5470 C.3       1 OP0        -0.0069
     12 N16       -16.4060   -0.5410   18.3540 N.4       1 OP0         0.4138
     13 S17       -14.5010   -2.0290   19.2300 S.o2      1 OP0        -0.0327
     14 O10       -15.5020   -0.8530   19.3770 O.3       1 OP0        -0.2010
     15 O13       -13.7040   -1.9050   20.4180 O.co2     1 OP0        -0.4578
     16 O12       -13.7860   -1.7700   18.0280 O.co2     1 OP0        -0.4578
     17 O11       -15.3610   -3.1720   19.2000 O.co2     1 OP0        -0.4578
     18 N21       -16.0780    5.5530   12.7190 N.4       1 OP0         0.2202
     19 C22       -16.3880    4.3230   12.0000 C.3       1 OP0        -0.0085
     20 C23       -15.1190    3.6030   11.4780 C.3       1 OP0         0.1187
     21 O24       -14.1780    3.4350   12.5840 O.3       1 OP0        -0.2512
     22 H1        -12.3987    1.2792   17.2366 H         1 OP0         0.1547
     23 H2        -14.8038    0.3501   14.7429 H         1 OP0         0.0803
     24 H3        -14.1406    1.4099   13.0806 H         1 OP0         0.2220
     25 H4        -15.2074    2.6508   17.9465 H         1 OP0         0.0583
     26 H5        -14.4144    1.2243   18.6967 H         1 OP0         0.0583
     27 H6        -16.9226    1.3682   18.9946 H         1 OP0         0.0882
     28 H7        -17.5540    2.2944   16.8465 H         1 OP0         0.0323
     29 H8        -18.3217    0.6779   17.0029 H         1 OP0         0.0323
     30 H9        -16.7935   -0.3215   15.4806 H         1 OP0         0.0314
     31 H10       -17.2956    1.2310   14.7293 H         1 OP0         0.0314
     32 H11       -16.1143   -1.0047   17.5078 H         1 OP0         0.2382
     33 H12       -17.3225   -0.8676   18.6173 H         1 OP0         0.2382
     34 H13       -16.9335    5.9813   13.0365 H         1 OP0         0.1995
     35 H14       -15.5922    6.1878   12.1050 H         1 OP0         0.1995
     36 H15       -15.4941    5.3403   13.5126 H         1 OP0         0.1995
     37 H16       -17.0317    4.5686   11.1425 H         1 OP0         0.0837
     38 H17       -16.9246    3.6437   12.6786 H         1 OP0         0.0837
     39 H18       -14.6524    4.2063   10.6853 H         1 OP0         0.0644
     40 H19       -15.3939    2.6172   11.0748 H         1 OP0         0.0644
@<TRIPOS>BOND
     1    1    2 2  
     2    3    1 am 
     3    4    3 1  
     4    3    8 1  
     5    5    4 1  
     6    4   11 1  
     7    6    5 am 
     8    5    7 2  
     9   21    6 1  
    10    8    9 1  
    11   10    9 1  
    12    9   12 1  
    13   11   10 1  
    14   12   14 1  
    15   14   13 1  
    16   13   15 ar 
    17   13   16 ar 
    18   13   17 ar 
    19   19   18 1  
    20   20   19 1  
    21   20   21 1  
    22    1   22 1  
    23    4   23 1  
    24    6   24 1  
    25    8   25 1  
    26    8   26 1  
    27    9   27 1  
    28   10   28 1  
    29   10   29 1  
    30   11   30 1  
    31   11   31 1  
    32   12   32 1  
    33   12   33 1  
    34   18   34 1  
    35   18   35 1  
    36   18   36 1  
    37   19   37 1  
    38   19   38 1  
    39   20   39 1  
    40   20   40 1  
@<TRIPOS>SUBSTRUCTURE
     1 OP0         1

