### 
### Created by X-TOOL on Mon Sep 10 21:13:23 2018
### 

@<TRIPOS>MOLECULE
4x69_ligand
   37    37     1     0     0
SMALL
GAST_HUCK


@<TRIPOS>ATOM
      1 C1         13.1300    5.8960    4.6280 C.2       1 OP0         0.1743
      2 O8         11.9840    6.3310    4.8490 O.2       1 OP0        -0.3828
      3 N14        14.2440    6.5000    5.1250 N.am      1 OP0        -0.2479
      4 C2         14.0500    7.7250    5.9370 C.3       1 OP0         0.1359
      5 C3         15.0510    8.8250    5.6390 C.2       1 OP0         0.2250
      6 N15        14.7990    9.9850    6.2780 N.am      1 OP0        -0.1594
      7 O9         16.0130    8.6680    4.8830 O.2       1 OP0        -0.3944
      8 C7         15.4590    5.7010    5.4070 C.3       1 OP0         0.0807
      9 C6         15.3410    5.2100    6.8750 C.3       1 OP0         0.0316
     10 C5         15.2840    6.4450    7.8160 C.3       1 OP0        -0.0025
     11 C4         14.0830    7.3350    7.4250 C.3       1 OP0        -0.0069
     12 N16        14.1150    4.4220    6.9990 N.4       1 OP0         0.4138
     13 S17        12.5300    3.6130    8.7180 S.o2      1 OP0        -0.0327
     14 O10        13.9860    3.8440    8.2720 O.3       1 OP0        -0.2010
     15 O13        12.7050    2.7860    9.8750 O.co2     1 OP0        -0.4578
     16 O12        11.9830    4.8860    9.0140 O.co2     1 OP0        -0.4578
     17 O11        11.9590    2.8850    7.6420 O.co2     1 OP0        -0.4578
     18 C22        14.4940   13.1370    5.8580 C.3       1 OP0        -0.0388
     19 C23        15.2680   12.0300    5.1130 C.3       1 OP0         0.0764
     20 O24        15.6800   11.0590    6.1140 O.3       1 OP0        -0.2568
     21 H1         13.2446    5.0022    4.0165 H         1 OP0         0.1547
     22 H2         13.0508    8.1236    5.7073 H         1 OP0         0.0803
     23 H3         13.9924   10.0765    6.8619 H         1 OP0         0.2220
     24 H4         16.3580    6.3233    5.2868 H         1 OP0         0.0583
     25 H5         15.5141    4.8411    4.7232 H         1 OP0         0.0583
     26 H6         16.2101    4.5878    7.1346 H         1 OP0         0.0882
     27 H7         16.2151    7.0227    7.7198 H         1 OP0         0.0323
     28 H8         15.1673    6.1081    8.8566 H         1 OP0         0.0323
     29 H9         13.1573    6.7892    7.6599 H         1 OP0         0.0314
     30 H10        14.1269    8.2571    8.0232 H         1 OP0         0.0314
     31 H11        14.1291    3.6878    6.3085 H         1 OP0         0.2382
     32 H12        13.3235    5.0238    6.8335 H         1 OP0         0.2382
     33 H13        14.1601   13.8989    5.1382 H         1 OP0         0.0253
     34 H14        15.1509   13.6032    6.6070 H         1 OP0         0.0253
     35 H15        13.6190   12.6984    6.3599 H         1 OP0         0.0253
     36 H16        16.1503   12.4558    4.6128 H         1 OP0         0.0587
     37 H17        14.6184   11.5510    4.3657 H         1 OP0         0.0587
@<TRIPOS>BOND
     1    1    2 2  
     2    3    1 am 
     3    4    3 1  
     4    3    8 1  
     5    5    4 1  
     6    4   11 1  
     7    6    5 am 
     8    5    7 2  
     9   20    6 1  
    10    8    9 1  
    11   10    9 1  
    12    9   12 1  
    13   11   10 1  
    14   12   14 1  
    15   14   13 1  
    16   13   15 ar 
    17   13   16 ar 
    18   13   17 ar 
    19   19   18 1  
    20   19   20 1  
    21    1   21 1  
    22    4   22 1  
    23    6   23 1  
    24    8   24 1  
    25    8   25 1  
    26    9   26 1  
    27   10   27 1  
    28   10   28 1  
    29   11   29 1  
    30   11   30 1  
    31   12   31 1  
    32   12   32 1  
    33   18   33 1  
    34   18   34 1  
    35   18   35 1  
    36   19   36 1  
    37   19   37 1  
@<TRIPOS>SUBSTRUCTURE
     1 OP0         1

