### 
### Created by X-TOOL on Sun Nov 13 14:29:06 2016
### 

@<TRIPOS>MOLECULE
4x6i_ligand
   42    43     1     0     0
SMALL
GAST_HUCK


@<TRIPOS>ATOM
      1 C1         13.3410   10.1500  -19.1330 C.1       1 MOL         0.1149
      2 C2         13.0860    8.7350  -18.9810 C.3       1 MOL         0.1555
      3 C4         15.2850    7.6420  -18.9350 C.2       1 MOL         0.2259
      4 C6         16.2080    6.5710  -19.5510 C.3       1 MOL         0.1322
      5 C8         16.8330    4.0990  -19.1030 C.3       1 MOL        -0.0516
      6 C9         16.5320    3.7670  -20.5630 C.3       1 MOL        -0.0532
      7 C10        16.7430    4.9760  -21.4780 C.3       1 MOL        -0.0516
      8 C11        15.8360    6.1350  -20.9890 C.3       1 MOL        -0.0199
      9 C13        17.9830    8.2220  -20.1330 C.2       1 MOL         0.1978
     10 C15        19.2790    8.7300  -19.5760 C.ar      1 MOL         0.0692
     11 C16        19.5300   10.0910  -19.4980 C.ar      1 MOL         0.0596
     12 C20        20.1800    7.8170  -18.9730 C.ar      1 MOL        -0.0509
     13 N1         13.5730   11.2690  -19.2180 N.1       1 MOL        -0.3014
     14 N3         14.1110    7.8830  -19.5270 N.am      1 MOL        -0.2605
     15 O5         15.5760    8.2170  -17.8780 O.2       1 MOL        -0.3420
     16 C7         16.0520    5.3510  -18.6370 C.3       1 MOL        -0.0199
     17 N12        17.6020    7.0350  -19.5680 N.am      1 MOL        -0.2772
     18 O14        17.1900    8.9500  -20.7880 O.2       1 MOL        -0.3912
     19 C17        20.6580   10.5420  -18.8500 C.ar      1 MOL        -0.0287
     20 C18        21.5280    9.6410  -18.2460 C.ar      1 MOL         0.0060
     21 C19        21.3190    8.2690  -18.3020 C.ar      1 MOL        -0.0599
     22 N21        18.7040   11.1380  -20.0750 N.pl3     1 MOL        -0.3320
     23 BR2        23.0140   10.3880  -17.3230 Br        1 MOL        -0.0495
     24 H1         12.1380    8.5001  -19.4870 H         1 MOL         0.0826
     25 H2         12.9926    8.5158  -17.9071 H         1 MOL         0.0826
     26 H3         17.9110    4.2883  -18.9937 H         1 MOL         0.0265
     27 H4         16.5454    3.2432  -18.4746 H         1 MOL         0.0265
     28 H5         15.4857    3.4376  -20.6445 H         1 MOL         0.0265
     29 H6         17.1986    2.9545  -20.8878 H         1 MOL         0.0265
     30 H7         16.4770    4.7089  -22.5114 H         1 MOL         0.0265
     31 H8         17.7967    5.2895  -21.4399 H         1 MOL         0.0265
     32 H9         15.9553    6.9936  -21.6661 H         1 MOL         0.0277
     33 H10        14.7883    5.8003  -21.0024 H         1 MOL         0.0277
     34 H11        19.9825    6.7528  -19.0333 H         1 MOL         0.0640
     35 H12        13.9326    7.4427  -20.4070 H         1 MOL         0.1879
     36 H13        14.9841    5.0919  -18.5884 H         1 MOL         0.0277
     37 H14        16.4089    5.6252  -17.6333 H         1 MOL         0.0277
     38 H15        18.3030    6.4584  -19.1484 H         1 MOL         0.1827
     39 H16        20.8689   11.6046  -18.8105 H         1 MOL         0.0555
     40 H17        22.0135    7.5751  -17.8424 H         1 MOL         0.0543
     41 H18        17.8397   10.8932  -20.5790 H         1 MOL         0.1745
     42 H19        18.9828   12.1250  -19.9800 H         1 MOL         0.1745
@<TRIPOS>BOND
     1    2    1 1  
     2    1   13 3  
     3   14    2 1  
     4    4    3 1  
     5    3   14 am 
     6    3   15 2  
     7    4    8 1  
     8    4   16 1  
     9   17    4 1  
    10    5    6 1  
    11   16    5 1  
    12    7    6 1  
    13    8    7 1  
    14    9   10 1  
    15    9   17 am 
    16    9   18 2  
    17   10   11 ar 
    18   10   12 ar 
    19   11   19 ar 
    20   11   22 1  
    21   12   21 ar 
    22   19   20 ar 
    23   20   21 ar 
    24   20   23 1  
    25    2   24 1  
    26    2   25 1  
    27    5   26 1  
    28    5   27 1  
    29    6   28 1  
    30    6   29 1  
    31    7   30 1  
    32    7   31 1  
    33    8   32 1  
    34    8   33 1  
    35   12   34 1  
    36   14   35 1  
    37   16   36 1  
    38   16   37 1  
    39   17   38 1  
    40   19   39 1  
    41   21   40 1  
    42   22   41 1  
    43   22   42 1  
@<TRIPOS>SUBSTRUCTURE
     1 MOL         1

