### 
### Created by X-TOOL on Mon Sep 10 21:13:23 2018
### 

@<TRIPOS>MOLECULE
4x6k_ligand
   29    29     1     0     0
SMALL
GAST_HUCK


@<TRIPOS>ATOM
      1 CAA        37.6580   13.6580  -11.5910 C.3       1 3XR         0.0258
      2 CAJ        38.0340   13.9870  -13.0030 C.2       1 3XR         0.1770
      3 OAB        37.8870   15.1020  -13.4980 O.2       1 3XR        -0.3972
      4 NAH        38.6320   13.0240  -13.6180 N.am      1 3XR        -0.2433
      5 CAO        38.9890   13.1480  -14.9670 C.3       1 3XR         0.0940
      6 NAI        40.4780   13.3230  -14.9110 N.4       1 3XR         0.2498
      7 CAG        40.8710   13.4230  -16.3270 C.3       1 3XR        -0.0143
      8 CAN        40.6410   12.0600  -17.0220 C.3       1 3XR         0.0803
      9 CAK        41.3330   11.8680  -18.3780 C.2       1 3XR         0.0455
     10 OAD        40.6600   11.3410  -19.3190 O.co2     1 3XR        -0.5684
     11 OAC        42.5910   12.1800  -18.4560 O.co2     1 3XR        -0.5684
     12 CAL        39.1060   11.8920  -17.0970 C.3       1 3XR         0.1076
     13 OAE        38.5400   12.9640  -17.7870 O.3       1 3XR        -0.3867
     14 CAM        38.6230   11.8690  -15.6520 C.3       1 3XR         0.1477
     15 OAF        37.2220   11.6000  -15.5900 O.3       1 3XR        -0.3813
     16 H1         37.8854   12.6011  -11.3878 H         1 3XR         0.0467
     17 H2         36.5820   13.8357  -11.4471 H         1 3XR         0.0467
     18 H3         38.2304   14.2954  -10.9011 H         1 3XR         0.0467
     19 H4         38.8433   12.1792  -13.1264 H         1 3XR         0.1906
     20 H5         38.4981   14.0043  -15.4526 H         1 3XR         0.1167
     21 H6         40.9170   12.5293  -14.4713 H         1 3XR         0.2040
     22 H7         40.7227   14.1627  -14.4099 H         1 3XR         0.2040
     23 H8         41.9349   13.6942  -16.3943 H         1 3XR         0.0837
     24 H9         40.2638   14.1947  -16.8227 H         1 3XR         0.0837
     25 H10        41.0412   11.2774  -16.3607 H         1 3XR         0.0545
     26 H11        38.8457   10.9506  -17.6031 H         1 3XR         0.0645
     27 H12        37.5976   12.8511  -17.8273 H         1 3XR         0.2101
     28 H13        39.1420   11.0502  -15.1322 H         1 3XR         0.0701
     29 H14        36.9425   11.5902  -14.6822 H         1 3XR         0.2103
@<TRIPOS>BOND
     1    1    2 1  
     2    2    3 2  
     3    2    4 am 
     4    4    5 1  
     5    5    6 1  
     6    5   14 1  
     7    6    7 1  
     8    7    8 1  
     9    8    9 1  
    10    8   12 1  
    11    9   10 ar 
    12    9   11 ar 
    13   12   13 1  
    14   12   14 1  
    15   14   15 1  
    16    1   16 1  
    17    1   17 1  
    18    1   18 1  
    19    4   19 1  
    20    5   20 1  
    21    6   21 1  
    22    6   22 1  
    23    7   23 1  
    24    7   24 1  
    25    8   25 1  
    26   12   26 1  
    27   13   27 1  
    28   14   28 1  
    29   15   29 1  
@<TRIPOS>SUBSTRUCTURE
     1 3XR         1

