### 
### Created by X-TOOL on Mon Sep 10 21:13:23 2018
### 

@<TRIPOS>MOLECULE
4x6n_ligand
   64    69     1     0     0
SMALL
GAST_HUCK


@<TRIPOS>ATOM
      1 N14        42.2440  -21.0170   29.6960 N.2       1 3Y5        -0.3246
      2 C13        43.5340  -20.9760   29.2170 C.2       1 3Y5         0.0252
      3 C18        45.6100  -22.4350   31.9940 C.ar      1 3Y5        -0.0654
      4 C17        45.8940  -20.6010   29.8880 C.ar      1 3Y5        -0.0382
      5 C16        44.6540  -21.1820   30.1540 C.ar      1 3Y5        -0.0397
      6 C19        44.5170  -22.0760   31.2240 C.ar      1 3Y5        -0.0711
      7 C20        39.2750  -18.6130   29.2590 C.2       1 3Y5         0.2618
      8 C23        37.5920  -17.3520   27.9170 C.3       1 3Y5         0.0660
      9 C24        36.9180  -15.9940   27.9020 C.ar      1 3Y5         0.0188
     10 C12        43.5240  -20.7600   27.8810 C.2       1 3Y5         0.1448
     11 C27        35.6930  -13.4720   27.9530 C.ar      1 3Y5        -0.0579
     12 C1         40.7960  -24.1520   27.4170 C.ar      1 3Y5        -0.0601
     13 C2         40.0070  -23.3810   28.2610 C.ar      1 3Y5        -0.0383
     14 C3         39.8240  -23.8150   29.5680 C.ar      1 3Y5        -0.0601
     15 C4         40.4590  -24.9540   30.0360 C.ar      1 3Y5        -0.0686
     16 C5         41.2580  -25.6960   29.1960 C.ar      1 3Y5        -0.0687
     17 C6         41.4190  -25.2990   27.8810 C.ar      1 3Y5        -0.0686
     18 C7         39.4860  -22.0340   27.8090 C.3       1 3Y5         0.0201
     19 C8         39.9830  -20.8730   28.6890 C.3       1 3Y5         0.1285
     20 N9         39.3640  -19.6040   28.3140 N.am      1 3Y5        -0.2505
     21 C10        41.4790  -20.8210   28.6440 C.2       1 3Y5         0.1435
     22 N11        42.2030  -20.6550   27.5070 N.pl3     1 3Y5        -0.2452
     23 CL         44.7810  -20.6060   26.7500 Cl        1 3Y5        -0.0438
     24 N21        38.6810  -17.4510   28.8860 N.am      1 3Y5        -0.2625
     25 O22        39.7780  -18.7450   30.3790 O.2       1 3Y5        -0.4005
     26 C25        37.4050  -14.9500   27.0960 C.ar      1 3Y5         0.1310
     27 C26        36.7900  -13.6950   27.1330 C.ar      1 3Y5        -0.0287
     28 C28        35.2130  -14.5110   28.7250 C.ar      1 3Y5         0.0274
     29 C29        35.8140  -15.7530   28.7150 C.ar      1 3Y5        -0.0472
     30 CL2        33.7810  -14.2700   29.7020 Cl        1 3Y5        -0.0782
     31 N31        38.5550  -15.1180   26.2590 N.pl3     1 3Y5        -0.0983
     32 C32        38.7170  -15.0860   24.9260 C.2       1 3Y5         0.1657
     33 N33        39.9560  -15.3660   24.6260 N.2       1 3Y5        -0.2078
     34 N34        40.5820  -15.5730   25.8130 N.2       1 3Y5        -0.1386
     35 N35        39.7600  -15.4170   26.8040 N.2       1 3Y5        -0.0500
     36 C36        46.8730  -21.9220   31.6990 C.ar      1 3Y5         0.0298
     37 C37        46.9960  -21.0060   30.6350 C.ar      1 3Y5         0.0758
     38 N38        48.3200  -20.7210   30.5150 N.pl3     1 3Y5        -0.2356
     39 N39        49.0680  -21.3840   31.4470 N.2       1 3Y5        -0.2182
     40 C40        48.2430  -22.1210   32.1920 C.2       1 3Y5         0.1063
     41 N41        48.6770  -22.8550   33.2210 N.pl3     1 3Y5        -0.3320
     42 H1         45.4840  -23.1161   32.8278 H         1 3Y5         0.0592
     43 H2         45.9971  -19.8487   29.1144 H         1 3Y5         0.0498
     44 H3         43.5423  -22.4921   31.4519 H         1 3Y5         0.0495
     45 H4         37.9990  -17.5499   26.9144 H         1 3Y5         0.0670
     46 H5         36.8368  -18.1130   28.1630 H         1 3Y5         0.0670
     47 H6         35.2203  -12.4971   27.9869 H         1 3Y5         0.0551
     48 H7         40.9258  -23.8527   26.3832 H         1 3Y5         0.0557
     49 H8         39.1751  -23.2544   30.2311 H         1 3Y5         0.0557
     50 H9         40.3262  -25.2617   31.0669 H         1 3Y5         0.0599
     51 H10        41.7576  -26.5854   29.5626 H         1 3Y5         0.0559
     52 H11        42.0350  -25.8876   27.2108 H         1 3Y5         0.0599
     53 H12        38.3867  -22.0538   27.8423 H         1 3Y5         0.0477
     54 H13        39.8185  -21.8580   26.7753 H         1 3Y5         0.0477
     55 H14        39.6870  -21.0855   29.7269 H         1 3Y5         0.0820
     56 H15        39.0128  -19.4606   27.3887 H         1 3Y5         0.1883
     57 H16        41.8384  -20.4853   26.5587 H         1 3Y5         0.2393
     58 H17        39.0115  -16.6044   29.3031 H         1 3Y5         0.1870
     59 H18        37.1731  -12.8900   26.5164 H         1 3Y5         0.0575
     60 H19        35.4243  -16.5454   29.3437 H         1 3Y5         0.0546
     61 H20        37.9330  -14.8605   24.2046 H         1 3Y5         0.1420
     62 H21        48.7117  -20.0829   29.8076 H         1 3Y5         0.2325
     63 H22        49.6828  -22.8911   33.4399 H         1 3Y5         0.1702
     64 H23        48.0057  -23.3846   33.7952 H         1 3Y5         0.1702
@<TRIPOS>BOND
     1    1    2 1  
     2   21    1 2  
     3    2    5 1  
     4   10    2 2  
     5    6    3 ar 
     6    3   36 ar 
     7    5    4 ar 
     8    4   37 ar 
     9    5    6 ar 
    10    7   20 am 
    11   24    7 am 
    12    7   25 2  
    13    9    8 1  
    14    8   24 1  
    15   26    9 ar 
    16    9   29 ar 
    17   22   10 1  
    18   10   23 1  
    19   27   11 ar 
    20   11   28 ar 
    21   13   12 ar 
    22   12   17 ar 
    23   13   14 ar 
    24   18   13 1  
    25   14   15 ar 
    26   15   16 ar 
    27   17   16 ar 
    28   19   18 1  
    29   20   19 1  
    30   19   21 1  
    31   21   22 1  
    32   26   27 ar 
    33   26   31 1  
    34   28   29 ar 
    35   28   30 1  
    36   31   32 1  
    37   31   35 1  
    38   32   33 2  
    39   33   34 1  
    40   34   35 2  
    41   36   37 ar 
    42   36   40 1  
    43   37   38 1  
    44   38   39 1  
    45   39   40 2  
    46   40   41 1  
    47    3   42 1  
    48    4   43 1  
    49    6   44 1  
    50    8   45 1  
    51    8   46 1  
    52   11   47 1  
    53   12   48 1  
    54   14   49 1  
    55   15   50 1  
    56   16   51 1  
    57   17   52 1  
    58   18   53 1  
    59   18   54 1  
    60   19   55 1  
    61   20   56 1  
    62   22   57 1  
    63   24   58 1  
    64   27   59 1  
    65   29   60 1  
    66   32   61 1  
    67   38   62 1  
    68   41   63 1  
    69   41   64 1  
@<TRIPOS>SUBSTRUCTURE
     1 3Y5         1

