### 
### Created by X-TOOL on Mon Sep 10 21:13:23 2018
### 

@<TRIPOS>MOLECULE
4x6o_ligand
   68    72     1     0     0
SMALL
GAST_HUCK


@<TRIPOS>ATOM
      1 C17        37.4310  -17.2830   28.0350 C.3       1 3Y4        -0.0011
      2 C16        36.7910  -15.9060   27.9300 C.ar      1 3Y4        -0.0007
      3 C20        38.5490  -17.2490   29.1090 C.3       1 3Y4         0.0463
      4 C23        39.2690  -18.5290   29.4730 C.2       1 3Y4         0.1805
      5 C12        38.4980  -15.1320   24.9770 C.2       1 3Y4         0.1657
      6 C27        39.9520  -20.7580   28.8320 C.3       1 3Y4         0.1277
      7 C33        39.8120  -23.7900   29.6700 C.ar      1 3Y4        -0.0601
      8 CL1        33.6880  -14.0890   29.6900 Cl        1 3Y4        -0.0782
      9 C2         35.0900  -14.3900   28.6980 C.ar      1 3Y4         0.0273
     10 C3         35.6140  -13.3640   27.9350 C.ar      1 3Y4        -0.0579
     11 C5         36.7440  -13.6050   27.1580 C.ar      1 3Y4        -0.0288
     12 C7         37.3300  -14.8710   27.1510 C.ar      1 3Y4         0.1293
     13 N8         38.4730  -15.1030   26.3290 N.pl3     1 3Y4        -0.0984
     14 N9         39.7330  -15.3710   26.7590 N.2       1 3Y4        -0.0500
     15 N10        40.4470  -15.5580   25.6900 N.2       1 3Y4        -0.1386
     16 N11        39.7060  -15.4080   24.5670 N.2       1 3Y4        -0.2078
     17 C14        35.6610  -15.6470   28.7070 C.ar      1 3Y4        -0.0490
     18 O24        39.7750  -18.6700   30.5860 O.2       1 3Y4        -0.3967
     19 N25        39.3280  -19.4740   28.5240 N.am      1 3Y4        -0.2643
     20 C29        39.3950  -21.9350   28.0020 C.3       1 3Y4         0.0203
     21 C32        40.0200  -23.2550   28.3970 C.ar      1 3Y4        -0.0383
     22 C35        40.5610  -24.8630   30.1230 C.ar      1 3Y4        -0.0686
     23 C37        41.5100  -25.4440   29.3060 C.ar      1 3Y4        -0.0687
     24 C39        41.6950  -24.9600   28.0210 C.ar      1 3Y4        -0.0686
     25 C41        40.9500  -23.8780   27.5670 C.ar      1 3Y4        -0.0601
     26 C43        41.4520  -20.7160   28.8000 C.2       1 3Y4         0.1419
     27 N44        42.2330  -20.9820   29.8930 N.2       1 3Y4        -0.3276
     28 C46        43.5520  -20.9330   29.4960 C.2       1 3Y4         0.0175
     29 C47        43.5330  -20.6250   28.1300 C.2       1 3Y4         0.1377
     30 CL2        44.8310  -20.4020   27.0230 Cl        1 3Y4        -0.0498
     31 N49        42.2450  -20.4920   27.7150 N.pl3     1 3Y4        -0.2491
     32 C50        44.6250  -21.2150   30.4640 C.ar      1 3Y4        -0.0440
     33 C51        45.9030  -20.6820   30.2930 C.ar      1 3Y4        -0.0730
     34 C53        46.9280  -21.0160   31.1650 C.ar      1 3Y4        -0.0438
     35 C55        46.6830  -21.8640   32.2480 C.ar      1 3Y4         0.0661
     36 C56        45.4010  -22.3670   32.4390 C.ar      1 3Y4        -0.0438
     37 C58        44.3890  -22.0530   31.5530 C.ar      1 3Y4        -0.0730
     38 N60        47.6690  -22.2840   33.1770 N.am      1 3Y4        -0.2100
     39 C62        48.9710  -21.8830   33.2400 C.2       1 3Y4         0.3498
     40 O63        49.5510  -21.1740   32.4420 O.2       1 3Y4        -0.3669
     41 O64        49.5330  -22.4000   34.3470 O.3       1 3Y4        -0.2623
     42 C65        50.9710  -22.2360   34.4710 C.3       1 3Y4         0.0668
     43 H1         37.8639  -17.5619   27.0630 H         1 3Y4         0.0440
     44 H2         36.6682  -18.0216   28.3222 H         1 3Y4         0.0440
     45 H3         38.0938  -16.8636   30.0332 H         1 3Y4         0.0524
     46 H4         39.3129  -16.5417   28.7539 H         1 3Y4         0.0524
     47 H5         37.6411  -14.9525   24.3294 H         1 3Y4         0.1420
     48 H6         39.6800  -20.9730   29.8759 H         1 3Y4         0.0822
     49 H7         39.0531  -23.3590   30.3130 H         1 3Y4         0.0557
     50 H8         35.1511  -12.3838   27.9413 H         1 3Y4         0.0551
     51 H9         37.1687  -12.8083   26.5581 H         1 3Y4         0.0574
     52 H10        35.2315  -16.4329   29.3177 H         1 3Y4         0.0545
     53 H11        38.9488  -19.3016   27.6149 H         1 3Y4         0.1889
     54 H12        39.6026  -21.7485   26.9380 H         1 3Y4         0.0477
     55 H13        38.3079  -21.9963   28.1583 H         1 3Y4         0.0477
     56 H14        40.4014  -25.2484   31.1235 H         1 3Y4         0.0599
     57 H15        42.1067  -26.2737   29.6675 H         1 3Y4         0.0559
     58 H16        42.4232  -25.4267   27.3676 H         1 3Y4         0.0599
     59 H17        41.0940  -23.5147   26.5559 H         1 3Y4         0.0557
     60 H18        41.9288  -20.2650   26.7614 H         1 3Y4         0.2375
     61 H19        46.0962  -20.0013   29.4718 H         1 3Y4         0.0547
     62 H20        47.9235  -20.6176   31.0058 H         1 3Y4         0.0499
     63 H21        45.1946  -23.0090   33.2877 H         1 3Y4         0.0499
     64 H22        43.3976  -22.4638   31.7065 H         1 3Y4         0.0547
     65 H23        47.3764  -22.9496   33.8636 H         1 3Y4         0.2275
     66 H24        51.3129  -22.6962   35.4098 H         1 3Y4         0.0575
     67 H25        51.2187  -21.1643   34.4765 H         1 3Y4         0.0575
     68 H26        51.4703  -22.7234   33.6207 H         1 3Y4         0.0575
@<TRIPOS>BOND
     1    1    2 1  
     2    3    1 1  
     3    2   12 ar 
     4    2   17 ar 
     5    4    3 1  
     6    4   18 2  
     7   19    4 am 
     8   13    5 1  
     9    5   16 2  
    10    6   19 1  
    11   20    6 1  
    12    6   26 1  
    13   21    7 ar 
    14    7   22 ar 
    15    9    8 1  
    16    9   10 ar 
    17   17    9 ar 
    18   11   10 ar 
    19   12   11 ar 
    20   12   13 1  
    21   13   14 1  
    22   14   15 2  
    23   15   16 1  
    24   20   21 1  
    25   21   25 ar 
    26   22   23 ar 
    27   23   24 ar 
    28   24   25 ar 
    29   26   27 2  
    30   26   31 1  
    31   27   28 1  
    32   28   29 2  
    33   28   32 1  
    34   29   30 1  
    35   29   31 1  
    36   32   33 ar 
    37   32   37 ar 
    38   33   34 ar 
    39   34   35 ar 
    40   35   36 ar 
    41   35   38 1  
    42   36   37 ar 
    43   38   39 am 
    44   39   40 2  
    45   39   41 1  
    46   41   42 1  
    47    1   43 1  
    48    1   44 1  
    49    3   45 1  
    50    3   46 1  
    51    5   47 1  
    52    6   48 1  
    53    7   49 1  
    54   10   50 1  
    55   11   51 1  
    56   17   52 1  
    57   19   53 1  
    58   20   54 1  
    59   20   55 1  
    60   22   56 1  
    61   23   57 1  
    62   24   58 1  
    63   25   59 1  
    64   31   60 1  
    65   33   61 1  
    66   34   62 1  
    67   36   63 1  
    68   37   64 1  
    69   38   65 1  
    70   42   66 1  
    71   42   67 1  
    72   42   68 1  
@<TRIPOS>SUBSTRUCTURE
     1 3Y4         1

