### 
### Created by X-TOOL on Mon Sep 10 21:13:24 2018
### 

@<TRIPOS>MOLECULE
4x6x_ligand
   67    71     1     0     0
SMALL
GAST_HUCK


@<TRIPOS>ATOM
      1 C26        -6.4970    8.4760   27.1060 C.ar      1 S74        -0.0687
      2 C32        -1.8310   11.1250   30.1020 C.ar      1 S74        -0.0687
      3 C25        -6.5890    8.1580   28.4390 C.ar      1 S74        -0.0685
      4 C27        -5.4010    8.0580   26.3910 C.ar      1 S74        -0.0685
      5 C31        -2.0410   10.6030   28.8480 C.ar      1 S74        -0.0685
      6 C33        -1.7470   10.2720   31.1780 C.ar      1 S74        -0.0685
      7 C24        -5.5950    7.4270   29.0520 C.ar      1 S74        -0.0598
      8 C28        -4.4140    7.3290   27.0150 C.ar      1 S74        -0.0598
      9 C30        -2.1690    9.2430   28.6830 C.ar      1 S74        -0.0598
     10 C34        -1.8840    8.9120   31.0030 C.ar      1 S74        -0.0598
     11 C12        -2.5760   -0.1180   38.2940 C.ar      1 S74        -0.0686
     12 C14        -1.0520    1.5870   38.9260 C.ar      1 S74        -0.0686
     13 C11        -2.4970    0.2870   36.9790 C.ar      1 S74        -0.0396
     14 C15        -0.9690    1.9920   37.6130 C.ar      1 S74        -0.0396
     15 C23        -4.4890    7.0020   28.3520 C.ar      1 S74        -0.0353
     16 C29        -2.1000    8.3750   29.7520 C.ar      1 S74        -0.0353
     17 C13        -1.8550    0.5300   39.2730 C.ar      1 S74        -0.0521
     18 C10        -1.6840    1.3500   36.6300 C.ar      1 S74         0.0844
     19 C18        -3.2360   -0.0100   42.6770 C.2       1 S74         0.0365
     20 C3         -3.6040    4.2090   31.8230 C.2       1 S74         0.2604
     21 C1         -3.5260    1.3290   34.0890 C.3       1 S74        -0.0021
     22 C19        -1.3180    1.4130   33.0250 C.3       1 S74        -0.0021
     23 C6         -3.7680    2.7700   33.7520 C.3       1 S74         0.0369
     24 C8         -1.6800    2.7730   32.4670 C.3       1 S74         0.0369
     25 C21        -3.3990    6.2210   28.9550 C.3       1 S74         0.0323
     26 C22        -2.2240    6.9170   29.5740 C.3       1 S74         0.0323
     27 C20        -3.1850    6.1750   30.4410 C.3       1 S74         0.0712
     28 C4         -2.0530    1.0610   34.2990 C.3       1 S74         0.0834
     29 C16        -1.9350    0.0940   40.6980 C.3       1 S74        -0.0127
     30 C17        -3.3650    0.2000   41.1790 C.3       1 S74         0.0084
     31 N5         -3.0720    3.1520   32.5510 N.am      1 S74        -0.2593
     32 N2         -2.7340    4.9910   31.0900 N.am      1 S74        -0.2653
     33 O36        -2.7360   -1.1100   43.0450 O.co2     1 S74        -0.5689
     34 O35        -3.6660    0.9460   43.3750 O.co2     1 S74        -0.5689
     35 O7         -4.8040    4.4440   31.8380 O.2       1 S74        -0.4006
     36 O9         -1.5110    1.8680   35.3410 O.3       1 S74        -0.3191
     37 H1         -7.2800    9.0500   26.6238 H         1 S74         0.0559
     38 H2         -1.7328   12.1955   30.2414 H         1 S74         0.0559
     39 H3         -7.4492    8.4842   29.0124 H         1 S74         0.0599
     40 H4         -5.3136    8.3015   25.3383 H         1 S74         0.0599
     41 H5         -2.1057   11.2621   27.9898 H         1 S74         0.0599
     42 H6         -1.5719   10.6723   32.1701 H         1 S74         0.0599
     43 H7         -5.6857    7.1823   30.1041 H         1 S74         0.0557
     44 H8         -3.5549    7.0034   26.4396 H         1 S74         0.0557
     45 H9         -2.3281    8.8440   27.6877 H         1 S74         0.0557
     46 H10        -1.8209    8.2543   31.8624 H         1 S74         0.0557
     47 H11        -3.2117   -0.9546   38.5606 H         1 S74         0.0530
     48 H12        -0.4811    2.1048   39.6882 H         1 S74         0.0530
     49 H13        -3.0723   -0.2278   36.2180 H         1 S74         0.0525
     50 H14        -0.3313    2.8284   37.3507 H         1 S74         0.0525
     51 H15        -3.8917    0.7004   33.2638 H         1 S74         0.0313
     52 H16        -4.0720    1.0786   35.0105 H         1 S74         0.0313
     53 H17        -0.2379    1.3996   33.2327 H         1 S74         0.0313
     54 H18        -1.5550    0.6525   32.2664 H         1 S74         0.0313
     55 H19        -3.4156    3.3965   34.5846 H         1 S74         0.0520
     56 H20        -4.8468    2.9272   33.6059 H         1 S74         0.0520
     57 H21        -1.3930    2.7864   31.4052 H         1 S74         0.0520
     58 H22        -1.0945    3.5262   33.0146 H         1 S74         0.0520
     59 H23        -3.2434    5.3090   28.3600 H         1 S74         0.0511
     60 H24        -1.2217    6.5054   29.3845 H         1 S74         0.0511
     61 H25        -3.8730    6.7187   31.1050 H         1 S74         0.0607
     62 H26        -1.9065   -0.0017   34.5422 H         1 S74         0.0648
     63 H27        -1.2920    0.7387   41.3152 H         1 S74         0.0423
     64 H28        -1.5966   -0.9493   40.7816 H         1 S74         0.0423
     65 H29        -3.7859    1.1909   40.9532 H         1 S74         0.0450
     66 H30        -3.9945   -0.5784   40.7231 H         1 S74         0.0450
     67 H31        -1.7738    4.7221   31.0139 H         1 S74         0.1852
@<TRIPOS>BOND
     1    3    1 ar 
     2    4    1 ar 
     3    5    2 ar 
     4    6    2 ar 
     5    7    3 ar 
     6    8    4 ar 
     7    9    5 ar 
     8   10    6 ar 
     9   15    7 ar 
    10   15    8 ar 
    11   16    9 ar 
    12   16   10 ar 
    13   11   13 ar 
    14   17   11 ar 
    15   12   14 ar 
    16   17   12 ar 
    17   13   18 ar 
    18   14   18 ar 
    19   25   15 1  
    20   26   16 1  
    21   29   17 1  
    22   18   36 1  
    23   30   19 1  
    24   19   33 ar 
    25   19   34 ar 
    26   31   20 am 
    27   20   32 am 
    28   20   35 2  
    29   21   23 1  
    30   28   21 1  
    31   22   24 1  
    32   28   22 1  
    33   23   31 1  
    34   24   31 1  
    35   26   25 1  
    36   27   25 1  
    37   27   26 1  
    38   32   27 1  
    39   36   28 1  
    40   29   30 1  
    41    1   37 1  
    42    2   38 1  
    43    3   39 1  
    44    4   40 1  
    45    5   41 1  
    46    6   42 1  
    47    7   43 1  
    48    8   44 1  
    49    9   45 1  
    50   10   46 1  
    51   11   47 1  
    52   12   48 1  
    53   13   49 1  
    54   14   50 1  
    55   21   51 1  
    56   21   52 1  
    57   22   53 1  
    58   22   54 1  
    59   23   55 1  
    60   23   56 1  
    61   24   57 1  
    62   24   58 1  
    63   25   59 1  
    64   26   60 1  
    65   27   61 1  
    66   28   62 1  
    67   29   63 1  
    68   29   64 1  
    69   30   65 1  
    70   30   66 1  
    71   32   67 1  
@<TRIPOS>SUBSTRUCTURE
     1 S74         1

