### 
### Created by X-TOOL on Mon Sep 10 21:13:24 2018
### 

@<TRIPOS>MOLECULE
4x6y_ligand
   49    52     1     0     0
SMALL
GAST_HUCK


@<TRIPOS>ATOM
      1 C18        -6.5160    8.8350   26.4230 C.ar      1 S94        -0.0687
      2 C23        -2.4240    0.4990   38.6280 C.ar      1 S94        -0.0729
      3 C16        -6.4460    8.7390   27.7950 C.ar      1 S94        -0.0686
      4 C17        -5.5380    8.2480   25.6550 C.ar      1 S94        -0.0686
      5 C22        -3.3010    0.0960   37.6430 C.ar      1 S94        -0.0706
      6 C24        -1.4690    1.4480   38.3460 C.ar      1 S94        -0.0706
      7 C15        -5.4050    8.0610   28.3920 C.ar      1 S94        -0.0600
      8 C14        -4.5010    7.5780   26.2660 C.ar      1 S94        -0.0600
      9 C21        -3.2300    0.6320   36.3750 C.ar      1 S94        -0.0331
     10 C25        -1.3950    1.9880   37.0820 C.ar      1 S94        -0.0331
     11 C10        -4.4150    7.4710   27.6370 C.ar      1 S94        -0.0377
     12 C20        -2.2670    1.5810   36.0930 C.ar      1 S94         0.0915
     13 C6         -3.5810    4.7790   31.0810 C.2       1 S94         0.2603
     14 C4         -4.0530    2.2080   33.4770 C.3       1 S94        -0.0019
     15 C12        -1.8340    1.9010   32.5310 C.3       1 S94        -0.0019
     16 C3         -2.2120    7.5000   28.8830 C.3       1 S94        -0.0133
     17 C9         -3.9510    3.7010   33.2580 C.3       1 S94         0.0369
     18 C13        -1.8010    3.3710   32.1670 C.3       1 S94         0.0369
     19 C2         -3.2810    6.7260   28.1980 C.3       1 S94         0.0178
     20 C1         -3.1100    6.6180   29.6850 C.3       1 S94         0.0568
     21 C7         -2.6970    1.5960   33.7300 C.3       1 S94         0.0849
     22 N8         -3.1060    3.9970   32.1320 N.am      1 S94        -0.2593
     23 N5         -2.6720    5.3930   30.2670 N.am      1 S94        -0.2676
     24 O11        -4.7650    4.9550   30.8490 O.2       1 S94        -0.4006
     25 O19        -2.0830    2.2050   34.8580 O.3       1 S94        -0.3146
     26 H1         -7.3343    9.3683   25.9529 H         1 S94         0.0559
     27 H2         -2.4870    0.0693   39.6212 H         1 S94         0.0523
     28 H3         -7.2128    9.1986   28.4080 H         1 S94         0.0599
     29 H4         -5.5829    8.3122   24.5738 H         1 S94         0.0599
     30 H5         -4.0543   -0.6503   37.8683 H         1 S94         0.0589
     31 H6         -0.7773    1.7694   39.1163 H         1 S94         0.0589
     32 H7         -5.3646    7.9908   29.4730 H         1 S94         0.0557
     33 H8         -3.7323    7.1229   25.6520 H         1 S94         0.0557
     34 H9         -3.9237    0.3116   35.6062 H         1 S94         0.0542
     35 H10        -0.6454    2.7394   36.8616 H         1 S94         0.0542
     36 H11        -4.4940    1.7441   32.5824 H         1 S94         0.0313
     37 H12        -4.6999    2.0168   34.3459 H         1 S94         0.0313
     38 H13        -0.8069    1.5734   32.7493 H         1 S94         0.0313
     39 H14        -2.2233    1.3380   31.6699 H         1 S94         0.0313
     40 H15        -2.2962    8.5933   28.9701 H         1 S94         0.0314
     41 H16        -1.1570    7.2238   28.7396 H         1 S94         0.0314
     42 H17        -3.5279    4.1693   34.1589 H         1 S94         0.0520
     43 H18        -4.9559    4.1073   33.0710 H         1 S94         0.0520
     44 H19        -1.3423    3.4711   31.1722 H         1 S94         0.0520
     45 H20        -1.1842    3.8979   32.9099 H         1 S94         0.0520
     46 H21        -3.0329    5.8721   27.5504 H         1 S94         0.0484
     47 H22        -3.8497    7.0801   30.3553 H         1 S94         0.0580
     48 H23        -2.7893    0.5107   33.8833 H         1 S94         0.0651
     49 H24        -1.7647    5.0106   30.0921 H         1 S94         0.1850
@<TRIPOS>BOND
     1    3    1 ar 
     2    4    1 ar 
     3    5    2 ar 
     4    6    2 ar 
     5    7    3 ar 
     6    8    4 ar 
     7    9    5 ar 
     8   10    6 ar 
     9   11    7 ar 
    10   11    8 ar 
    11   12    9 ar 
    12   12   10 ar 
    13   19   11 1  
    14   25   12 1  
    15   22   13 am 
    16   13   23 am 
    17   13   24 2  
    18   14   17 1  
    19   21   14 1  
    20   15   18 1  
    21   21   15 1  
    22   19   16 1  
    23   20   16 1  
    24   17   22 1  
    25   18   22 1  
    26   20   19 1  
    27   23   20 1  
    28   21   25 1  
    29    1   26 1  
    30    2   27 1  
    31    3   28 1  
    32    4   29 1  
    33    5   30 1  
    34    6   31 1  
    35    7   32 1  
    36    8   33 1  
    37    9   34 1  
    38   10   35 1  
    39   14   36 1  
    40   14   37 1  
    41   15   38 1  
    42   15   39 1  
    43   16   40 1  
    44   16   41 1  
    45   17   42 1  
    46   17   43 1  
    47   18   44 1  
    48   18   45 1  
    49   19   46 1  
    50   20   47 1  
    51   21   48 1  
    52   23   49 1  
@<TRIPOS>SUBSTRUCTURE
     1 S94         1

