### 
### Created by X-TOOL on Mon Sep 10 21:13:24 2018
### 

@<TRIPOS>MOLECULE
4x7h_ligand
   69    74     1     0     0
SMALL
GAST_HUCK


@<TRIPOS>ATOM
      1 N1        -12.2670   31.0350   35.4250 N.ar      1 3Z2        -0.3285
      2 N3        -13.4750   31.5950   27.0840 N.am      1 3Z2        -0.2295
      3 C4        -11.5630   32.1850   35.4770 C.ar      1 3Z2         0.0171
      4 C5        -11.3620   32.9370   34.3180 C.ar      1 3Z2         0.0272
      5 C6        -10.6240   34.1280   34.3820 C.ar      1 3Z2        -0.0223
      6 C7        -12.7850   30.5860   34.2910 C.ar      1 3Z2        -0.0137
      7 C8        -12.6270   31.2950   33.1020 C.ar      1 3Z2        -0.0091
      8 C10       -10.2210   33.6140   39.1370 C.3       1 3Z2         0.0593
      9 C13       -11.4840   31.6600   30.1480 C.ar      1 3Z2        -0.0198
     10 C15       -12.9960   31.9090   28.2920 C.ar      1 3Z2         0.1282
     11 C17       -13.0130   30.6710   26.2340 C.2       1 3Z2         0.2141
     12 C20       -14.7540   31.5290   24.5300 C.2       1 3Z2         0.2390
     13 C21       -14.5830   29.5580   21.5580 C.3       1 3Z2         0.0539
     14 C22       -15.7180   32.2060   22.5370 C.ar      1 3Z2         0.0964
     15 C24       -17.6800   33.4150   21.7630 C.ar      1 3Z2        -0.0755
     16 C26       -15.4740   34.1700   21.1280 C.ar      1 3Z2        -0.0755
     17 C28       -12.5660   28.7980   23.7040 C.ar      1 3Z2         0.0470
     18 O2         -9.7590   34.2680   37.9330 O.3       1 3Z2        -0.3183
     19 C2        -10.3010   33.8110   36.7590 C.ar      1 3Z2         0.1285
     20 C3        -11.0300   32.6190   36.6930 C.ar      1 3Z2        -0.0215
     21 C1        -10.0980   34.5680   35.6030 C.ar      1 3Z2         0.1283
     22 O1         -9.3670   35.7210   35.7190 O.3       1 3Z2        -0.3208
     23 C11        -9.4230   36.6500   34.6230 C.3       1 3Z2         0.0581
     24 C9        -11.9020   32.4880   33.1120 C.ar      1 3Z2         0.1367
     25 O3        -11.7040   33.2260   31.9760 O.3       1 3Z2        -0.2470
     26 C12       -12.1060   32.7500   30.7590 C.ar      1 3Z2         0.1335
     27 C14       -11.9330   31.2330   28.9010 C.ar      1 3Z2        -0.0189
     28 C16       -13.1480   33.3900   30.0990 C.ar      1 3Z2         0.0275
     29 N2        -13.5510   32.9670   28.9090 N.ar      1 3Z2        -0.2934
     30 O4        -12.1110   29.8740   26.4810 O.2       1 3Z2        -0.3954
     31 C18       -13.7290   30.6620   24.8790 C.2       1 3Z2         0.1415
     32 O5        -15.2030   32.4190   25.2510 O.2       1 3Z2        -0.3936
     33 N5        -15.1860   31.2360   23.3020 N.am      1 3Z2        -0.1135
     34 C23       -17.1050   32.3630   22.4870 C.ar      1 3Z2        -0.0388
     35 C25       -16.8610   34.3190   21.0840 C.ar      1 3Z2        -0.0772
     36 C27       -14.9040   33.1180   21.8520 C.ar      1 3Z2        -0.0388
     37 N4        -14.2810   30.3140   22.7980 N.pl3     1 3Z2        -0.1664
     38 C19       -13.5660   29.7770   23.8140 C.2       1 3Z2         0.1297
     39 C29       -12.6010   27.6340   24.4740 C.ar      1 3Z2        -0.0157
     40 C30       -11.5820   26.6860   24.3340 C.ar      1 3Z2         0.0171
     41 N6        -10.5810   26.8780   23.4780 N.ar      1 3Z2        -0.2919
     42 C31       -10.5110   27.9740   22.7280 C.ar      1 3Z2         0.0171
     43 C32       -11.4960   28.9600   22.8190 C.ar      1 3Z2        -0.0157
     44 H1        -14.2744   32.1128   26.7793 H         1 3Z2         0.2259
     45 H2        -10.4601   34.7104   33.4825 H         1 3Z2         0.0520
     46 H3        -13.3392   29.6544   34.2883 H         1 3Z2         0.0771
     47 H4        -13.0617   30.9248   32.1805 H         1 3Z2         0.0547
     48 H5         -9.7223   34.0593   40.0105 H         1 3Z2         0.0578
     49 H6         -9.9828   32.5413   39.0861 H         1 3Z2         0.0578
     50 H7        -11.3093   33.7439   39.2304 H         1 3Z2         0.0578
     51 H8        -10.6614   31.1521   30.6383 H         1 3Z2         0.0642
     52 H9        -13.7458   28.8829   21.3271 H         1 3Z2         0.0527
     53 H10       -14.7267   30.2620   20.7251 H         1 3Z2         0.0527
     54 H11       -15.5004   28.9684   21.7022 H         1 3Z2         0.0527
     55 H12       -18.7577   33.5270   21.7300 H         1 3Z2         0.0577
     56 H13       -14.8375   34.8709   20.6001 H         1 3Z2         0.0577
     57 H14       -11.1820   32.0293   37.5898 H         1 3Z2         0.0484
     58 H15        -8.7939   37.5233   34.8501 H         1 3Z2         0.0575
     59 H16       -10.4625   36.9764   34.4717 H         1 3Z2         0.0575
     60 H17        -9.0554   36.1611   33.7088 H         1 3Z2         0.0575
     61 H18       -11.4652   30.3881   28.4086 H         1 3Z2         0.0578
     62 H19       -13.6349   34.2414   30.5606 H         1 3Z2         0.0711
     63 H20       -17.7432   31.6631   23.0142 H         1 3Z2         0.0503
     64 H21       -17.3017   35.1355   20.5234 H         1 3Z2         0.0487
     65 H22       -13.8261   33.0074   21.8835 H         1 3Z2         0.0503
     66 H23       -13.4111   27.4662   25.1745 H         1 3Z2         0.0770
     67 H24       -11.6079   25.7818   24.9314 H         1 3Z2         0.0835
     68 H25        -9.6829   28.1031   22.0406 H         1 3Z2         0.0835
     69 H26       -11.4309   29.8502   22.2039 H         1 3Z2         0.0770
@<TRIPOS>BOND
     1    3    1 ar 
     2    6    1 ar 
     3    2   10 1  
     4   11    2 am 
     5    4    3 ar 
     6    3   20 ar 
     7    4    5 ar 
     8   24    4 ar 
     9    5   21 ar 
    10    7    6 ar 
    11   24    7 ar 
    12   18    8 1  
    13    9   26 ar 
    14   27    9 ar 
    15   10   27 ar 
    16   10   29 ar 
    17   11   30 2  
    18   31   11 1  
    19   12   31 1  
    20   12   32 2  
    21   33   12 am 
    22   37   13 1  
    23   33   14 1  
    24   14   34 ar 
    25   14   36 ar 
    26   34   15 ar 
    27   15   35 ar 
    28   16   35 ar 
    29   36   16 ar 
    30   38   17 1  
    31   17   39 ar 
    32   17   43 ar 
    33   19   18 1  
    34   20   19 ar 
    35   21   19 ar 
    36   21   22 1  
    37   22   23 1  
    38   25   24 1  
    39   26   25 1  
    40   28   26 ar 
    41   29   28 ar 
    42   31   38 2  
    43   33   37 1  
    44   37   38 1  
    45   39   40 ar 
    46   40   41 ar 
    47   41   42 ar 
    48   42   43 ar 
    49    2   44 1  
    50    5   45 1  
    51    6   46 1  
    52    7   47 1  
    53    8   48 1  
    54    8   49 1  
    55    8   50 1  
    56    9   51 1  
    57   13   52 1  
    58   13   53 1  
    59   13   54 1  
    60   15   55 1  
    61   16   56 1  
    62   20   57 1  
    63   23   58 1  
    64   23   59 1  
    65   23   60 1  
    66   27   61 1  
    67   28   62 1  
    68   34   63 1  
    69   35   64 1  
    70   36   65 1  
    71   39   66 1  
    72   40   67 1  
    73   42   68 1  
    74   43   69 1  
@<TRIPOS>SUBSTRUCTURE
     1 3Z2         1

