### 
### Created by X-TOOL on Mon Sep 10 21:13:17 2018
### 

@<TRIPOS>MOLECULE
4x7i_ligand
   44    47     1     0     0
SMALL
GAST_HUCK


@<TRIPOS>ATOM
      1 O1         27.4950   56.0890   85.0200 O.2       1 3YS        -0.3697
      2 C7         23.6810   55.0450   86.7300 C.ar      1 3YS        -0.0185
      3 C6         22.3890   55.3350   86.2880 C.ar      1 3YS         0.0192
      4 C1         21.2760   57.3060   88.5720 C.3       1 3YS        -0.0031
      5 N1         22.4260   53.9190   90.5200 N.pl3     1 3YS        -0.2674
      6 C5         21.2430   55.1030   87.2680 C.3       1 3YS         0.1246
      7 C4         20.0530   54.4220   86.5720 C.3       1 3YS         0.0693
      8 C3         19.1380   55.9920   88.0080 C.3       1 3YS         0.0468
      9 C2         20.5220   56.4290   87.5760 C.3       1 3YS         0.0139
     10 F1         31.3570   53.6920   89.3930 F         1 3YS        -0.1702
     11 C15        30.3900   54.1520   88.5510 C.ar      1 3YS         0.1658
     12 C14        29.0880   53.6830   88.6900 C.ar      1 3YS         0.0508
     13 N3         28.1070   54.0950   87.8850 N.ar      1 3YS        -0.2780
     14 C16        30.7170   55.0190   87.5380 C.ar      1 3YS        -0.0026
     15 C17        29.7260   55.3620   86.6310 C.ar      1 3YS        -0.0154
     16 C13        28.4210   54.9420   86.8930 C.ar      1 3YS         0.1240
     17 C12        27.2930   55.3760   86.0050 C.2       1 3YS         0.2476
     18 N2         26.0780   54.9320   86.4100 N.am      1 3YS        -0.2279
     19 C8         24.7930   55.2680   85.9220 C.ar      1 3YS         0.0908
     20 C9         24.6220   55.7600   84.6290 C.ar      1 3YS        -0.0112
     21 C10        23.3550   56.0570   84.1680 C.ar      1 3YS        -0.0061
     22 C11        22.2870   55.8500   85.0010 C.ar      1 3YS         0.1528
     23 F          21.0470   56.1340   84.5200 F         1 3YS        -0.1644
     24 N          21.6670   54.3170   88.4140 N.pl3     1 3YS        -0.2826
     25 O          18.8950   54.7130   87.3420 O.3       1 3YS        -0.3848
     26 S          21.8770   56.4370   90.0410 S.3       1 3YS        -0.0880
     27 C          21.9930   54.7520   89.5670 C.cat     1 3YS         0.2582
     28 H          23.8218   54.6371   87.7244 H         1 3YS         0.0676
     29 H          20.6003   58.1090   88.9015 H         1 3YS         0.0370
     30 H          22.1422   57.7446   88.0551 H         1 3YS         0.0370
     31 H          22.5216   52.9131   90.3202 H         1 3YS         0.3186
     32 H          22.6638   54.2835   91.4535 H         1 3YS         0.3186
     33 H          20.2134   53.3346   86.5284 H         1 3YS         0.0501
     34 H          19.9365   54.8166   85.5519 H         1 3YS         0.0501
     35 H          18.3880   56.7339   87.6966 H         1 3YS         0.0555
     36 H          19.0996   55.8678   89.1003 H         1 3YS         0.0555
     37 H          20.4307   57.0116   86.6474 H         1 3YS         0.0275
     38 H          28.8649   52.9654   89.4712 H         1 3YS         0.0830
     39 H          31.7191   55.4229   87.4500 H         1 3YS         0.0735
     40 H          29.9581   55.9399   85.7437 H         1 3YS         0.0752
     41 H          26.0917   54.2724   87.1615 H         1 3YS         0.2248
     42 H          25.4823   55.9091   83.9866 H         1 3YS         0.0762
     43 H          23.2081   56.4462   83.1670 H         1 3YS         0.0657
     44 H          21.7087   53.2966   88.2801 H         1 3YS         0.3102
@<TRIPOS>BOND
     1   17    1 2  
     2    3    2 ar 
     3    2   19 ar 
     4    6    3 1  
     5    3   22 ar 
     6    9    4 1  
     7    4   26 1  
     8   27    5 ar 
     9    6    7 1  
    10    6    9 1  
    11   24    6 1  
    12    7   25 1  
    13    9    8 1  
    14    8   25 1  
    15   11   10 1  
    16   12   11 ar 
    17   14   11 ar 
    18   13   12 ar 
    19   16   13 ar 
    20   15   14 ar 
    21   16   15 ar 
    22   17   16 1  
    23   18   17 am 
    24   19   18 1  
    25   19   20 ar 
    26   21   20 ar 
    27   22   21 ar 
    28   22   23 1  
    29   24   27 ar 
    30   26   27 1  
    31    2   28 1  
    32    4   29 1  
    33    4   30 1  
    34    5   31 1  
    35    5   32 1  
    36    7   33 1  
    37    7   34 1  
    38    8   35 1  
    39    8   36 1  
    40    9   37 1  
    41   12   38 1  
    42   14   39 1  
    43   15   40 1  
    44   18   41 1  
    45   20   42 1  
    46   21   43 1  
    47   24   44 1  
@<TRIPOS>SUBSTRUCTURE
     1 3YS         1

