### 
### Created by X-TOOL on Mon Sep 10 21:13:24 2018
### 

@<TRIPOS>MOLECULE
4x7j_ligand
   57    60     1     0     0
SMALL
GAST_HUCK


@<TRIPOS>ATOM
      1 C19        30.7140    6.7820   -4.6360 C.3       1 3Z1         0.0197
      2 N18        29.8940    7.9960   -4.4540 N.pl3     1 3Z1        -0.2924
      3 C16        29.2710    8.2910   -3.3020 C.ar      1 3Z1         0.1867
      4 N17        29.2000    7.4010   -2.2870 N.ar      1 3Z1        -0.2680
      5 N15        28.7070    9.5080   -3.1680 N.ar      1 3Z1        -0.2436
      6 C14        28.0800    9.8710   -2.0550 C.ar      1 3Z1         0.0312
      7 C13        27.9880    8.9770   -0.9900 C.ar      1 3Z1         0.0192
      8 C9         27.3320    9.3290    0.1960 C.ar      1 3Z1        -0.0422
      9 C12        28.5720    7.7210   -1.1360 C.ar      1 3Z1         0.0394
     10 C10        28.4990    6.8050   -0.0900 C.ar      1 3Z1        -0.0419
     11 C11        27.8450    7.1520    1.0930 C.ar      1 3Z1        -0.0520
     12 C8         27.2590    8.4110    1.2490 C.ar      1 3Z1        -0.0196
     13 C1         26.5950    8.7130    2.4550 C.ar      1 3Z1         0.0108
     14 C2         27.2010    9.4670    3.4780 C.ar      1 3Z1         0.0624
     15 N20        28.4450    9.9330    3.3330 N.pl3     1 3Z1        -0.3313
     16 C6         25.2880    8.2310    2.6420 C.ar      1 3Z1        -0.0425
     17 C7         24.5750    7.4110    1.5520 C.3       1 3Z1        -0.0305
     18 C5         24.5940    8.4960    3.8270 C.ar      1 3Z1        -0.0660
     19 C4         25.1940    9.2460    4.8340 C.ar      1 3Z1        -0.0584
     20 C3         26.5010    9.7210    4.6740 C.ar      1 3Z1         0.0678
     21 C21        27.1120   10.5610    5.8150 C.2       1 3Z1         0.2182
     22 O22        28.0920   11.2760    5.6180 O.2       1 3Z1        -0.3845
     23 N23        26.4730   10.4580    6.9860 N.am      1 3Z1        -0.2352
     24 C24        26.6940   11.1800    8.0960 C.ar      1 3Z1         0.0841
     25 C29        27.5830   12.2610    8.1390 C.ar      1 3Z1        -0.0229
     26 C25        25.9360   10.8780    9.2260 C.ar      1 3Z1        -0.0148
     27 C26        26.0900   11.6180   10.3960 C.ar      1 3Z1        -0.0052
     28 C27        26.9900   12.6900   10.4410 C.ar      1 3Z1         0.1214
     29 O30        27.1490   13.4130   11.5910 O.3       1 3Z1        -0.3000
     30 C31        25.9490   14.0390   12.0710 C.3       1 3Z1         0.0679
     31 C28        27.7440   13.0080    9.3080 C.ar      1 3Z1         0.0599
     32 C32        28.7330   14.1820    9.3590 C.3       1 3Z1         0.3602
     33 F34        28.0610   15.2940    9.6010 F         1 3Z1        -0.2354
     34 F35        29.3770   14.3230    8.2040 F         1 3Z1        -0.2354
     35 F33        29.6040   13.9870   10.3400 F         1 3Z1        -0.2354
     36 H1         31.1176    6.7622   -5.6591 H         1 3Z1         0.0489
     37 H2         30.0912    5.8906   -4.4702 H         1 3Z1         0.0489
     38 H3         31.5442    6.7887   -3.9144 H         1 3Z1         0.0489
     39 H4         29.7954    8.6461   -5.2468 H         1 3Z1         0.1865
     40 H5         27.6414   10.8591   -1.9753 H         1 3Z1         0.0994
     41 H6         26.8821   10.3100    0.2978 H         1 3Z1         0.0639
     42 H7         28.9492    5.8244   -0.1943 H         1 3Z1         0.0617
     43 H8         27.7907    6.4339    1.9033 H         1 3Z1         0.0665
     44 H9         28.9644    9.7522    2.4621 H         1 3Z1         0.1762
     45 H10        28.8844   10.4730    4.0921 H         1 3Z1         0.1762
     46 H11        23.5686    7.1352    1.9001 H         1 3Z1         0.0403
     47 H12        25.1531    6.4990    1.3422 H         1 3Z1         0.0403
     48 H13        24.4936    8.0127    0.6348 H         1 3Z1         0.0403
     49 H14        23.5874    8.1167    3.9612 H         1 3Z1         0.0467
     50 H15        24.6477    9.4630    5.7448 H         1 3Z1         0.0622
     51 H16        25.7517    9.7675    7.0403 H         1 3Z1         0.2227
     52 H17        28.1530   12.5211    7.2544 H         1 3Z1         0.0621
     53 H18        25.2225   10.0625    9.1941 H         1 3Z1         0.0765
     54 H19        25.5105   11.3629   11.2758 H         1 3Z1         0.0612
     55 H20        26.1697   14.5954   12.9939 H         1 3Z1         0.0596
     56 H21        25.1918   13.2688   12.2794 H         1 3Z1         0.0596
     57 H22        25.5664   14.7323   11.3075 H         1 3Z1         0.0596
@<TRIPOS>BOND
     1    1    2 1  
     2    2    3 1  
     3    3    4 ar 
     4    3    5 ar 
     5    4    9 ar 
     6    5    6 ar 
     7    6    7 ar 
     8    7    8 ar 
     9    7    9 ar 
    10    8   12 ar 
    11    9   10 ar 
    12   10   11 ar 
    13   11   12 ar 
    14   12   13 1  
    15   13   14 ar 
    16   13   16 ar 
    17   14   15 1  
    18   14   20 ar 
    19   16   17 1  
    20   16   18 ar 
    21   18   19 ar 
    22   19   20 ar 
    23   20   21 1  
    24   21   22 2  
    25   21   23 am 
    26   23   24 1  
    27   24   25 ar 
    28   24   26 ar 
    29   25   31 ar 
    30   26   27 ar 
    31   27   28 ar 
    32   28   29 1  
    33   28   31 ar 
    34   29   30 1  
    35   31   32 1  
    36   32   33 1  
    37   32   34 1  
    38   32   35 1  
    39    1   36 1  
    40    1   37 1  
    41    1   38 1  
    42    2   39 1  
    43    6   40 1  
    44    8   41 1  
    45   10   42 1  
    46   11   43 1  
    47   15   44 1  
    48   15   45 1  
    49   17   46 1  
    50   17   47 1  
    51   17   48 1  
    52   18   49 1  
    53   19   50 1  
    54   23   51 1  
    55   25   52 1  
    56   26   53 1  
    57   27   54 1  
    58   30   55 1  
    59   30   56 1  
    60   30   57 1  
@<TRIPOS>SUBSTRUCTURE
     1 3Z1         1

