### 
### Created by X-TOOL on Mon Sep 10 21:13:23 2018
### 

@<TRIPOS>MOLECULE
4x7k_ligand
   70    75     1     0     0
SMALL
GAST_HUCK


@<TRIPOS>ATOM
      1 C11        28.8040   12.2180    9.1050 C.ar      1 3Z3        -0.0302
      2 C12        29.4620   13.4510    9.1840 C.ar      1 3Z3        -0.0444
      3 C13        29.0100   14.5140    8.4000 C.ar      1 3Z3        -0.0463
      4 C14        27.9100   14.3390    7.5590 C.ar      1 3Z3        -0.0444
      5 C15        27.2480   13.1070    7.4860 C.ar      1 3Z3        -0.0302
      6 C5         27.6970   12.0370    8.2610 C.ar      1 3Z3         0.0476
      7 C2         27.0710   10.7770    8.2470 C.2       1 3Z3         0.1496
      8 N1         26.5620   10.1150    9.2990 N.2       1 3Z3        -0.1816
      9 C24        26.5520   10.6810   10.6630 C.3       1 3Z3         0.0493
     10 N2         26.0570    9.0180    8.9750 N.am      1 3Z3        -0.0443
     11 C4         25.5150    8.1190    9.8270 C.ar      1 3Z3         0.1835
     12 C6         24.1690    7.7590    9.8170 C.ar      1 3Z3         0.0040
     13 C7         23.6930    6.8060   10.7290 C.ar      1 3Z3        -0.0482
     14 C8         24.5610    6.1970   11.6410 C.ar      1 3Z3        -0.0526
     15 C9         25.9140    6.5450   11.6560 C.ar      1 3Z3        -0.0482
     16 C10        26.3810    7.4970   10.7400 C.ar      1 3Z3         0.0040
     17 C3         26.2220    8.8140    7.6660 C.2       1 3Z3         0.3552
     18 O1         25.8460    7.8070    7.0580 O.2       1 3Z3        -0.3195
     19 C1         26.8620    9.9470    7.1450 C.3       1 3Z3         0.2217
     20 C16        27.3060   10.2500    5.7060 C.2       1 3Z3         0.1673
     21 O2         28.2650   11.0110    5.5460 O.2       1 3Z3        -0.3799
     22 C17        26.6400    9.5840    4.4770 C.ar      1 3Z3         0.0505
     23 C22        27.3890    9.3690    3.3020 C.ar      1 3Z3         0.0599
     24 N3         28.6700    9.7470    3.2480 N.pl3     1 3Z3        -0.3316
     25 C18        25.2890    9.2080    4.5340 C.ar      1 3Z3        -0.0603
     26 C19        24.6980    8.6010    3.4260 C.ar      1 3Z3        -0.0666
     27 C20        25.4410    8.3850    2.2600 C.ar      1 3Z3        -0.0437
     28 C33        24.7120    7.7340    1.0670 C.3       1 3Z3        -0.0309
     29 C21        26.7950    8.7650    2.1840 C.ar      1 3Z3         0.0103
     30 C23        27.4950    8.4820    0.9970 C.ar      1 3Z3         0.0149
     31 C29        28.1000    7.2100    0.8370 C.ar      1 3Z3        -0.0549
     32 C28        28.7680    6.8780   -0.3390 C.ar      1 3Z3        -0.0471
     33 C27        28.8450    7.7930   -1.3870 C.ar      1 3Z3         0.0379
     34 N5         29.4990    7.4900   -2.5450 N.ar      1 3Z3        -0.2701
     35 C31        29.5450    8.4090   -3.5430 C.ar      1 3Z3         0.1852
     36 N6         30.1620    8.2180   -4.7270 N.pl3     1 3Z3        -0.2926
     37 C32        30.9660    7.0220   -5.0570 C.3       1 3Z3         0.0197
     38 N4         28.9480    9.6000   -3.3700 N.ar      1 3Z3        -0.2450
     39 C30        28.3120    9.9420   -2.2570 C.ar      1 3Z3         0.0327
     40 C26        28.2370    9.0380   -1.2220 C.ar      1 3Z3         0.0560
     41 C25        27.5640    9.3820   -0.0410 C.ar      1 3Z3         0.1564
     42 F1         26.9870   10.5830    0.1140 F         1 3Z3        -0.1764
     43 H1         29.1558   11.3877    9.7066 H         1 3Z3         0.0751
     44 H2         30.3114   13.5787    9.8453 H         1 3Z3         0.0664
     45 H3         29.5124   15.4735    8.4443 H         1 3Z3         0.0748
     46 H4         27.5631   15.1686    6.9536 H         1 3Z3         0.0664
     47 H5         26.3923   12.9854    6.8317 H         1 3Z3         0.0751
     48 H6         27.0654   11.6538   10.6600 H         1 3Z3         0.0467
     49 H7         27.0707    9.9948   11.3486 H         1 3Z3         0.0467
     50 H8         25.5125   10.8161   10.9963 H         1 3Z3         0.0467
     51 H9         23.4906    8.2151    9.1051 H         1 3Z3         0.0715
     52 H10        22.6424    6.5388   10.7271 H         1 3Z3         0.0648
     53 H11        24.1841    5.4553   12.3359 H         1 3Z3         0.0692
     54 H12        26.5924    6.0854   12.3657 H         1 3Z3         0.0648
     55 H13        27.4330    7.7586   10.7364 H         1 3Z3         0.0715
     56 H14        25.8996   10.4219    6.9035 H         1 3Z3         0.1077
     57 H15        29.1109   10.1909    4.0662 H         1 3Z3         0.1760
     58 H16        29.2162    9.5943    2.3882 H         1 3Z3         0.1760
     59 H17        24.7094    9.3880    5.4322 H         1 3Z3         0.0617
     60 H18        23.6589    8.2953    3.4683 H         1 3Z3         0.0465
     61 H19        23.6695    7.5212    1.3462 H         1 3Z3         0.0402
     62 H20        25.2178    6.7955    0.7960 H         1 3Z3         0.0402
     63 H21        24.7286    8.4209    0.2080 H         1 3Z3         0.0402
     64 H22        28.0418    6.4856    1.6413 H         1 3Z3         0.0650
     65 H23        29.2304    5.9027   -0.4396 H         1 3Z3         0.0571
     66 H24        30.0673    8.9502   -5.4452 H         1 3Z3         0.1865
     67 H25        31.3572    7.1143   -6.0809 H         1 3Z3         0.0489
     68 H26        30.3343    6.1243   -4.9854 H         1 3Z3         0.0489
     69 H27        31.8047    6.9375   -4.3503 H         1 3Z3         0.0489
     70 H28        27.8570   10.9215   -2.1640 H         1 3Z3         0.0996
@<TRIPOS>BOND
     1    1    2 ar 
     2    1    6 ar 
     3    2    3 ar 
     4    3    4 ar 
     5    4    5 ar 
     6    5    6 ar 
     7    6    7 1  
     8    7    8 2  
     9    7   19 1  
    10    8    9 1  
    11    8   10 1  
    12   10   11 1  
    13   10   17 am 
    14   11   12 ar 
    15   11   16 ar 
    16   12   13 ar 
    17   13   14 ar 
    18   14   15 ar 
    19   15   16 ar 
    20   17   18 2  
    21   17   19 1  
    22   19   20 1  
    23   20   21 2  
    24   20   22 1  
    25   22   23 ar 
    26   22   25 ar 
    27   23   24 1  
    28   23   29 ar 
    29   25   26 ar 
    30   26   27 ar 
    31   27   28 1  
    32   27   29 ar 
    33   29   30 1  
    34   30   31 ar 
    35   30   41 ar 
    36   31   32 ar 
    37   32   33 ar 
    38   33   34 ar 
    39   33   40 ar 
    40   34   35 ar 
    41   35   36 1  
    42   35   38 ar 
    43   36   37 1  
    44   38   39 ar 
    45   39   40 ar 
    46   40   41 ar 
    47   41   42 1  
    48    1   43 1  
    49    2   44 1  
    50    3   45 1  
    51    4   46 1  
    52    5   47 1  
    53    9   48 1  
    54    9   49 1  
    55    9   50 1  
    56   12   51 1  
    57   13   52 1  
    58   14   53 1  
    59   15   54 1  
    60   16   55 1  
    61   19   56 1  
    62   24   57 1  
    63   24   58 1  
    64   25   59 1  
    65   26   60 1  
    66   28   61 1  
    67   28   62 1  
    68   28   63 1  
    69   31   64 1  
    70   32   65 1  
    71   36   66 1  
    72   37   67 1  
    73   37   68 1  
    74   37   69 1  
    75   39   70 1  
@<TRIPOS>SUBSTRUCTURE
     1 3Z3         1

