### 
### Created by X-TOOL on Mon Sep 10 21:13:22 2018
### 

@<TRIPOS>MOLECULE
4x7l_ligand
   67    72     1     0     0
SMALL
GAST_HUCK


@<TRIPOS>ATOM
      1 C32        31.0340    6.9460   -4.9020 C.3       1 3Z4         0.0237
      2 N4         30.2970    8.1850   -4.5870 N.pl3     1 3Z4        -0.2828
      3 C24        29.6760    8.3420   -3.4080 C.2       1 3Z4         0.1845
      4 N3         29.0760    9.4730   -3.0300 N.2       1 3Z4        -0.3082
      5 S1         29.5190    7.2020   -2.1610 S.3       1 3Z4         0.0275
      6 C23        28.6310    8.2180   -1.1300 C.ar      1 3Z4         0.0473
      7 C28        28.1030    8.0360    0.1560 C.ar      1 3Z4        -0.0499
      8 C22        28.5120    9.4510   -1.8040 C.ar      1 3Z4         0.0090
      9 C25        27.8420   10.4910   -1.1710 C.ar      1 3Z4        -0.0646
     10 C26        27.3100   10.3110    0.0980 C.ar      1 3Z4        -0.0717
     11 C27        27.4390    9.0980    0.7800 C.ar      1 3Z4        -0.0381
     12 C16        26.8180    9.0640    2.0440 C.ar      1 3Z4         0.0037
     13 C17        27.4520    9.5790    3.1840 C.ar      1 3Z4         0.0576
     14 N5         28.7110   10.0490    3.0980 N.pl3     1 3Z4        -0.3319
     15 C21        25.4940    8.5900    2.1510 C.ar      1 3Z4        -0.0443
     16 C29        24.7230    8.0390    0.9330 C.3       1 3Z4        -0.0310
     17 C20        24.8290    8.5990    3.3820 C.ar      1 3Z4        -0.0671
     18 C19        25.4660    9.1060    4.5120 C.ar      1 3Z4        -0.0622
     19 C18        26.7830    9.5830    4.4210 C.ar      1 3Z4         0.0363
     20 C30        27.4910   10.1600    5.6670 C.2       1 3Z4         0.1228
     21 O2         28.4320   10.9470    5.5000 O.2       1 3Z4        -0.4069
     22 C13        27.0280    9.8800    7.1050 C.2       1 3Z4         0.1104
     23 C15        26.3940    8.7510    7.6320 C.2       1 3Z4         0.2331
     24 O1         26.0720    7.7200    7.0340 O.2       1 3Z4        -0.3959
     25 N2         26.1920    8.9760    8.9310 N.am      1 3Z4        -0.1143
     26 C7         25.6430    8.0690    9.7660 C.ar      1 3Z4         0.0963
     27 C8         26.5110    7.3830   10.6300 C.ar      1 3Z4        -0.0388
     28 C9         26.0360    6.4130   11.5240 C.ar      1 3Z4        -0.0755
     29 C10        24.6680    6.1160   11.5330 C.ar      1 3Z4        -0.0772
     30 C11        23.8000    6.7910   10.6680 C.ar      1 3Z4        -0.0755
     31 C12        24.2840    7.7590    9.7780 C.ar      1 3Z4        -0.0388
     32 N1         26.6560   10.0960    9.2450 N.pl3     1 3Z4        -0.1678
     33 C31        26.6030   10.7040   10.5940 C.3       1 3Z4         0.0540
     34 C14        27.1780   10.7460    8.1900 C.2       1 3Z4         0.1188
     35 C1         27.7780   12.0230    8.1990 C.ar      1 3Z4         0.0295
     36 C2         28.9010   12.2110    9.0260 C.ar      1 3Z4        -0.0416
     37 C3         29.5450   13.4510    9.1110 C.ar      1 3Z4        -0.0541
     38 C4         29.0670   14.5220    8.3570 C.ar      1 3Z4        -0.0556
     39 C5         27.9490   14.3430    7.5390 C.ar      1 3Z4        -0.0541
     40 C6         27.3010   13.1010    7.4580 C.ar      1 3Z4        -0.0416
     41 H1         31.4650    7.0223   -5.9112 H         1 3Z4         0.0497
     42 H2         30.3453    6.0893   -4.8613 H         1 3Z4         0.0497
     43 H3         31.8411    6.8029   -4.1685 H         1 3Z4         0.0497
     44 H4         30.2586    8.9423   -5.2841 H         1 3Z4         0.1928
     45 H5         28.2080    7.0828    0.6615 H         1 3Z4         0.0533
     46 H6         27.7345   11.4470   -1.6706 H         1 3Z4         0.0535
     47 H7         26.7818   11.1307    0.5715 H         1 3Z4         0.0530
     48 H8         29.2010   10.0461    2.1920 H         1 3Z4         0.1758
     49 H9         29.1839   10.4114    3.9382 H         1 3Z4         0.1758
     50 H10        23.7155    7.7282    1.2468 H         1 3Z4         0.0402
     51 H11        25.2613    7.1736    0.5191 H         1 3Z4         0.0402
     52 H12        24.6425    8.8224    0.1650 H         1 3Z4         0.0402
     53 H13        23.8192    8.2118    3.4561 H         1 3Z4         0.0464
     54 H14        24.9446    9.1322    5.4620 H         1 3Z4         0.0613
     55 H15        27.5711    7.6080   10.6055 H         1 3Z4         0.0503
     56 H16        26.7159    5.9022   12.1962 H         1 3Z4         0.0577
     57 H17        24.2813    5.3630   12.2102 H         1 3Z4         0.0487
     58 H18        22.7405    6.5624   10.6865 H         1 3Z4         0.0577
     59 H19        23.6044    8.2647    9.1016 H         1 3Z4         0.0503
     60 H20        27.0892   11.6905   10.5709 H         1 3Z4         0.0527
     61 H21        27.1268   10.0538   11.3101 H         1 3Z4         0.0527
     62 H22        25.5537   10.8196   10.9032 H         1 3Z4         0.0527
     63 H23        29.2753   11.3778    9.6097 H         1 3Z4         0.0686
     64 H24        30.4066   13.5773    9.7565 H         1 3Z4         0.0635
     65 H25        29.5594   15.4865    8.4053 H         1 3Z4         0.0669
     66 H26        27.5756   15.1777    6.9569 H         1 3Z4         0.0635
     67 H27        26.4322   12.9812    6.8209 H         1 3Z4         0.0686
@<TRIPOS>BOND
     1    1    2 1  
     2    2    3 1  
     3    3    4 2  
     4    3    5 1  
     5    4    8 1  
     6    5    6 1  
     7    6    7 ar 
     8    6    8 ar 
     9    7   11 ar 
    10    8    9 ar 
    11    9   10 ar 
    12   10   11 ar 
    13   11   12 1  
    14   12   13 ar 
    15   12   15 ar 
    16   13   14 1  
    17   13   19 ar 
    18   15   16 1  
    19   15   17 ar 
    20   17   18 ar 
    21   18   19 ar 
    22   19   20 1  
    23   20   21 2  
    24   20   22 1  
    25   22   23 1  
    26   22   34 2  
    27   23   24 2  
    28   23   25 am 
    29   25   26 1  
    30   25   32 1  
    31   26   27 ar 
    32   26   31 ar 
    33   27   28 ar 
    34   28   29 ar 
    35   29   30 ar 
    36   30   31 ar 
    37   32   33 1  
    38   32   34 1  
    39   34   35 1  
    40   35   36 ar 
    41   35   40 ar 
    42   36   37 ar 
    43   37   38 ar 
    44   38   39 ar 
    45   39   40 ar 
    46    1   41 1  
    47    1   42 1  
    48    1   43 1  
    49    2   44 1  
    50    7   45 1  
    51    9   46 1  
    52   10   47 1  
    53   14   48 1  
    54   14   49 1  
    55   16   50 1  
    56   16   51 1  
    57   16   52 1  
    58   17   53 1  
    59   18   54 1  
    60   27   55 1  
    61   28   56 1  
    62   29   57 1  
    63   30   58 1  
    64   31   59 1  
    65   33   60 1  
    66   33   61 1  
    67   33   62 1  
    68   36   63 1  
    69   37   64 1  
    70   38   65 1  
    71   39   66 1  
    72   40   67 1  
@<TRIPOS>SUBSTRUCTURE
     1 3Z4         1

