### 
### Created by X-TOOL on Mon Sep 10 21:13:25 2018
### 

@<TRIPOS>MOLECULE
4x7n_ligand
   68    73     1     0     0
SMALL
GAST_HUCK


@<TRIPOS>ATOM
      1 C27        28.0130    7.8390    0.2880 C.ar      1 3Z5        -0.0474
      2 C25        28.6100    7.8830   -0.9750 C.ar      1 3Z5        -0.0015
      3 C28        29.3310    6.7940   -1.4700 C.ar      1 3Z5        -0.0394
      4 C31        29.9180    6.8810   -2.7380 C.ar      1 3Z5        -0.0293
      5 C32        29.7710    8.0500   -3.4850 C.ar      1 3Z5         0.0228
      6 C34        30.4040    8.1720   -4.8830 C.3       1 3Z5        -0.0141
      7 N4         29.0700    9.0870   -2.9830 N.ar      1 3Z5        -0.3020
      8 C26        28.4990    9.0310   -1.7670 C.ar      1 3Z5         0.0345
      9 C29        27.7900   10.1310   -1.3000 C.ar      1 3Z5        -0.0444
     10 C33        27.1970   10.0860   -0.0420 C.ar      1 3Z5        -0.0544
     11 C30        27.3070    8.9500    0.7630 C.ar      1 3Z5        -0.0226
     12 C12        26.6620    8.9800    2.0080 C.ar      1 3Z5         0.0105
     13 C13        27.2950    9.5290    3.1350 C.ar      1 3Z5         0.0597
     14 N3         28.5470   10.0040    3.0450 N.pl3     1 3Z5        -0.3312
     15 C11        25.3430    8.5020    2.1200 C.ar      1 3Z5        -0.0423
     16 C14        24.5800    7.9040    0.9230 C.3       1 3Z5        -0.0304
     17 C10        24.6790    8.5520    3.3440 C.ar      1 3Z5        -0.0659
     18 C9         25.3070    9.0940    4.4590 C.ar      1 3Z5        -0.0612
     19 C8         26.6170    9.5730    4.3710 C.ar      1 3Z5         0.0376
     20 C7         27.3190   10.1780    5.6120 C.2       1 3Z5         0.1231
     21 O2         28.2950   10.9020    5.4340 O.2       1 3Z5        -0.4069
     22 C1         26.8660    9.9160    7.0600 C.2       1 3Z5         0.1104
     23 C3         26.2450    8.7910    7.5760 C.2       1 3Z5         0.2331
     24 O1         25.9130    7.7780    6.9550 O.2       1 3Z5        -0.3959
     25 N2         26.0520    9.0000    8.8810 N.am      1 3Z5        -0.1143
     26 C4         25.4880    8.1060    9.7140 C.ar      1 3Z5         0.0963
     27 C15        24.1270    7.8060    9.6590 C.ar      1 3Z5        -0.0388
     28 C16        23.5820    6.8640   10.5390 C.ar      1 3Z5        -0.0755
     29 C17        24.3950    6.2120   11.4720 C.ar      1 3Z5        -0.0772
     30 C18        25.7590    6.5040   11.5340 C.ar      1 3Z5        -0.0755
     31 C19        26.2980    7.4420   10.6510 C.ar      1 3Z5        -0.0388
     32 N1         26.5090   10.1150    9.2050 N.pl3     1 3Z5        -0.1678
     33 C5         26.4700   10.6800   10.5770 C.3       1 3Z5         0.0540
     34 C2         27.0330   10.7660    8.1560 C.2       1 3Z5         0.1188
     35 C6         27.6310   12.0410    8.1460 C.ar      1 3Z5         0.0295
     36 C20        28.7510   12.2800    8.9560 C.ar      1 3Z5        -0.0416
     37 C21        29.3670   13.5300    8.9890 C.ar      1 3Z5        -0.0541
     38 C22        28.8630   14.5640    8.1990 C.ar      1 3Z5        -0.0556
     39 C23        27.7470   14.3330    7.3920 C.ar      1 3Z5        -0.0541
     40 C24        27.1280   13.0810    7.3620 C.ar      1 3Z5        -0.0416
     41 H1         28.0966    6.9468    0.8979 H         1 3Z5         0.0609
     42 H2         29.4349    5.8913   -0.8788 H         1 3Z5         0.0753
     43 H3         30.4827    6.0459   -3.1365 H         1 3Z5         0.0657
     44 H4         30.1754    9.1623   -5.3038 H         1 3Z5         0.0432
     45 H5         29.9945    7.3909   -5.5404 H         1 3Z5         0.0432
     46 H6         31.4943    8.0502   -4.8037 H         1 3Z5         0.0432
     47 H7         27.6992   11.0204   -1.9131 H         1 3Z5         0.0621
     48 H8         26.6419   10.9446    0.3182 H         1 3Z5         0.0635
     49 H9         29.0458    9.9738    2.1443 H         1 3Z5         0.1763
     50 H10        29.0091   10.3987    3.8766 H         1 3Z5         0.1763
     51 H11        23.5733    7.5994    1.2451 H         1 3Z5         0.0404
     52 H12        25.1241    7.0270    0.5424 H         1 3Z5         0.0404
     53 H13        24.4976    8.6584    0.1267 H         1 3Z5         0.0404
     54 H14        23.6691    8.1668    3.4268 H         1 3Z5         0.0467
     55 H15        24.7772    9.1456    5.4033 H         1 3Z5         0.0622
     56 H16        23.4914    8.3024    8.9347 H         1 3Z5         0.0503
     57 H17        22.5226    6.6381   10.4973 H         1 3Z5         0.0577
     58 H18        23.9661    5.4801   12.1469 H         1 3Z5         0.0487
     59 H19        26.3929    6.0078   12.2600 H         1 3Z5         0.0577
     60 H20        27.3588    7.6616   10.6889 H         1 3Z5         0.0503
     61 H21        26.9418   11.6737   10.5778 H         1 3Z5         0.0527
     62 H22        27.0149   10.0149   11.2631 H         1 3Z5         0.0527
     63 H23        25.4245   10.7702   10.9068 H         1 3Z5         0.0527
     64 H24        29.1452   11.4770    9.5682 H         1 3Z5         0.0686
     65 H25        30.2302   13.6974    9.6230 H         1 3Z5         0.0635
     66 H26        29.3346   15.5400    8.2117 H         1 3Z5         0.0669
     67 H27        27.3552   15.1372    6.7797 H         1 3Z5         0.0635
     68 H28        26.2607   12.9176    6.7326 H         1 3Z5         0.0686
@<TRIPOS>BOND
     1    1    2 ar 
     2    1   11 ar 
     3    2    3 ar 
     4    2    8 ar 
     5    3    4 ar 
     6    4    5 ar 
     7    5    6 1  
     8    5    7 ar 
     9    7    8 ar 
    10    8    9 ar 
    11    9   10 ar 
    12   10   11 ar 
    13   11   12 1  
    14   12   13 ar 
    15   12   15 ar 
    16   13   14 1  
    17   13   19 ar 
    18   15   16 1  
    19   15   17 ar 
    20   17   18 ar 
    21   18   19 ar 
    22   19   20 1  
    23   20   21 2  
    24   20   22 1  
    25   22   23 1  
    26   22   34 2  
    27   23   24 2  
    28   23   25 am 
    29   25   26 1  
    30   25   32 1  
    31   26   27 ar 
    32   26   31 ar 
    33   27   28 ar 
    34   28   29 ar 
    35   29   30 ar 
    36   30   31 ar 
    37   32   33 1  
    38   32   34 1  
    39   34   35 1  
    40   35   36 ar 
    41   35   40 ar 
    42   36   37 ar 
    43   37   38 ar 
    44   38   39 ar 
    45   39   40 ar 
    46    1   41 1  
    47    3   42 1  
    48    4   43 1  
    49    6   44 1  
    50    6   45 1  
    51    6   46 1  
    52    9   47 1  
    53   10   48 1  
    54   14   49 1  
    55   14   50 1  
    56   16   51 1  
    57   16   52 1  
    58   16   53 1  
    59   17   54 1  
    60   18   55 1  
    61   27   56 1  
    62   28   57 1  
    63   29   58 1  
    64   30   59 1  
    65   31   60 1  
    66   33   61 1  
    67   33   62 1  
    68   33   63 1  
    69   36   64 1  
    70   37   65 1  
    71   38   66 1  
    72   39   67 1  
    73   40   68 1  
@<TRIPOS>SUBSTRUCTURE
     1 3Z5         1

