### 
### Created by X-TOOL on Mon Sep 10 21:13:24 2018
### 

@<TRIPOS>MOLECULE
4x7o_ligand
   54    58     1     0     0
SMALL
GAST_HUCK


@<TRIPOS>ATOM
      1 F1        -41.0510   52.0520   -3.2930 F         1 3Z6        -0.2206
      2 C23       -39.9940   52.1270   -4.0830 C.3       1 3Z6         0.3740
      3 F2        -39.0210   52.6440   -3.3430 F         1 3Z6        -0.2206
      4 F3        -40.3100   52.9060   -5.1120 F         1 3Z6        -0.2206
      5 C9        -39.5720   50.7350   -4.5980 C.ar      1 3Z6         0.0394
      6 C8        -40.5550   49.8440   -5.0280 C.ar      1 3Z6        -0.0319
      7 C10       -38.2230   50.3460   -4.6350 C.ar      1 3Z6        -0.0040
      8 C11       -37.8680   49.0720   -5.0950 C.ar      1 3Z6         0.1559
      9 F4        -36.5850   48.6570   -5.1330 F         1 3Z6        -0.1770
     10 C12       -38.8530   48.1880   -5.5150 C.ar      1 3Z6         0.0049
     11 C7        -40.1900   48.5810   -5.4930 C.ar      1 3Z6         0.0052
     12 C22       -41.2660   47.6140   -5.9590 C.3       1 3Z6         0.0924
     13 C21       -41.1550   47.2510   -7.4520 C.2       1 3Z6         0.2587
     14 O1        -40.4200   46.3190   -7.7940 O.2       1 3Z6        -0.3573
     15 N4        -41.8550   47.9670   -8.3490 N.am      1 3Z6        -0.1772
     16 C15       -42.7810   49.0130   -7.8900 C.2       1 3Z6         0.0518
     17 C16       -43.4850   49.4850   -9.1500 C.2       1 3Z6        -0.0664
     18 C13       -43.0170   48.4930  -10.2050 C.ar      1 3Z6        -0.0325
     19 C20       -43.4250   48.3480  -11.5370 C.ar      1 3Z6        -0.0791
     20 C14       -42.0220   47.6680   -9.6470 C.ar      1 3Z6         0.0925
     21 C19       -41.4670   46.6770  -10.4540 C.ar      1 3Z6        -0.0423
     22 C18       -41.8800   46.5320  -11.7870 C.ar      1 3Z6        -0.0768
     23 C17       -42.8360   47.3820  -12.3540 C.ar      1 3Z6        -0.0572
     24 C5        -43.2920   47.1680  -13.6620 C.2       1 3Z6        -0.0166
     25 C1        -42.6140   47.0580  -14.8830 C.ar      1 3Z6         0.0468
     26 C6        -44.5830   46.9060  -13.9150 C.2       1 3Z6         0.0362
     27 N3        -44.7460   46.6820  -15.2150 N.pl3     1 3Z6        -0.2552
     28 C25       -46.0390   46.3850  -15.8740 C.3       1 3Z6         0.0440
     29 C2        -43.5870   46.7650  -15.8460 C.ar      1 3Z6         0.1312
     30 N1        -43.2720   46.6160  -17.1450 N.ar      1 3Z6        -0.2793
     31 C3        -42.0010   46.7440  -17.5390 C.ar      1 3Z6         0.0626
     32 C24       -41.6850   46.5640  -19.0240 C.3       1 3Z6        -0.0061
     33 N2        -41.0300   47.0290  -16.6370 N.ar      1 3Z6        -0.2727
     34 C4        -41.3040   47.1930  -15.3220 C.ar      1 3Z6         0.1109
     35 N5        -40.3330   47.4730  -14.4600 N.pl3     1 3Z6        -0.3167
     36 H1        -41.5996   50.1324   -5.0008 H         1 3Z6         0.0755
     37 H2        -37.4534   51.0349   -4.3061 H         1 3Z6         0.0785
     38 H3        -38.5831   47.1960   -5.8587 H         1 3Z6         0.0797
     39 H4        -42.2492   48.0752   -5.7842 H         1 3Z6         0.0681
     40 H5        -41.1843   46.6898   -5.3682 H         1 3Z6         0.0681
     41 H6        -42.9291   49.3701   -6.8719 H         1 3Z6         0.0952
     42 H7        -44.1617   50.3298   -9.2698 H         1 3Z6         0.0239
     43 H8        -44.2025   48.9896  -11.9355 H         1 3Z6         0.0472
     44 H9        -40.7112   46.0137  -10.0493 H         1 3Z6         0.0540
     45 H10       -41.4483   45.7428  -12.3919 H         1 3Z6         0.0488
     46 H11       -45.3763   46.8807  -13.1693 H         1 3Z6         0.0932
     47 H12       -46.8406   46.3751  -15.1208 H         1 3Z6         0.0574
     48 H13       -45.9837   45.4015  -16.3635 H         1 3Z6         0.0574
     49 H14       -46.2529   47.1579  -16.6269 H         1 3Z6         0.0574
     50 H15       -42.6123   46.3399  -19.5716 H         1 3Z6         0.0448
     51 H16       -40.9751   45.7332  -19.1498 H         1 3Z6         0.0448
     52 H17       -41.2404   47.4893  -19.4191 H         1 3Z6         0.0448
     53 H18       -39.3628   47.5720  -14.7915 H         1 3Z6         0.1825
     54 H19       -40.5502   47.5911  -13.4601 H         1 3Z6         0.1825
@<TRIPOS>BOND
     1    1    2 1  
     2    2    3 1  
     3    2    4 1  
     4    2    5 1  
     5    5    6 ar 
     6    5    7 ar 
     7    6   11 ar 
     8    7    8 ar 
     9    8    9 1  
    10    8   10 ar 
    11   10   11 ar 
    12   11   12 1  
    13   12   13 1  
    14   13   14 2  
    15   13   15 am 
    16   15   16 1  
    17   15   20 1  
    18   16   17 2  
    19   17   18 1  
    20   18   19 ar 
    21   18   20 ar 
    22   19   23 ar 
    23   20   21 ar 
    24   21   22 ar 
    25   22   23 ar 
    26   23   24 1  
    27   24   25 1  
    28   24   26 2  
    29   25   29 ar 
    30   25   34 ar 
    31   26   27 1  
    32   27   28 1  
    33   27   29 1  
    34   29   30 ar 
    35   30   31 ar 
    36   31   32 1  
    37   31   33 ar 
    38   33   34 ar 
    39   34   35 1  
    40    6   36 1  
    41    7   37 1  
    42   10   38 1  
    43   12   39 1  
    44   12   40 1  
    45   16   41 1  
    46   17   42 1  
    47   19   43 1  
    48   21   44 1  
    49   22   45 1  
    50   26   46 1  
    51   28   47 1  
    52   28   48 1  
    53   28   49 1  
    54   32   50 1  
    55   32   51 1  
    56   32   52 1  
    57   35   53 1  
    58   35   54 1  
@<TRIPOS>SUBSTRUCTURE
     1 3Z6         1

