### 
### Created by X-TOOL on Mon Sep 10 21:13:24 2018
### 

@<TRIPOS>MOLECULE
4x7q_ligand
   45    48     1     0     0
SMALL
GAST_HUCK


@<TRIPOS>ATOM
      1 O2         55.1730   19.7320    0.3910 O.2       1 3YR        -0.3807
      2 C9         56.6850   21.0320    1.5760 C.2       1 3YR         0.1012
      3 C8         57.7340   21.0290    0.6860 C.2       1 3YR         0.0373
      4 C10        55.3940   20.3670    1.3970 C.2       1 3YR         0.2288
      5 C11        53.3520   19.9180    2.4980 C.ar      1 3YR         0.1239
      6 C12        52.8720   19.0100    1.5620 C.ar      1 3YR         0.0200
      7 C7         58.1090   22.3110    2.7730 C.2       1 3YR         0.1157
      8 C3         59.5960   24.6650    5.9250 C.ar      1 3YR        -0.0619
      9 C2         60.3710   24.4110    4.8130 C.ar      1 3YR        -0.0271
     10 C4         58.3230   24.1270    5.9870 C.ar      1 3YR        -0.0271
     11 C5         57.8460   23.3450    4.9330 C.ar      1 3YR         0.1487
     12 C6         58.6240   23.0970    3.8110 C.ar      1 3YR         0.0896
     13 O1         53.1570   21.0930    4.5570 O.3       1 3YR        -0.3051
     14 C1         59.8870   23.6250    3.7590 C.ar      1 3YR         0.1487
     15 S          58.9570   21.9210    1.3300 S.3       1 3YR         0.0041
     16 N4         56.9130   21.7340    2.6930 N.2       1 3YR        -0.2971
     17 F2         56.6080   22.8200    5.0390 F         1 3YR        -0.1787
     18 F1         60.6480   23.4190    2.6700 F         1 3YR        -0.1787
     19 N1         54.5430   20.5480    2.3910 N.am      1 3YR        -0.2311
     20 C15        52.6300   20.1940    3.6550 C.ar      1 3YR         0.1340
     21 C14        51.4180   19.5650    3.8600 C.ar      1 3YR        -0.0185
     22 C13        50.9850   18.6840    2.8870 C.ar      1 3YR        -0.0164
     23 N2         51.7050   18.4310    1.7810 N.ar      1 3YR        -0.3295
     24 C16        52.5730   21.3300    5.8500 C.3       1 3YR         0.1255
     25 C19        51.4500   22.3560    5.7020 C.3       1 3YR        -0.0021
     26 N3         52.1850   23.5920    5.8140 N.4       1 3YR         0.2292
     27 C18        53.5220   23.4570    6.3600 C.3       1 3YR        -0.0306
     28 C17        53.6080   21.9970    6.7360 C.3       1 3YR         0.0231
     29 H1         57.7517   20.5234   -0.2784 H         1 3YR         0.0876
     30 H2         53.4438   18.7814    0.6699 H         1 3YR         0.0658
     31 H3         59.9774   25.2751    6.7358 H         1 3YR         0.0626
     32 H4         61.3706   24.8261    4.7534 H         1 3YR         0.0579
     33 H5         57.6969   24.3122    6.8523 H         1 3YR         0.0579
     34 H6         54.7966   21.1934    3.1115 H         1 3YR         0.2240
     35 H7         50.8288   19.7549    4.7498 H         1 3YR         0.0583
     36 H8         50.0341   18.1810    3.0204 H         1 3YR         0.0659
     37 H9         52.2070   20.3916    6.2921 H         1 3YR         0.0706
     38 H10        50.7042   22.2562    6.5043 H         1 3YR         0.0843
     39 H11        50.9515   22.2703    4.7252 H         1 3YR         0.0843
     40 H12        51.6635   24.2140    6.4117 H         1 3YR         0.2014
     41 H13        52.2614   23.9960    4.8937 H         1 3YR         0.2014
     42 H14        53.6514   24.0982    7.2443 H         1 3YR         0.0815
     43 H15        54.2814   23.7136    5.6067 H         1 3YR         0.0815
     44 H16        54.6129   21.5989    6.5317 H         1 3YR         0.0348
     45 H17        53.3651   21.8518    7.7990 H         1 3YR         0.0348
@<TRIPOS>BOND
     1    4    1 2  
     2    2    3 2  
     3    2    4 1  
     4   16    2 1  
     5   15    3 1  
     6    4   19 am 
     7    5    6 ar 
     8   19    5 1  
     9    5   20 ar 
    10    6   23 ar 
    11   12    7 1  
    12    7   15 1  
    13    7   16 2  
    14    8    9 ar 
    15   10    8 ar 
    16    9   14 ar 
    17   11   10 ar 
    18   11   12 ar 
    19   11   17 1  
    20   12   14 ar 
    21   20   13 1  
    22   13   24 1  
    23   14   18 1  
    24   20   21 ar 
    25   21   22 ar 
    26   22   23 ar 
    27   24   25 1  
    28   24   28 1  
    29   25   26 1  
    30   26   27 1  
    31   27   28 1  
    32    3   29 1  
    33    6   30 1  
    34    8   31 1  
    35    9   32 1  
    36   10   33 1  
    37   19   34 1  
    38   21   35 1  
    39   22   36 1  
    40   24   37 1  
    41   25   38 1  
    42   25   39 1  
    43   26   40 1  
    44   26   41 1  
    45   27   42 1  
    46   27   43 1  
    47   28   44 1  
    48   28   45 1  
@<TRIPOS>SUBSTRUCTURE
     1 3YR         1

