### 
### Created by X-TOOL on Mon Sep 10 21:13:24 2018
### 

@<TRIPOS>MOLECULE
4x8g_ligand
   61    65     1     0     0
SMALL
GAST_HUCK


@<TRIPOS>ATOM
      1 C8         31.8690   45.2580   32.8880 C.ar      1 3Z0        -0.0482
      2 C7         30.6480   44.6680   32.6810 C.ar      1 3Z0        -0.0514
      3 C5         28.9830   44.0640   30.7870 C.2       1 3Z0        -0.0320
      4 C15        27.1370   42.5140   25.4140 C.ar      1 3Z0        -0.0521
      5 C17        24.9560   43.5890   25.3320 C.ar      1 3Z0        -0.0269
      6 C9         32.5460   45.7350   31.7930 C.ar      1 3Z0        -0.0034
      7 C6         30.1540   44.5780   31.3980 C.ar      1 3Z0         0.0108
      8 C16        25.9140   42.7450   24.8270 C.ar      1 3Z0         0.0256
      9 C14        27.3850   43.1920   26.5910 C.ar      1 3Z0         0.0319
     10 C21        26.4330   44.0440   27.1100 C.ar      1 3Z0         0.1206
     11 C18        25.2220   44.2530   26.5020 C.ar      1 3Z0         0.1199
     12 C4         29.0990   44.2920   29.4340 C.2       1 3Z0         0.1236
     13 C11        30.9450   45.1020   30.3990 C.ar      1 3Z0         0.1416
     14 C12        28.2230   43.9870   28.3710 C.2       1 3Z0         0.1659
     15 C24        25.6180   42.0490   23.5830 C.2       1 3Z0         0.1969
     16 C28        24.3420   44.9150   21.8780 C.3       1 3Z0        -0.0274
     17 C29        24.1400   44.3650   20.4890 C.3       1 3Z0        -0.0061
     18 C27        25.5220   44.2320   22.5200 C.3       1 3Z0         0.0336
     19 C32        25.0460   42.1900   21.2150 C.3       1 3Z0         0.0758
     20 C30        23.8730   42.8830   20.5670 C.3       1 3Z0        -0.0036
     21 C1         32.1130   44.6610   27.6630 C.3       1 3Z0        -0.0386
     22 C23        26.3780   45.4840   29.1650 C.3       1 3Z0         0.0437
     23 C20        23.6590   46.0430   26.2840 C.3       1 3Z0         0.0577
     24 C2         30.7870   45.3300   27.9220 C.3       1 3Z0         0.0507
     25 N10        32.1360   45.6870   30.5240 N.ar      1 3Z0        -0.2827
     26 N13        28.5020   43.1650   27.3860 N.2       1 3Z0        -0.3051
     27 N22        26.9850   44.5430   28.2510 N.pl3     1 3Z0        -0.2368
     28 N3         30.2910   44.9200   29.2160 N.pl3     1 3Z0        -0.2401
     29 N26        25.3490   42.8080   22.4750 N.am      1 3Z0        -0.2685
     30 N31        23.8140   42.3950   19.1700 N.4       1 3Z0         0.2222
     31 O25        25.6240   40.8270   23.5560 O.2       1 3Z0        -0.3886
     32 O19        24.3540   45.1260   27.1130 O.3       1 3Z0        -0.3234
     33 H1         32.2862   45.3449   33.8847 H         1 3Z0         0.0606
     34 H2         30.0787   44.2773   33.5167 H         1 3Z0         0.0687
     35 H3         28.1486   43.5799   31.2924 H         1 3Z0         0.0430
     36 H4         27.8639   41.8386   24.9775 H         1 3Z0         0.0511
     37 H5         24.0117   43.7272   24.8180 H         1 3Z0         0.0495
     38 H6         33.5093   46.1965   31.9776 H         1 3Z0         0.0767
     39 H7         23.4398   44.7319   22.4801 H         1 3Z0         0.0287
     40 H8         24.5310   45.9971   21.8204 H         1 3Z0         0.0287
     41 H9         25.0448   44.5431   19.8893 H         1 3Z0         0.0321
     42 H10        23.2826   44.8673   20.0172 H         1 3Z0         0.0321
     43 H11        25.6046   44.5559   23.5680 H         1 3Z0         0.0522
     44 H12        26.4398   44.5047   21.9784 H         1 3Z0         0.0522
     45 H13        25.9222   42.2628   20.5540 H         1 3Z0         0.0578
     46 H14        24.7976   41.1311   21.3795 H         1 3Z0         0.0578
     47 H15        22.9400   42.6758   21.1115 H         1 3Z0         0.0870
     48 H16        32.4938   44.9707   26.6786 H         1 3Z0         0.0255
     49 H17        31.9820   43.5690   27.6784 H         1 3Z0         0.0255
     50 H18        32.8307   44.9552   28.4429 H         1 3Z0         0.0255
     51 H19        25.3747   45.7522   28.8024 H         1 3Z0         0.0563
     52 H20        27.0000   46.3892   29.2260 H         1 3Z0         0.0563
     53 H21        26.2973   45.0267   30.1621 H         1 3Z0         0.0563
     54 H22        23.0051   46.6744   26.9035 H         1 3Z0         0.0575
     55 H23        23.0499   45.4890   25.5546 H         1 3Z0         0.0575
     56 H24        24.3829   46.6769   25.7510 H         1 3Z0         0.0575
     57 H25        30.0684   45.0359   27.1428 H         1 3Z0         0.0597
     58 H26        30.9172   46.4222   27.9074 H         1 3Z0         0.0597
     59 H27        23.0410   42.8327   18.6936 H         1 3Z0         0.1997
     60 H28        23.6868   41.3951   19.1684 H         1 3Z0         0.1997
     61 H29        24.6739   42.6251   18.6971 H         1 3Z0         0.1997
@<TRIPOS>BOND
     1    2    1 ar 
     2    6    1 ar 
     3    7    2 ar 
     4    7    3 1  
     5   12    3 2  
     6    4    8 ar 
     7    9    4 ar 
     8    5    8 ar 
     9   11    5 ar 
    10   25    6 ar 
    11   13    7 ar 
    12    8   15 1  
    13   10    9 ar 
    14   26    9 1  
    15   10   11 ar 
    16   27   10 1  
    17   11   32 1  
    18   12   14 1  
    19   28   12 1  
    20   13   25 ar 
    21   28   13 1  
    22   14   26 2  
    23   14   27 1  
    24   15   29 am 
    25   15   31 2  
    26   16   17 1  
    27   18   16 1  
    28   20   17 1  
    29   29   18 1  
    30   19   20 1  
    31   29   19 1  
    32   20   30 1  
    33   24   21 1  
    34   27   22 1  
    35   32   23 1  
    36   24   28 1  
    37    1   33 1  
    38    2   34 1  
    39    3   35 1  
    40    4   36 1  
    41    5   37 1  
    42    6   38 1  
    43   16   39 1  
    44   16   40 1  
    45   17   41 1  
    46   17   42 1  
    47   18   43 1  
    48   18   44 1  
    49   19   45 1  
    50   19   46 1  
    51   20   47 1  
    52   21   48 1  
    53   21   49 1  
    54   21   50 1  
    55   22   51 1  
    56   22   52 1  
    57   22   53 1  
    58   23   54 1  
    59   23   55 1  
    60   23   56 1  
    61   24   57 1  
    62   24   58 1  
    63   30   59 1  
    64   30   60 1  
    65   30   61 1  
@<TRIPOS>SUBSTRUCTURE
     1 3Z0         1

