### 
### Created by X-TOOL on Mon Sep 10 21:13:23 2018
### 

@<TRIPOS>MOLECULE
4x8s_ligand
   17    17     1     0     0
SMALL
GAST_HUCK


@<TRIPOS>ATOM
      1 C1          9.4760   34.3640   27.9280 C.ar      1 3Z7         0.1219
      2 C2          9.6750   33.0440   27.5780 C.ar      1 3Z7        -0.0320
      3 C3          9.5710   34.7640   29.2710 C.ar      1 3Z7         0.1195
      4 C4          9.8920   33.8210   30.2460 C.ar      1 3Z7        -0.0387
      5 C5          9.9910   32.1300   28.5640 C.ar      1 3Z7        -0.0076
      6 C6         10.1090   32.4980   29.8940 C.ar      1 3Z7        -0.0723
      7 O7          9.2400   35.3800   27.0450 O.3       1 3Z7        -0.3244
      8 BR8        10.2370   30.3160   28.0730 Br        1 3Z7        -0.0629
      9 O9          9.3980   36.0660   29.6100 O.3       1 3Z7        -0.3348
     10 C10         9.3400   35.0900   25.6520 C.3       1 3Z7         0.0569
     11 H1          9.5846   32.7292   26.5446 H         1 3Z7         0.0534
     12 H2          9.9723   34.1235   31.2838 H         1 3Z7         0.0516
     13 H3         10.3670   31.7630   30.6478 H         1 3Z7         0.0522
     14 H4          8.6888   36.1370   30.2381 H         1 3Z7         0.2454
     15 H5          9.1246   35.9994   25.0718 H         1 3Z7         0.0573
     16 H6          8.6150   34.3061   25.3877 H         1 3Z7         0.0573
     17 H7         10.3575   34.7409   25.4222 H         1 3Z7         0.0573
@<TRIPOS>BOND
     1    1    2 ar 
     2    1    3 ar 
     3    1    7 1  
     4    2    5 ar 
     5    3    4 ar 
     6    3    9 1  
     7    4    6 ar 
     8    5    6 ar 
     9    5    8 1  
    10    7   10 1  
    11    2   11 1  
    12    4   12 1  
    13    6   13 1  
    14    9   14 1  
    15   10   15 1  
    16   10   16 1  
    17   10   17 1  
@<TRIPOS>SUBSTRUCTURE
     1 3Z7         1

