### 
### Created by X-TOOL on Mon Sep 10 21:13:24 2018
### 

@<TRIPOS>MOLECULE
4x8t_ligand
   20    21     1     0     0
SMALL
GAST_HUCK


@<TRIPOS>ATOM
      1 C12        10.9770   31.5150   29.4090 C.3       1 3Z8         0.0048
      2 C1          9.8170   34.1060   30.2030 C.2       1 3Z8         0.2003
      3 C2          9.9990   33.7720   28.7790 C.ar      1 3Z8         0.0519
      4 N3         10.0340   33.1020   31.0740 N.am      1 3Z8        -0.2852
      5 C4         10.5160   32.5240   28.3850 C.ar      1 3Z8        -0.0203
      6 C5          9.5190   34.6630   27.8090 C.ar      1 3Z8        -0.0345
      7 O6          9.4250   35.2050   30.5820 O.2       1 3Z8        -0.3885
      8 C7         10.5570   32.2150   27.0280 C.ar      1 3Z8        -0.0537
      9 C8          9.5370   34.2940   26.4790 C.ar      1 3Z8         0.0386
     10 C9         10.2620   31.7040   30.7260 C.3       1 3Z8         0.0407
     11 C10        10.0870   33.0990   26.0730 C.ar      1 3Z8        -0.0502
     12 CL          8.7010   35.2870   25.3140 Cl        1 3Z8        -0.0758
     13 H1         12.0588   31.6346   29.5682 H         1 3Z8         0.0460
     14 H2         10.7716   30.5023   29.0319 H         1 3Z8         0.0460
     15 H3         10.0393   33.3359   32.0463 H         1 3Z8         0.1844
     16 H4          9.1366   35.6343   28.1012 H         1 3Z8         0.0658
     17 H5         10.9658   31.2617   26.7131 H         1 3Z8         0.0569
     18 H6         10.8683   31.2430   31.5196 H         1 3Z8         0.0544
     19 H7          9.2874   31.1972   30.6680 H         1 3Z8         0.0544
     20 H8         10.1510   32.8539   25.0190 H         1 3Z8         0.0641
@<TRIPOS>BOND
     1    5    1 1  
     2    1   10 1  
     3    3    2 1  
     4    2    4 am 
     5    2    7 2  
     6    3    5 ar 
     7    3    6 ar 
     8    4   10 1  
     9    5    8 ar 
    10    6    9 ar 
    11    8   11 ar 
    12    9   11 ar 
    13    9   12 1  
    14    1   13 1  
    15    1   14 1  
    16    4   15 1  
    17    6   16 1  
    18    8   17 1  
    19   10   18 1  
    20   10   19 1  
    21   11   20 1  
@<TRIPOS>SUBSTRUCTURE
     1 3Z8         1

