### 
### Created by X-TOOL on Mon Sep 10 21:13:23 2018
### 

@<TRIPOS>MOLECULE
4x8u_ligand
   18    19     1     0     0
SMALL
GAST_HUCK


@<TRIPOS>ATOM
      1 C1          9.5280   34.7820   29.1230 C.ar      1 3ZB         0.0663
      2 C2          9.4010   34.4110   27.7720 C.ar      1 3ZB        -0.0208
      3 N3          9.1780   36.1130   29.2330 N.pl3     1 3ZB        -0.2702
      4 C4          9.8970   33.8630   30.1000 C.ar      1 3ZB        -0.0410
      5 C5          8.9740   35.5840   27.0640 C.2       1 3ZB        -0.0467
      6 C6          9.6220   33.0850   27.4180 C.ar      1 3ZB        -0.0587
      7 C7          8.8310   36.5880   27.9840 C.2       1 3ZB         0.0928
      8 C8         10.1030   32.5360   29.7280 C.ar      1 3ZB        -0.0610
      9 C9          9.9520   32.1670   28.3990 C.ar      1 3ZB         0.0242
     10 C10         8.4150   38.0030   27.8630 C.2       1 3ZB         0.0869
     11 CL         10.1280   30.4900   27.9580 Cl        1 3ZB        -0.0814
     12 O12         8.2460   38.4230   26.6330 O.co2     1 3ZB        -0.5588
     13 O13         8.1910   38.6930   28.8590 O.co2     1 3ZB        -0.5588
     14 H1          9.1761   36.6619   30.1045 H         1 3ZB         0.2265
     15 H2         10.0219   34.1733   31.1311 H         1 3ZB         0.0548
     16 H3          8.7964   35.6614   25.9924 H         1 3ZB         0.0357
     17 H4          9.5366   32.7733   26.3833 H         1 3ZB         0.0555
     18 H5         10.3793   31.7972   30.4716 H         1 3ZB         0.0547
@<TRIPOS>BOND
     1    1    2 ar 
     2    1    3 1  
     3    1    4 ar 
     4    2    5 1  
     5    2    6 ar 
     6    3    7 1  
     7    4    8 ar 
     8    5    7 2  
     9    6    9 ar 
    10    7   10 1  
    11    8    9 ar 
    12    9   11 1  
    13   10   12 ar 
    14   10   13 ar 
    15    3   14 1  
    16    4   15 1  
    17    5   16 1  
    18    6   17 1  
    19    8   18 1  
@<TRIPOS>SUBSTRUCTURE
     1 3ZB         1

