### 
### Created by X-TOOL on Mon Sep 10 21:13:24 2018
### 

@<TRIPOS>MOLECULE
4x8v_ligand
   87    91     1     0     0
SMALL
GAST_HUCK


@<TRIPOS>ATOM
      1 C13         7.2670   37.4310   25.8850 C.3       1 3Z9         0.1503
      2 C18         6.7720   40.3180   23.3570 C.3       1 3Z9         0.0770
      3 C15         7.2590   38.2750   24.5980 C.2       1 3Z9         0.2151
      4 C19         6.5160   41.7500   23.8510 C.3       1 3Z9        -0.0181
      5 C20         5.6850   41.5510   25.1110 C.3       1 3Z9        -0.0284
      6 C21         6.1530   40.2570   25.7360 C.3       1 3Z9         0.0368
      7 C22         5.7590   39.8410   22.3310 C.ar      1 3Z9        -0.0070
      8 C23         5.1160   36.3220   25.2000 C.ar      1 3Z9        -0.0353
      9 C24         3.8190   35.8990   25.4520 C.ar      1 3Z9         0.1137
     10 C34         3.7800   38.9090   20.5560 C.ar      1 3Z9        -0.0464
     11 C27         5.2780   37.1770   27.4410 C.ar      1 3Z9        -0.0756
     12 C33         3.6220   38.7120   21.9230 C.ar      1 3Z9         0.0614
     13 C1          8.4650   35.8060   28.0980 C.ar      1 3Z9        -0.0308
     14 C2          9.7380   33.4450   27.4050 C.ar      1 3Z9        -0.0653
     15 C3          9.3430   34.3260   26.4190 C.ar      1 3Z9        -0.0459
     16 C4          8.6800   35.5030   26.7560 C.ar      1 3Z9         0.0402
     17 C5          9.4890   33.7040   28.7480 C.ar      1 3Z9        -0.0332
     18 C6          8.8580   34.9110   29.1010 C.ar      1 3Z9         0.0401
     19 C7          8.5350   35.2180   30.5130 C.2       1 3Z9         0.1973
     20 N8          9.0450   34.3760   31.4270 N.am      1 3Z9        -0.2856
     21 C9          9.9280   33.2640   31.1650 C.3       1 3Z9         0.0390
     22 C10         9.7610   32.6500   29.7930 C.3       1 3Z9        -0.0012
     23 O11         7.8370   36.1680   30.8490 O.2       1 3Z9        -0.3885
     24 N12         8.1870   36.3150   25.7310 N.pl3     1 3Z9        -0.2967
     25 C14         5.8490   36.9710   26.1870 C.ar      1 3Z9        -0.0196
     26 O16         7.7750   37.8160   23.6020 O.2       1 3Z9        -0.3916
     27 N17         6.7580   39.5220   24.6120 N.am      1 3Z9        -0.2559
     28 C25         3.2320   36.1460   26.7230 C.ar      1 3Z9         0.1125
     29 C26         3.9820   36.7700   27.7190 C.ar      1 3Z9        -0.0474
     30 O28         1.9160   35.7780   26.8430 O.3       1 3Z9        -0.3292
     31 C29         1.2830   35.9110   28.1150 C.3       1 3Z9         0.0554
     32 O30         3.0510   35.1710   24.5740 O.3       1 3Z9        -0.3265
     33 C31         3.5710   34.9090   23.2680 C.3       1 3Z9         0.0568
     34 C32         4.6120   39.1740   22.7880 C.ar      1 3Z9        -0.0367
     35 C35         4.8960   39.5710   20.0740 C.ar      1 3Z9        -0.0571
     36 C36         5.8730   40.0320   20.9490 C.ar      1 3Z9         0.0765
     37 S37         7.1940   40.9200   20.1390 S.o2      1 3Z9        -0.0095
     38 C38         8.3570   39.6660   19.5200 C.3       1 3Z9         0.0736
     39 O39         6.6230   41.5730   18.9920 O.2       1 3Z9        -0.1720
     40 O40         7.8940   41.7220   21.1040 O.2       1 3Z9        -0.1720
     41 C41         8.9320   38.7690   20.5990 C.3       1 3Z9        -0.0430
     42 C42         9.4330   40.3690   18.7110 C.3       1 3Z9        -0.0430
     43 N43         2.3900   38.1430   22.3380 N.am      1 3Z9        -0.2105
     44 C44         1.8600   38.1290   23.5890 C.2       1 3Z9         0.3498
     45 O45         0.7620   37.3570   23.5930 O.3       1 3Z9        -0.2623
     46 O46         2.2580   38.7590   24.5440 O.2       1 3Z9        -0.3669
     47 C47        -0.0740   37.4440   24.7740 C.3       1 3Z9         0.0668
     48 H1          7.6162   38.0554   26.7206 H         1 3Z9         0.0927
     49 H2          7.7679   40.2599   22.8935 H         1 3Z9         0.0719
     50 H3          5.9590   42.3305   23.1009 H         1 3Z9         0.0310
     51 H4          7.4624   42.2610   24.0815 H         1 3Z9         0.0310
     52 H5          4.6173   41.4846   24.8551 H         1 3Z9         0.0287
     53 H6          5.8440   42.3880   25.8068 H         1 3Z9         0.0287
     54 H7          5.3058   39.6974   26.1593 H         1 3Z9         0.0524
     55 H8          6.8962   40.4488   26.5240 H         1 3Z9         0.0524
     56 H9          5.5607   36.1453   24.2273 H         1 3Z9         0.0455
     57 H10         3.0279   38.5435   19.8662 H         1 3Z9         0.0447
     58 H11         5.8587   37.6654   28.2151 H         1 3Z9         0.0441
     59 H12         7.9897   36.7419   28.3685 H         1 3Z9         0.0546
     60 H13        10.2528   32.5326   27.1267 H         1 3Z9         0.0537
     61 H14         9.5496   34.1010   25.3789 H         1 3Z9         0.0537
     62 H15         8.7885   34.5345   32.3805 H         1 3Z9         0.1844
     63 H16         9.7346   32.4852   31.9173 H         1 3Z9         0.0541
     64 H17        10.9653   33.6171   31.2610 H         1 3Z9         0.0541
     65 H18        10.6827   32.1118   29.5271 H         1 3Z9         0.0435
     66 H19         8.9180   31.9438   29.8171 H         1 3Z9         0.0435
     67 H20         8.5057   36.1028   24.7748 H         1 3Z9         0.1787
     68 H21         3.5558   36.9355   28.7019 H         1 3Z9         0.0493
     69 H22         0.2380   35.5756   28.0413 H         1 3Z9         0.0570
     70 H23         1.3086   36.9649   28.4289 H         1 3Z9         0.0570
     71 H24         1.8144   35.2949   28.8553 H         1 3Z9         0.0570
     72 H25         2.8405   34.3202   22.6938 H         1 3Z9         0.0573
     73 H26         4.5108   34.3440   23.3541 H         1 3Z9         0.0573
     74 H27         3.7616   35.8612   22.7514 H         1 3Z9         0.0573
     75 H28         4.4917   39.0122   23.8531 H         1 3Z9         0.0437
     76 H29         5.0088   39.7309   19.0078 H         1 3Z9         0.0579
     77 H30         7.7988   39.0117   18.8342 H         1 3Z9         0.0531
     78 H31         9.6216   38.0432   20.1434 H         1 3Z9         0.0248
     79 H32         8.1151   38.2320   21.1032 H         1 3Z9         0.0248
     80 H33         9.4765   39.3811   21.3331 H         1 3Z9         0.0248
     81 H34        10.1475   39.6259   18.3273 H         1 3Z9         0.0248
     82 H35         9.9621   41.0893   19.3523 H         1 3Z9         0.0248
     83 H36         8.9688   40.9010   17.8675 H         1 3Z9         0.0248
     84 H37         1.8472   37.6995   21.6247 H         1 3Z9         0.2274
     85 H38        -0.9372   36.7714   24.6625 H         1 3Z9         0.0575
     86 H39        -0.4284   38.4780   24.8970 H         1 3Z9         0.0575
     87 H40         0.5091   37.1485   25.6586 H         1 3Z9         0.0575
@<TRIPOS>BOND
     1    1    3 1  
     2   24    1 1  
     3    1   25 1  
     4    2    4 1  
     5    2    7 1  
     6   27    2 1  
     7    3   26 2  
     8    3   27 am 
     9    5    4 1  
    10    6    5 1  
    11   27    6 1  
    12    7   34 ar 
    13    7   36 ar 
    14    8    9 ar 
    15   25    8 ar 
    16    9   28 ar 
    17    9   32 1  
    18   12   10 ar 
    19   10   35 ar 
    20   25   11 ar 
    21   11   29 ar 
    22   34   12 ar 
    23   12   43 1  
    24   16   13 ar 
    25   13   18 ar 
    26   15   14 ar 
    27   14   17 ar 
    28   16   15 ar 
    29   16   24 1  
    30   17   18 ar 
    31   17   22 1  
    32   18   19 1  
    33   19   20 am 
    34   19   23 2  
    35   20   21 1  
    36   21   22 1  
    37   28   29 ar 
    38   28   30 1  
    39   30   31 1  
    40   32   33 1  
    41   35   36 ar 
    42   36   37 1  
    43   37   38 1  
    44   37   39 2  
    45   37   40 2  
    46   38   41 1  
    47   38   42 1  
    48   43   44 am 
    49   44   45 1  
    50   44   46 2  
    51   45   47 1  
    52    1   48 1  
    53    2   49 1  
    54    4   50 1  
    55    4   51 1  
    56    5   52 1  
    57    5   53 1  
    58    6   54 1  
    59    6   55 1  
    60    8   56 1  
    61   10   57 1  
    62   11   58 1  
    63   13   59 1  
    64   14   60 1  
    65   15   61 1  
    66   20   62 1  
    67   21   63 1  
    68   21   64 1  
    69   22   65 1  
    70   22   66 1  
    71   24   67 1  
    72   29   68 1  
    73   31   69 1  
    74   31   70 1  
    75   31   71 1  
    76   33   72 1  
    77   33   73 1  
    78   33   74 1  
    79   34   75 1  
    80   35   76 1  
    81   38   77 1  
    82   41   78 1  
    83   41   79 1  
    84   41   80 1  
    85   42   81 1  
    86   42   82 1  
    87   42   83 1  
    88   43   84 1  
    89   47   85 1  
    90   47   86 1  
    91   47   87 1  
@<TRIPOS>SUBSTRUCTURE
     1 3Z9         1

