### 
### Created by X-TOOL on Mon Sep 10 21:13:23 2018
### 

@<TRIPOS>MOLECULE
4xaq_ligand
   23    24     1     0     0
SMALL
GAST_HUCK


@<TRIPOS>ATOM
      1 O1         -5.5750   35.7600   26.9370 O.co2     1 40F        -0.5422
      2 C7         -8.1450   37.0440   27.8960 C.3       1 40F        -0.0009
      3 O2         -9.2460   32.3630   29.3640 O.co2     1 40F        -0.5687
      4 C6         -7.7210   36.5030   29.3140 C.3       1 40F        -0.0430
      5 C1         -8.0470   35.8370   26.9130 C.3       1 40F         0.0374
      6 C5         -7.9940   35.0120   29.2480 C.3       1 40F        -0.0166
      7 C4        -10.0660   33.3980   29.0580 C.2       1 40F         0.0385
      8 C3         -9.3880   34.6630   28.7190 C.3       1 40F         0.0232
      9 C2         -8.2120   34.6260   27.7880 C.3       1 40F         0.0291
     10 O3        -11.2780   33.2560   29.0670 O.co2     1 40F        -0.5687
     11 N          -9.0700   35.8490   25.8450 N.4       1 40F         0.2232
     12 C          -6.6190   35.7900   26.3010 C.2       1 40F         0.0964
     13 O          -6.5010   35.8060   24.9570 O.co2     1 40F        -0.5422
     14 H1         -7.4661   37.8489   27.5780 H         1 40F         0.0316
     15 H2         -9.1763   37.4252   27.9277 H         1 40F         0.0316
     16 H3         -8.3223   36.9738   30.1057 H         1 40F         0.0270
     17 H4         -6.6541   36.6951   29.5006 H         1 40F         0.0270
     18 H5         -7.4560   34.4093   29.9945 H         1 40F         0.0326
     19 H6        -10.1400   35.4606   28.6279 H         1 40F         0.0473
     20 H7         -7.8481   33.6937   27.3314 H         1 40F         0.0376
     21 H8         -8.9446   36.6665   25.2688 H         1 40F         0.1999
     22 H9         -9.9885   35.8680   26.2597 H         1 40F         0.1999
     23 H10        -8.9741   35.0208   25.2785 H         1 40F         0.1999
@<TRIPOS>BOND
     1   12    1 ar 
     2    4    2 1  
     3    5    2 1  
     4    7    3 ar 
     5    6    4 1  
     6    9    5 1  
     7    5   11 1  
     8    5   12 1  
     9    8    6 1  
    10    6    9 1  
    11    7    8 1  
    12    7   10 ar 
    13    8    9 1  
    14   12   13 ar 
    15    2   14 1  
    16    2   15 1  
    17    4   16 1  
    18    4   17 1  
    19    6   18 1  
    20    8   19 1  
    21    9   20 1  
    22   11   21 1  
    23   11   22 1  
    24   11   23 1  
@<TRIPOS>SUBSTRUCTURE
     1 40F         1

