### 
### Created by X-TOOL on Mon Sep 10 21:13:24 2018
### 

@<TRIPOS>MOLECULE
4xar_ligand
   23    24     1     0     0
SMALL
GAST_HUCK


@<TRIPOS>ATOM
      1 O1         52.5050  -27.2410    7.2000 O.co2     1 40F        -0.5422
      2 C7         52.1510  -24.7280    8.7850 C.3       1 40F        -0.0009
      3 O2         47.6410  -25.2330   11.1520 O.co2     1 40F        -0.5687
      4 C6         52.3050  -25.5810   10.0520 C.3       1 40F        -0.0430
      5 C1         51.0090  -25.3680    7.9280 C.3       1 40F         0.0374
      6 C5         51.0250  -26.3770   10.1620 C.3       1 40F        -0.0166
      7 C4         48.5540  -26.1310   10.8260 C.2       1 40F         0.0385
      8 C3         49.7320  -25.5570   10.1540 C.3       1 40F         0.0232
      9 C2         50.2220  -26.2460    8.8800 C.3       1 40F         0.0291
     10 O3         48.3570  -27.2720   11.0890 O.co2     1 40F        -0.5687
     11 N          50.1790  -24.3460    7.2360 N.4       1 40F         0.2232
     12 C          51.6130  -26.2890    6.8840 C.2       1 40F         0.0964
     13 O          51.3370  -26.1830    5.7210 O.co2     1 40F        -0.5422
     14 H1         53.0924  -24.7261    8.2160 H         1 40F         0.0316
     15 H2         51.8844  -23.6959    9.0564 H         1 40F         0.0316
     16 H3         52.4346  -24.9378   10.9349 H         1 40F         0.0270
     17 H4         53.1696  -26.2546    9.9590 H         1 40F         0.0270
     18 H5         51.1306  -27.3091   10.7365 H         1 40F         0.0326
     19 H6         49.7492  -24.4618   10.2555 H         1 40F         0.0473
     20 H7         49.6662  -27.0609    8.3932 H         1 40F         0.0376
     21 H8         50.7620  -23.7997    6.6214 H         1 40F         0.1999
     22 H9         49.7519  -23.7409    7.9197 H         1 40F         0.1999
     23 H10        49.4607  -24.8047    6.6978 H         1 40F         0.1999
@<TRIPOS>BOND
     1   12    1 ar 
     2    4    2 1  
     3    5    2 1  
     4    7    3 ar 
     5    6    4 1  
     6    9    5 1  
     7    5   11 1  
     8    5   12 1  
     9    8    6 1  
    10    6    9 1  
    11    7    8 1  
    12    7   10 ar 
    13    8    9 1  
    14   12   13 ar 
    15    2   14 1  
    16    2   15 1  
    17    4   16 1  
    18    4   17 1  
    19    6   18 1  
    20    8   19 1  
    21    9   20 1  
    22   11   21 1  
    23   11   22 1  
    24   11   23 1  
@<TRIPOS>SUBSTRUCTURE
     1 40F         1

