### 
### Created by X-TOOL on Mon Sep 10 21:13:25 2018
### 

@<TRIPOS>MOLECULE
4xas_ligand
   27    29     1     0     0
SMALL
GAST_HUCK


@<TRIPOS>ATOM
      1 O1        -24.2620   28.7320  -26.8920 O.co2     1 40H        -0.5687
      2 C7        -29.1540   32.4510  -27.9990 C.3       1 40H        -0.0464
      3 O2        -30.0500   30.7770  -25.0910 O.co2     1 40H        -0.5422
      4 C6        -27.7360   32.8450  -28.3750 C.3       1 40H        -0.0464
      5 C1        -27.6890   31.2160  -24.9170 C.3       1 40H         0.0379
      6 C5        -27.9680   31.9400  -27.2220 C.3       1 40H        -0.0192
      7 C4        -27.5610   30.4760  -27.2860 C.3       1 40H        -0.0110
      8 C3        -26.1780   30.1220  -26.7540 C.3       1 40H         0.0237
      9 C2        -27.4090   30.0110  -25.8460 C.3       1 40H         0.0297
     10 O3        -29.2740   31.2220  -23.0980 O.co2     1 40H        -0.5422
     11 C9        -29.0430   31.0780  -24.2600 C.2       1 40H         0.0964
     12 N         -26.6630   31.3450  -23.8670 N.4       1 40H         0.2232
     13 C8        -25.5930   28.7970  -27.0430 C.2       1 40H         0.0385
     14 O         -26.2220   27.7590  -27.3630 O.co2     1 40H        -0.5687
     15 C         -27.7490   32.4610  -25.8430 C.3       1 40H         0.0047
     16 H1        -29.7285   31.7696  -28.6437 H         1 40H         0.0271
     17 H2        -29.8332   33.1904  -27.5496 H         1 40H         0.0271
     18 H3        -27.3882   33.8745  -28.2040 H         1 40H         0.0271
     19 H4        -27.2836   32.4537  -29.2981 H         1 40H         0.0271
     20 H5        -28.0403   29.9070  -28.0963 H         1 40H         0.0331
     21 H6        -25.4053   30.8960  -26.6367 H         1 40H         0.0473
     22 H7        -27.7652   29.0482  -25.4509 H         1 40H         0.0376
     23 H8        -26.8778   32.1380  -23.2830 H         1 40H         0.1999
     24 H9        -25.7597   31.4772  -24.2943 H         1 40H         0.1999
     25 H10       -26.6498   30.5080  -23.3054 H         1 40H         0.1999
     26 H11       -26.8034   33.0207  -25.7921 H         1 40H         0.0321
     27 H12       -28.5802   33.1177  -25.5465 H         1 40H         0.0321
@<TRIPOS>BOND
     1   13    1 ar 
     2    4    2 1  
     3    6    2 1  
     4   11    3 ar 
     5    6    4 1  
     6    9    5 1  
     7    5   11 1  
     8    5   12 1  
     9    5   15 1  
    10    7    6 1  
    11    6   15 1  
    12    8    7 1  
    13    9    7 1  
    14    8    9 1  
    15    8   13 1  
    16   11   10 ar 
    17   13   14 ar 
    18    2   16 1  
    19    2   17 1  
    20    4   18 1  
    21    4   19 1  
    22    7   20 1  
    23    8   21 1  
    24    9   22 1  
    25   12   23 1  
    26   12   24 1  
    27   12   25 1  
    28   15   26 1  
    29   15   27 1  
@<TRIPOS>SUBSTRUCTURE
     1 40H         1

