### 
### Created by X-TOOL on Mon Sep 10 21:13:21 2018
### 

@<TRIPOS>MOLECULE
4xbb_ligand
   63    65     1     0     0
SMALL
GAST_HUCK


@<TRIPOS>ATOM
      1 C13        39.4810   38.7400   12.5590 C.3       1 3ZR         0.1329
      2 C14        40.2100   39.8590   11.8260 C.3       1 3ZR        -0.0096
      3 C15        39.5370   41.2290   12.0040 C.3       1 3ZR        -0.0368
      4 C16        38.1130   41.2620   11.4440 C.3       1 3ZR        -0.0500
      5 C17        37.5130   42.6660   11.5240 C.3       1 3ZR        -0.0528
      6 C18        38.4040   43.7050   10.8770 C.3       1 3ZR        -0.0530
      7 C19        39.8210   43.6560   11.4330 C.3       1 3ZR        -0.0528
      8 C20        40.3960   42.2600   11.2800 C.3       1 3ZR        -0.0500
      9 C21        40.1100   37.4160   12.2220 C.2       1 3ZR         0.2021
     10 C24        38.7930   34.2750   11.4630 C.3       1 3ZR         0.0271
     11 C25        38.9770   33.7850   12.8840 C.2       1 3ZR         0.0507
     12 C27        39.6960   33.1580   14.9040 C.2       1 3ZR         0.0017
     13 C29        38.0410   32.9190   13.4540 C.2       1 3ZR         0.2461
     14 C31        39.9840   35.2230    9.3910 C.3       1 3ZR         0.0699
     15 O01        38.2420   37.1270   14.6000 O.2       1 3ZR        -0.3773
     16 C02        38.9120   38.1290   14.8530 C.2       1 3ZR         0.3239
     17 O03        39.1560   38.5220   16.2250 O.3       1 3ZR        -0.2506
     18 C04        38.5500   37.9000   17.3680 C.3       1 3ZR         0.1113
     19 C05        37.2400   38.5780   17.7560 C.ar      1 3ZR        -0.0125
     20 C06        37.1970   39.4400   18.6830 C.ar      1 3ZR        -0.0577
     21 C07        36.1180   40.0320   19.0060 C.ar      1 3ZR        -0.0680
     22 C08        34.9970   39.7150   18.5140 C.ar      1 3ZR        -0.0548
     23 C09        34.9500   38.8070   17.5300 C.ar      1 3ZR         0.0338
     24 CL         33.4260   38.3110   16.7820 Cl        1 3ZR        -0.0725
     25 C11        36.1020   38.2490   17.1250 C.ar      1 3ZR        -0.0440
     26 N12        39.4950   38.9450   13.9790 N.am      1 3ZR        -0.2411
     27 N22        39.4410   36.7390   11.3180 N.am      1 3ZR        -0.2768
     28 C23        39.5570   35.4080   10.8290 C.3       1 3ZR         0.0797
     29 C26        40.0370   33.9120   13.7750 C.2       1 3ZR        -0.0211
     30 N28        38.4870   32.5460   14.6780 N.2       1 3ZR        -0.2705
     31 O30        36.9310   32.5430   12.8830 O.2       1 3ZR        -0.2892
     32 O32        40.9640   36.1910    8.9850 O.3       1 3ZR        -0.3925
     33 O41        41.1140   37.0100   12.7660 O.2       1 3ZR        -0.3945
     34 H1         38.4341   38.7286   12.2215 H         1 3ZR         0.0799
     35 H2         40.2355   39.6174   10.7532 H         1 3ZR         0.0315
     36 H3         41.2380   39.9202   12.2126 H         1 3ZR         0.0315
     37 H4         39.4969   41.4708   13.0763 H         1 3ZR         0.0303
     38 H5         37.4843   40.5708   12.0245 H         1 3ZR         0.0268
     39 H6         38.1349   40.9419   10.3918 H         1 3ZR         0.0268
     40 H7         37.3703   42.9308   12.5821 H         1 3ZR         0.0265
     41 H8         36.5396   42.6653   11.0117 H         1 3ZR         0.0265
     42 H9         37.9818   44.7033   11.0643 H         1 3ZR         0.0265
     43 H10        38.4396   43.5193    9.7934 H         1 3ZR         0.0265
     44 H11        39.8026   43.9265   12.4990 H         1 3ZR         0.0265
     45 H12        40.4516   44.3708   10.8841 H         1 3ZR         0.0265
     46 H13        40.4389   42.0046   10.2109 H         1 3ZR         0.0268
     47 H14        41.4115   42.2417   11.7025 H         1 3ZR         0.0268
     48 H15        37.7330   34.5587   11.3867 H         1 3ZR         0.0535
     49 H16        38.9853   33.3999   10.8249 H         1 3ZR         0.0535
     50 H17        40.2910   33.0709   15.8119 H         1 3ZR         0.1041
     51 H18        39.1000   35.3218    8.7439 H         1 3ZR         0.0582
     52 H19        40.4122   34.2164    9.2758 H         1 3ZR         0.0582
     53 H20        39.2468   37.9603   18.2170 H         1 3ZR         0.0776
     54 H21        38.3483   36.8444   17.1334 H         1 3ZR         0.0776
     55 H22        38.1083   39.6811   19.2182 H         1 3ZR         0.0559
     56 H23        36.1613   40.8379   19.7297 H         1 3ZR         0.0599
     57 H24        34.0861   40.1719   18.8836 H         1 3ZR         0.0565
     58 H25        36.1129   37.5441   16.3016 H         1 3ZR         0.0563
     59 H26        39.9717   39.7497   14.3330 H         1 3ZR         0.1899
     60 H27        38.7047   37.2618   10.8884 H         1 3ZR         0.1858
     61 H28        40.5282   35.1862   11.2955 H         1 3ZR         0.0613
     62 H29        40.9511   34.4845   13.6243 H         1 3ZR         0.0511
     63 H30        40.6010   37.0643    9.0748 H         1 3ZR         0.2095
@<TRIPOS>BOND
     1    1    2 1  
     2    9    1 1  
     3    1   26 1  
     4    2    3 1  
     5    3    4 1  
     6    3    8 1  
     7    4    5 1  
     8    5    6 1  
     9    7    6 1  
    10    8    7 1  
    11   27    9 am 
    12    9   33 2  
    13   10   11 1  
    14   28   10 1  
    15   11   13 1  
    16   11   29 2  
    17   29   12 1  
    18   12   30 2  
    19   13   30 1  
    20   13   31 2  
    21   28   14 1  
    22   14   32 1  
    23   16   15 2  
    24   16   17 1  
    25   26   16 am 
    26   17   18 1  
    27   18   19 1  
    28   19   20 ar 
    29   19   25 ar 
    30   20   21 ar 
    31   21   22 ar 
    32   23   22 ar 
    33   23   24 1  
    34   25   23 ar 
    35   27   28 1  
    36    1   34 1  
    37    2   35 1  
    38    2   36 1  
    39    3   37 1  
    40    4   38 1  
    41    4   39 1  
    42    5   40 1  
    43    5   41 1  
    44    6   42 1  
    45    6   43 1  
    46    7   44 1  
    47    7   45 1  
    48    8   46 1  
    49    8   47 1  
    50   10   48 1  
    51   10   49 1  
    52   12   50 1  
    53   14   51 1  
    54   14   52 1  
    55   18   53 1  
    56   18   54 1  
    57   20   55 1  
    58   21   56 1  
    59   22   57 1  
    60   25   58 1  
    61   26   59 1  
    62   27   60 1  
    63   28   61 1  
    64   29   62 1  
    65   32   63 1  
@<TRIPOS>SUBSTRUCTURE
     1 3ZR         1

