### 
### Created by X-TOOL on Mon Sep 10 21:13:23 2018
### 

@<TRIPOS>MOLECULE
4xbd_ligand
   57    58     1     0     0
SMALL
GAST_HUCK


@<TRIPOS>ATOM
      1 O01       -21.1340   18.8300  -34.3770 O.2       1 M40        -0.3774
      2 C02       -21.2420   20.0530  -34.5230 C.2       1 M40         0.3215
      3 O03       -22.2000   20.5890  -35.3660 O.3       1 M40        -0.2672
      4 C04       -23.3030   19.8570  -35.8060 C.3       1 M40         0.0663
      5 N11       -20.3150   21.0540  -33.9690 N.am      1 M40        -0.2412
      6 C12       -19.2640   20.5850  -33.1320 C.3       1 M40         0.1329
      7 C13       -18.3930   21.7590  -32.7440 C.3       1 M40        -0.0096
      8 C14       -17.6850   22.5490  -33.8630 C.3       1 M40        -0.0368
      9 C15       -16.9990   23.7050  -33.1930 C.3       1 M40        -0.0500
     10 C16       -15.9970   24.4040  -34.0770 C.3       1 M40        -0.0528
     11 C17       -15.0620   23.4460  -34.7180 C.3       1 M40        -0.0530
     12 C18       -15.7750   22.3260  -35.4500 C.3       1 M40        -0.0528
     13 C19       -16.7480   21.6030  -34.5870 C.3       1 M40        -0.0500
     14 C20       -19.7660   19.9680  -31.8930 C.2       1 M40         0.2019
     15 N21       -19.0660   18.8160  -31.4130 N.am      1 M40        -0.2797
     16 C22       -19.4260   18.1400  -30.1910 C.3       1 M40         0.0674
     17 C23       -20.0140   16.8160  -30.5300 C.3       1 M40        -0.0079
     18 C24       -21.3070   16.8440  -31.4070 C.3       1 M40         0.0526
     19 C25       -22.4280   17.5750  -30.7130 C.3       1 M40        -0.0129
     20 C26       -23.6900   16.8860  -31.2420 C.3       1 M40         0.0332
     21 N27       -23.2600   15.5130  -31.5860 N.am      1 M40        -0.2866
     22 C28       -21.8230   15.4860  -31.6690 C.2       1 M40         0.1792
     23 O29       -21.2180   14.4810  -31.9340 O.2       1 M40        -0.3968
     24 O31       -17.8110   19.2100  -28.7590 O.3       1 M40        -0.3927
     25 O32       -20.7190   20.4310  -31.2800 O.2       1 M40        -0.3945
     26 C30       -18.2050   17.9810  -29.3030 C.3       1 M40         0.0673
     27 H1        -23.9224   20.4861  -36.4622 H         1 M40         0.0575
     28 H2        -23.8982   19.5340  -34.9392 H         1 M40         0.0575
     29 H3        -22.9582   18.9738  -36.3637 H         1 M40         0.0575
     30 H4        -20.4201   22.0272  -34.1733 H         1 M40         0.1899
     31 H5        -18.6686   19.8452  -33.6871 H         1 M40         0.0799
     32 H6        -17.6110   21.3756  -32.0720 H         1 M40         0.0315
     33 H7        -19.0301   22.4698  -32.1974 H         1 M40         0.0315
     34 H8        -18.4214   22.9360  -34.5826 H         1 M40         0.0303
     35 H9        -16.4749   23.3298  -32.3017 H         1 M40         0.0268
     36 H10       -17.7637   24.4348  -32.8887 H         1 M40         0.0268
     37 H11       -15.4175   25.1124  -33.4668 H         1 M40         0.0265
     38 H12       -16.5374   24.9530  -34.8622 H         1 M40         0.0265
     39 H13       -14.4227   23.0050  -33.9391 H         1 M40         0.0265
     40 H14       -14.4371   23.9941  -35.4384 H         1 M40         0.0265
     41 H15       -15.0241   21.6080  -35.8114 H         1 M40         0.0265
     42 H16       -16.3154   22.7540  -36.3071 H         1 M40         0.0265
     43 H17       -17.3446   20.9261  -35.2162 H         1 M40         0.0268
     44 H18       -16.1919   21.0158  -33.8414 H         1 M40         0.0268
     45 H19       -18.2961   18.4655  -31.9464 H         1 M40         0.1855
     46 H20       -20.1772   18.7386  -29.6549 H         1 M40         0.0580
     47 H21       -20.2582   16.3050  -29.5870 H         1 M40         0.0315
     48 H22       -19.2516   16.2385  -31.0733 H         1 M40         0.0315
     49 H23       -21.0723   17.3412  -32.3597 H         1 M40         0.0539
     50 H24       -22.4235   18.6427  -30.9774 H         1 M40         0.0312
     51 H25       -22.3503   17.4673  -29.6211 H         1 M40         0.0312
     52 H26       -24.0704   17.4068  -32.1331 H         1 M40         0.0521
     53 H27       -24.4718   16.8640  -30.4685 H         1 M40         0.0521
     54 H28       -23.8671   14.7327  -31.7361 H         1 M40         0.1851
     55 H29       -18.5209   19.5666  -28.2381 H         1 M40         0.2095
     56 H30       -17.3774   17.5714  -29.9008 H         1 M40         0.0580
     57 H31       -18.4447   17.2866  -28.4843 H         1 M40         0.0580
@<TRIPOS>BOND
     1    1    2 2  
     2    2    3 1  
     3    2    5 am 
     4    3    4 1  
     5    5    6 1  
     6    6    7 1  
     7    6   14 1  
     8    7    8 1  
     9    8    9 1  
    10    8   13 1  
    11    9   10 1  
    12   10   11 1  
    13   11   12 1  
    14   12   13 1  
    15   14   15 am 
    16   14   25 2  
    17   15   16 1  
    18   16   17 1  
    19   16   26 1  
    20   17   18 1  
    21   18   19 1  
    22   18   22 1  
    23   19   20 1  
    24   20   21 1  
    25   21   22 am 
    26   22   23 2  
    27   26   24 1  
    28    4   27 1  
    29    4   28 1  
    30    4   29 1  
    31    5   30 1  
    32    6   31 1  
    33    7   32 1  
    34    7   33 1  
    35    8   34 1  
    36    9   35 1  
    37    9   36 1  
    38   10   37 1  
    39   10   38 1  
    40   11   39 1  
    41   11   40 1  
    42   12   41 1  
    43   12   42 1  
    44   13   43 1  
    45   13   44 1  
    46   15   45 1  
    47   16   46 1  
    48   17   47 1  
    49   17   48 1  
    50   18   49 1  
    51   19   50 1  
    52   19   51 1  
    53   20   52 1  
    54   20   53 1  
    55   21   54 1  
    56   24   55 1  
    57   26   56 1  
    58   26   57 1  
@<TRIPOS>SUBSTRUCTURE
     1 M40         1

