### 
### Created by X-TOOL on Mon Sep 10 21:13:24 2018
### 

@<TRIPOS>MOLECULE
4xbo_ligand
   46    48     1     0     0
SMALL
GAST_HUCK


@<TRIPOS>ATOM
      1 N         -35.1600  -24.4200   -0.6680 N.4       1 SAH         0.2327
      2 CA        -34.9310  -25.0030   -1.9820 C.3       1 SAH         0.0291
      3 CB        -34.3580  -23.8840   -2.8660 C.3       1 SAH         0.0114
      4 CG        -34.7730  -23.9510   -4.3290 C.3       1 SAH         0.0005
      5 SD        -33.3740  -23.7300   -5.4520 S.3       1 SAH        -0.1578
      6 C         -34.1090  -26.3260   -1.9160 C.2       1 SAH         0.0844
      7 O         -32.8760  -26.3920   -1.9710 O.co2     1 SAH        -0.5643
      8 OXT       -34.6670  -27.4150   -1.8230 O.co2     1 SAH        -0.5643
      9 C5'       -33.9940  -24.8120   -6.7560 C.3       1 SAH         0.0226
     10 C4'       -33.2340  -26.1190   -6.8600 C.3       1 SAH         0.0995
     11 O4'       -31.8180  -25.9020   -6.8700 O.3       1 SAH        -0.3383
     12 C3'       -33.4890  -27.0280   -5.6710 C.3       1 SAH         0.1132
     13 O3'       -34.5900  -27.8590   -5.8950 O.3       1 SAH        -0.3864
     14 C2'       -32.2100  -27.8370   -5.5770 C.3       1 SAH         0.1385
     15 O2'       -32.2390  -28.9080   -6.4840 O.3       1 SAH        -0.3836
     16 C1'       -31.1580  -26.9000   -6.1110 C.3       1 SAH         0.2009
     17 N9        -30.3440  -26.3490   -5.0070 N.pl3     1 SAH        -0.1919
     18 C8        -30.2070  -25.0540   -4.6270 C.2       1 SAH         0.1123
     19 N7        -29.3400  -25.0120   -3.5940 N.2       1 SAH        -0.2958
     20 C5        -28.9100  -26.2570   -3.2770 C.ar      1 SAH         0.1045
     21 C6        -28.0350  -26.7690   -2.3080 C.ar      1 SAH         0.1298
     22 N6        -27.3980  -25.9930   -1.4120 N.pl3     1 SAH        -0.3152
     23 N1        -27.8320  -28.1280   -2.3030 N.ar      1 SAH        -0.2698
     24 C2        -28.4570  -28.9660   -3.1970 C.ar      1 SAH         0.0533
     25 N3        -29.3140  -28.4600   -4.1390 N.ar      1 SAH        -0.2714
     26 C4        -29.5390  -27.1140   -4.1800 C.ar      1 SAH         0.1613
     27 H1        -35.6934  -23.5703   -0.7658 H         1 SAH         0.2010
     28 H2        -34.2745  -24.2126   -0.2334 H         1 SAH         0.2010
     29 H3        -35.6708  -25.0733   -0.0949 H         1 SAH         0.2010
     30 H4        -35.9093  -25.2773   -2.4035 H         1 SAH         0.1024
     31 H5        -33.2604  -23.9387   -2.8188 H         1 SAH         0.0347
     32 H6        -34.6950  -22.9194   -2.4585 H         1 SAH         0.0347
     33 H7        -35.5109  -23.1588   -4.5237 H         1 SAH         0.0379
     34 H8        -35.2295  -24.9329   -4.5222 H         1 SAH         0.0379
     35 H9        -33.9127  -24.2831   -7.7171 H         1 SAH         0.0402
     36 H10       -35.0507  -25.0377   -6.5499 H         1 SAH         0.0402
     37 H11       -33.5402  -26.6268   -7.7865 H         1 SAH         0.0632
     38 H12       -33.6536  -26.4415   -4.7551 H         1 SAH         0.0647
     39 H13       -34.7253  -28.4149   -5.1366 H         1 SAH         0.2100
     40 H14       -32.0087  -28.1759   -4.5501 H         1 SAH         0.0676
     41 H15       -31.4319  -29.4039   -6.4126 H         1 SAH         0.2101
     42 H16       -30.4866  -27.4590   -6.7794 H         1 SAH         0.0996
     43 H17       -30.7087  -24.1985   -5.0767 H         1 SAH         0.1349
     44 H18       -26.7649  -26.4187   -0.7200 H         1 SAH         0.1820
     45 H19       -27.5436  -24.9734   -1.4182 H         1 SAH         0.1820
     46 H20       -28.2705  -30.0331   -3.1561 H         1 SAH         0.0996
@<TRIPOS>BOND
     1    1    2 1  
     2    2    3 1  
     3    2    6 1  
     4    3    4 1  
     5    4    5 1  
     6    5    9 1  
     7    6    7 ar 
     8    6    8 ar 
     9    9   10 1  
    10   10   11 1  
    11   10   12 1  
    12   11   16 1  
    13   12   13 1  
    14   12   14 1  
    15   14   15 1  
    16   14   16 1  
    17   16   17 1  
    18   17   18 1  
    19   17   26 1  
    20   18   19 2  
    21   19   20 1  
    22   20   21 ar 
    23   20   26 ar 
    24   21   22 1  
    25   21   23 ar 
    26   23   24 ar 
    27   24   25 ar 
    28   25   26 ar 
    29    1   27 1  
    30    1   28 1  
    31    1   29 1  
    32    2   30 1  
    33    3   31 1  
    34    3   32 1  
    35    4   33 1  
    36    4   34 1  
    37    9   35 1  
    38    9   36 1  
    39   10   37 1  
    40   12   38 1  
    41   13   39 1  
    42   14   40 1  
    43   15   41 1  
    44   16   42 1  
    45   18   43 1  
    46   22   44 1  
    47   22   45 1  
    48   24   46 1  
@<TRIPOS>SUBSTRUCTURE
     1 SAH         1

