### 
### Created by X-TOOL on Mon Sep 10 21:13:25 2018
### 

@<TRIPOS>MOLECULE
4xcb_ligand
   76    79     1     0     0
SMALL
GAST_HUCK


@<TRIPOS>ATOM
      1 C1         24.6340  258.2790  215.8630 C.3       1 HY0         0.1264
      2 C2         26.1420  258.2370  215.9660 C.3       1 HY0         0.0100
      3 C3         26.6300  259.3950  216.8240 C.3       1 HY0         0.0381
      4 C4         26.1840  260.7270  216.2210 C.3       1 HY0         0.0115
      5 C5         24.6700  260.7610  215.9960 C.3       1 HY0         0.1264
      6 C6         24.1740  259.5720  215.2330 C.3       1 HY0         0.1238
      7 N7         26.5140  257.0110  216.5620 N.4       1 HY0         0.2228
      8 O8         24.2320  257.2140  215.0330 O.3       1 HY0        -0.3835
      9 N9         26.5530  261.7750  217.1100 N.4       1 HY0         0.2290
     10 C10        27.9680  262.0760  216.9140 C.3       1 HY0        -0.0445
     11 O11        24.3660  261.9200  215.2500 O.3       1 HY0        -0.3835
     12 C12        20.6500  259.1220  214.1040 C.3       1 HY0         0.1436
     13 C13        22.1250  259.3950  213.9860 C.3       1 HY0         0.1889
     14 O14        22.4330  260.5050  213.1790 O.3       1 HY0        -0.3405
     15 C15        21.9440  260.3190  211.8800 C.3       1 HY0         0.1130
     16 C16        20.4610  260.5090  211.9420 C.3       1 HY0         0.1124
     17 C17        19.8840  259.3690  212.8770 C.3       1 HY0         0.1236
     18 O18        22.7180  259.6070  215.2640 O.3       1 HY0        -0.3399
     19 C19        22.5800  261.3600  210.9620 C.3       1 HY0         0.0730
     20 O20        23.9570  261.0180  210.7830 O.3       1 HY0        -0.3924
     21 O21        20.1480  261.7450  212.4660 O.3       1 HY0        -0.3865
     22 O22        18.6070  259.7080  213.2230 O.3       1 HY0        -0.3157
     23 C23        18.5540  259.6660  214.6620 C.3       1 HY0         0.3170
     24 C24        17.6150  260.7200  215.1450 C.3       1 HY0         0.1648
     25 C25        17.2790  260.4940  216.6110 C.3       1 HY0         0.1171
     26 C26        16.7890  259.0800  216.8490 C.3       1 HY0         0.1153
     27 C27        17.8400  258.1350  216.3750 C.3       1 HY0         0.1368
     28 O28        18.0770  258.3880  215.0090 O.3       1 HY0        -0.3127
     29 O29        19.9410  259.8710  215.1700 O.3       1 HY0        -0.3133
     30 O30        18.1980  262.0240  215.0470 O.3       1 HY0        -0.3812
     31 O31        16.3280  261.4560  217.0060 O.3       1 HY0        -0.3863
     32 O32        15.5600  258.8230  216.1650 O.3       1 HY0        -0.3863
     33 C33        17.3710  256.6760  216.5240 C.3       1 HY0         0.0287
     34 C34        18.5670  255.7600  216.5440 C.3       1 HY0         0.0893
     35 O35        19.2500  255.8230  217.7790 O.3       1 HY0        -0.3894
     36 N36        16.5870  256.3380  215.3950 N.4       1 HY0         0.2243
     37 H1         24.1882  258.1741  216.8631 H         1 HY0         0.0677
     38 H2         26.5855  258.3118  214.9622 H         1 HY0         0.0878
     39 H3         27.7285  259.3701  216.8763 H         1 HY0         0.0377
     40 H4         26.2123  259.2973  217.8369 H         1 HY0         0.0377
     41 H5         26.6906  260.8709  215.2553 H         1 HY0         0.0879
     42 H6         24.1627  260.7984  216.9713 H         1 HY0         0.0677
     43 H7         24.5342  259.6224  214.1949 H         1 HY0         0.0653
     44 H8         26.1887  256.2472  215.9903 H         1 HY0         0.1998
     45 H9         26.1007  256.9441  217.4789 H         1 HY0         0.1998
     46 H10        27.5179  256.9671  216.6418 H         1 HY0         0.1998
     47 H11        23.2856  257.2180  214.9507 H         1 HY0         0.2102
     48 H12        26.3967  261.4834  218.0621 H         1 HY0         0.2014
     49 H13        26.0012  262.5957  216.9150 H         1 HY0         0.2014
     50 H14        28.2684  262.8856  217.5954 H         1 HY0         0.0777
     51 H15        28.1351  262.3916  215.8736 H         1 HY0         0.0777
     52 H16        28.5667  261.1777  217.1254 H         1 HY0         0.0777
     53 H17        24.7947  261.8719  214.4036 H         1 HY0         0.2102
     54 H18        20.5640  258.0513  214.3410 H         1 HY0         0.0676
     55 H19        22.5865  258.5061  213.5312 H         1 HY0         0.0938
     56 H20        22.1824  259.3078  211.5187 H         1 HY0         0.0647
     57 H21        20.0312  260.4224  210.9332 H         1 HY0         0.0647
     58 H22        19.8659  258.4340  212.2978 H         1 HY0         0.0652
     59 H23        22.5007  262.3574  211.4191 H         1 HY0         0.0584
     60 H24        22.0673  261.3608  209.9888 H         1 HY0         0.0584
     61 H25        24.3939  261.0160  211.6266 H         1 HY0         0.2095
     62 H26        19.2038  261.8332  212.5241 H         1 HY0         0.2100
     63 H27        16.6958  260.6816  214.5421 H         1 HY0         0.0702
     64 H28        18.1915  260.6412  217.2073 H         1 HY0         0.0649
     65 H29        16.6281  258.9345  217.9274 H         1 HY0         0.0648
     66 H30        18.7628  258.2873  216.9541 H         1 HY0         0.0683
     67 H31        18.4223  262.2021  214.1412 H         1 HY0         0.2102
     68 H32        16.1452  261.3569  217.9330 H         1 HY0         0.2100
     69 H33        14.8955  259.4284  216.4719 H         1 HY0         0.2100
     70 H34        16.7858  256.5591  217.4481 H         1 HY0         0.0899
     71 H35        19.2564  256.0555  215.7394 H         1 HY0         0.0614
     72 H36        18.2283  254.7271  216.3758 H         1 HY0         0.0614
     73 H37        19.9960  255.2353  217.7574 H         1 HY0         0.2097
     74 H38        15.7774  256.9372  215.3566 H         1 HY0         0.1999
     75 H39        16.2908  255.3772  215.4671 H         1 HY0         0.1999
     76 H40        17.1345  256.4589  214.5573 H         1 HY0         0.1999
@<TRIPOS>BOND
     1    1    2 1  
     2    6    1 1  
     3    1    8 1  
     4    2    3 1  
     5    2    7 1  
     6    4    3 1  
     7    5    4 1  
     8    4    9 1  
     9    6    5 1  
    10    5   11 1  
    11   18    6 1  
    12    9   10 1  
    13   13   12 1  
    14   12   17 1  
    15   12   29 1  
    16   13   14 1  
    17   13   18 1  
    18   14   15 1  
    19   15   16 1  
    20   15   19 1  
    21   16   17 1  
    22   16   21 1  
    23   17   22 1  
    24   19   20 1  
    25   22   23 1  
    26   23   24 1  
    27   23   28 1  
    28   23   29 1  
    29   24   25 1  
    30   24   30 1  
    31   25   26 1  
    32   25   31 1  
    33   26   27 1  
    34   26   32 1  
    35   27   28 1  
    36   27   33 1  
    37   33   34 1  
    38   33   36 1  
    39   34   35 1  
    40    1   37 1  
    41    2   38 1  
    42    3   39 1  
    43    3   40 1  
    44    4   41 1  
    45    5   42 1  
    46    6   43 1  
    47    7   44 1  
    48    7   45 1  
    49    7   46 1  
    50    8   47 1  
    51    9   48 1  
    52    9   49 1  
    53   10   50 1  
    54   10   51 1  
    55   10   52 1  
    56   11   53 1  
    57   12   54 1  
    58   13   55 1  
    59   15   56 1  
    60   16   57 1  
    61   17   58 1  
    62   19   59 1  
    63   19   60 1  
    64   20   61 1  
    65   21   62 1  
    66   24   63 1  
    67   25   64 1  
    68   26   65 1  
    69   27   66 1  
    70   30   67 1  
    71   31   68 1  
    72   32   69 1  
    73   33   70 1  
    74   34   71 1  
    75   34   72 1  
    76   35   73 1  
    77   36   74 1  
    78   36   75 1  
    79   36   76 1  
@<TRIPOS>SUBSTRUCTURE
     1 HY0         1

