### 
### Created by X-TOOL on Mon Sep 10 21:13:22 2018
### 

@<TRIPOS>MOLECULE
4xct_ligand
   52    53     1     0     0
SMALL
GAST_HUCK


@<TRIPOS>ATOM
      1 OSB        15.6420  -20.3360   18.4020 O.2       1 N73        -0.1481
      2 S2         16.5790  -19.3450   17.8770 S.o2      1 N73         0.0944
      3 OSA        16.2030  -18.9270   16.5200 O.2       1 N73        -0.1481
      4 N1         17.9640  -19.8790   17.9560 N.am      1 N73        -0.0872
      5 ON2        18.0350  -21.0780   18.3630 O.3       1 N73        -0.2585
      6 C13        18.3210  -21.3320   19.7450 C.3       1 N73         0.0804
      7 C44        17.3600  -22.3860   20.3190 C.3       1 N73        -0.0366
      8 C15        19.7600  -21.8150   19.9280 C.3       1 N73        -0.0366
      9 C16        18.8060  -19.5610   16.9080 C.3       1 N73         0.1733
     10 C18        19.8660  -20.6600   16.5750 C.3       1 N73        -0.0061
     11 C19        19.3240  -21.7790   15.6710 C.3       1 N73        -0.0587
     12 C20        21.0650  -20.0570   15.8440 C.3       1 N73        -0.0587
     13 C17        19.6060  -18.3340   17.3940 C.2       1 N73         0.3117
     14 O8         20.2800  -18.4110   18.3690 O.2       1 N73        -0.3260
     15 N8         19.5620  -17.0850   16.6670 N.2       1 N73         0.0371
     16 OA8        20.2050  -16.1780   17.0550 O.2       1 N73        -0.1732
     17 C1         16.6290  -17.8530   18.9560 C.ar      1 N73         0.1107
     18 C2         16.7560  -16.5550   18.3680 C.ar      1 N73        -0.0344
     19 C3         16.8190  -15.3860   19.2490 C.ar      1 N73        -0.0522
     20 C4         16.7530  -15.5510   20.6720 C.ar      1 N73        -0.0178
     21 C11        16.6410  -16.8460   21.2600 C.ar      1 N73        -0.0522
     22 C12        16.5740  -18.0150   20.3820 C.ar      1 N73        -0.0344
     23 C5         16.8240  -14.2910   21.5710 C.ar      1 N73        -0.0179
     24 C6         17.5180  -14.3450   22.9420 C.ar      1 N73        -0.0540
     25 C7         17.5470  -13.2230   23.7470 C.ar      1 N73        -0.0612
     26 C8         16.8450  -11.9300   23.2740 C.ar      1 N73        -0.0617
     27 C9         16.2070  -11.8950   22.0860 C.ar      1 N73        -0.0612
     28 C10        16.1720  -13.1660   21.1740 C.ar      1 N73        -0.0540
     29 H1         18.1904  -20.3935   20.3037 H         1 N73         0.0615
     30 H2         17.5996  -22.5626   21.3780 H         1 N73         0.0255
     31 H3         17.4680  -23.3254   19.7570 H         1 N73         0.0255
     32 H4         16.3249  -22.0240   20.2328 H         1 N73         0.0255
     33 H5         19.9512  -22.0016   20.9951 H         1 N73         0.0255
     34 H6         20.4547  -21.0455   19.5602 H         1 N73         0.0255
     35 H7         19.9095  -22.7454   19.3606 H         1 N73         0.0255
     36 H8         18.2150  -19.3303   16.0094 H         1 N73         0.0795
     37 H9         20.2035  -21.1031   17.5235 H         1 N73         0.0340
     38 H10        20.1202  -22.5133   15.4791 H         1 N73         0.0234
     39 H11        18.9851  -21.3482   14.7173 H         1 N73         0.0234
     40 H12        18.4790  -22.2763   16.1696 H         1 N73         0.0234
     41 H13        21.4942  -19.2459   16.4505 H         1 N73         0.0234
     42 H14        20.7387  -19.6556   14.8732 H         1 N73         0.0234
     43 H15        21.8252  -20.8354   15.6822 H         1 N73         0.0234
     44 H16        16.8047  -16.4386   17.2914 H         1 N73         0.0637
     45 H17        16.9158  -14.3935   18.8239 H         1 N73         0.0624
     46 H18        16.6062  -16.9620   22.3372 H         1 N73         0.0624
     47 H19        16.4825  -19.0069   20.8096 H         1 N73         0.0637
     48 H20        17.9848  -15.2642   23.2770 H         1 N73         0.0624
     49 H21        18.0579  -13.2492   24.7027 H         1 N73         0.0618
     50 H22        16.8654  -11.0458   23.9007 H         1 N73         0.0618
     51 H23        15.7172  -10.9838   21.7622 H         1 N73         0.0618
     52 H24        15.6326  -13.1497   20.2339 H         1 N73         0.0624
@<TRIPOS>BOND
     1    1    2 2  
     2    2    3 2  
     3    2    4 am 
     4    2   17 1  
     5    4    5 1  
     6    4    9 1  
     7    5    6 1  
     8    6    7 1  
     9    6    8 1  
    10    9   10 1  
    11    9   13 1  
    12   10   11 1  
    13   10   12 1  
    14   13   14 2  
    15   13   15 1  
    16   15   16 2  
    17   17   18 ar 
    18   17   22 ar 
    19   18   19 ar 
    20   19   20 ar 
    21   20   21 ar 
    22   20   23 1  
    23   21   22 ar 
    24   23   24 ar 
    25   23   28 ar 
    26   24   25 ar 
    27   25   26 ar 
    28   26   27 ar 
    29   27   28 ar 
    30    6   29 1  
    31    7   30 1  
    32    7   31 1  
    33    7   32 1  
    34    8   33 1  
    35    8   34 1  
    36    8   35 1  
    37    9   36 1  
    38   10   37 1  
    39   11   38 1  
    40   11   39 1  
    41   11   40 1  
    42   12   41 1  
    43   12   42 1  
    44   12   43 1  
    45   18   44 1  
    46   19   45 1  
    47   21   46 1  
    48   22   47 1  
    49   24   48 1  
    50   25   49 1  
    51   26   50 1  
    52   27   51 1  
    53   28   52 1  
@<TRIPOS>SUBSTRUCTURE
     1 N73         1

