### 
### Created by X-TOOL on Mon Sep 10 21:13:24 2018
### 

@<TRIPOS>MOLECULE
4xcu_ligand
   59    62     1     0     0
SMALL
GAST_HUCK


@<TRIPOS>ATOM
      1 O         -11.0200    5.2650  -28.6750 O.2       1 40M        -0.3862
      2 C6        -11.8280    5.9200  -28.0140 C.2       1 40M         0.2007
      3 C7        -13.1350    6.3960  -28.6460 C.3       1 40M         0.0398
      4 C8        -14.1550    7.0390  -27.7130 C.3       1 40M        -0.0478
      5 N         -11.5930    6.2540  -26.6970 N.am      1 40M        -0.2382
      6 C4        -10.4220    5.9540  -25.9230 C.ar      1 40M         0.0861
      7 C5         -9.1950    5.4780  -26.3890 C.ar      1 40M        -0.0560
      8 C3         -8.1470    5.2420  -25.4950 C.ar      1 40M        -0.0927
      9 C1         -8.3010    5.4900  -24.1350 C.ar      1 40M        -0.0843
     10 C          -9.5150    5.9800  -23.6480 C.ar      1 40M        -0.0335
     11 C25        -9.5670    6.2210  -22.1650 C.3       1 40M        -0.0370
     12 C2        -10.5800    6.1750  -24.5460 C.ar      1 40M         0.0911
     13 N1        -11.8380    6.6950  -24.2340 N.pl3     1 40M        -0.2497
     14 C12       -12.6410    6.1260  -23.2590 C.ar      1 40M         0.2039
     15 N3        -13.7410    6.8820  -23.0860 N.ar      1 40M        -0.2400
     16 C11       -14.6270    6.5040  -22.1550 C.ar      1 40M         0.0332
     17 C9        -14.3720    5.3530  -21.4340 C.ar      1 40M         0.0233
     18 C13       -15.2760    4.9730  -20.4590 C.ar      1 40M        -0.0364
     19 N2        -12.3900    4.9950  -22.5950 N.ar      1 40M        -0.2648
     20 C10       -13.2530    4.5950  -21.6390 C.ar      1 40M         0.0414
     21 C15       -13.0170    3.4410  -20.8860 C.ar      1 40M        -0.0403
     22 C16       -13.9440    3.0470  -19.8910 C.ar      1 40M        -0.0487
     23 C14       -15.0360    3.8440  -19.7040 C.ar      1 40M        -0.0158
     24 C22       -16.0170    3.5160  -18.6220 C.ar      1 40M        -0.0072
     25 C21       -16.0660    4.3300  -17.5120 C.ar      1 40M         0.0637
     26 CL1       -15.1030    5.7820  -17.2470 Cl        1 40M        -0.0878
     27 C20       -16.8070    2.4310  -18.5860 C.ar      1 40M         0.0637
     28 CL        -16.8330    1.3560  -19.9280 Cl        1 40M        -0.0878
     29 C18       -17.7270    2.1780  -17.5660 C.ar      1 40M         0.0972
     30 O1        -18.4980    1.0460  -17.6490 O.3       1 40M        -0.3229
     31 C23       -19.5450    0.8310  -16.6400 C.3       1 40M         0.0594
     32 C17       -17.7490    3.0140  -16.4820 C.ar      1 40M        -0.0036
     33 C19       -16.9400    4.1190  -16.4700 C.ar      1 40M         0.0972
     34 O2        -16.9250    5.0020  -15.4420 O.3       1 40M        -0.3229
     35 C24       -18.1420    5.4430  -14.8240 C.3       1 40M         0.0594
     36 H1        -13.6153    5.5241  -29.1141 H         1 40M         0.0504
     37 H2        -12.8806    7.1344  -29.4206 H         1 40M         0.0504
     38 H3        -15.0439    7.3348  -28.2895 H         1 40M         0.0254
     39 H4        -13.7112    7.9282  -27.2415 H         1 40M         0.0254
     40 H5        -14.4459    6.3179  -26.9349 H         1 40M         0.0254
     41 H6        -12.3177    6.7607  -26.2300 H         1 40M         0.2224
     42 H7         -9.0548    5.2909  -27.4475 H         1 40M         0.0416
     43 H8         -7.2024    4.8610  -25.8660 H         1 40M         0.0469
     44 H9         -7.4792    5.3031  -23.4533 H         1 40M         0.0404
     45 H10        -8.5890    5.9843  -21.7206 H         1 40M         0.0364
     46 H11       -10.3389    5.5787  -21.7160 H         1 40M         0.0364
     47 H12        -9.8110    7.2763  -21.9733 H         1 40M         0.0364
     48 H13       -12.1779    7.5238  -24.7424 H         1 40M         0.2136
     49 H14       -15.5223    7.0869  -21.9717 H         1 40M         0.1003
     50 H15       -16.1707    5.5608  -20.2886 H         1 40M         0.0685
     51 H16       -12.1263    2.8492  -21.0635 H         1 40M         0.0618
     52 H17       -13.7927    2.1495  -19.3022 H         1 40M         0.0682
     53 H18       -20.0666   -0.1147  -16.8487 H         1 40M         0.0578
     54 H19       -20.2646    1.6622  -16.6754 H         1 40M         0.0578
     55 H20       -19.0873    0.7845  -15.6408 H         1 40M         0.0578
     56 H21       -18.4003    2.8034  -15.6415 H         1 40M         0.0466
     57 H22       -17.9072    6.1526  -14.0169 H         1 40M         0.0578
     58 H23       -18.6762    4.5767  -14.4066 H         1 40M         0.0578
     59 H24       -18.7759    5.9380  -15.5744 H         1 40M         0.0578
@<TRIPOS>BOND
     1    1    2 2  
     2    2    3 1  
     3    2    5 am 
     4    3    4 1  
     5    5    6 1  
     6    6    7 ar 
     7    6   12 ar 
     8    7    8 ar 
     9    8    9 ar 
    10    9   10 ar 
    11   10   11 1  
    12   10   12 ar 
    13   12   13 1  
    14   13   14 1  
    15   14   15 ar 
    16   14   19 ar 
    17   15   16 ar 
    18   16   17 ar 
    19   17   18 ar 
    20   17   20 ar 
    21   18   23 ar 
    22   19   20 ar 
    23   20   21 ar 
    24   21   22 ar 
    25   22   23 ar 
    26   23   24 1  
    27   24   25 ar 
    28   24   27 ar 
    29   25   26 1  
    30   25   33 ar 
    31   27   28 1  
    32   27   29 ar 
    33   29   30 1  
    34   29   32 ar 
    35   30   31 1  
    36   32   33 ar 
    37   33   34 1  
    38   34   35 1  
    39    3   36 1  
    40    3   37 1  
    41    4   38 1  
    42    4   39 1  
    43    4   40 1  
    44    5   41 1  
    45    7   42 1  
    46    8   43 1  
    47    9   44 1  
    48   11   45 1  
    49   11   46 1  
    50   11   47 1  
    51   13   48 1  
    52   16   49 1  
    53   18   50 1  
    54   21   51 1  
    55   22   52 1  
    56   31   53 1  
    57   31   54 1  
    58   31   55 1  
    59   32   56 1  
    60   35   57 1  
    61   35   58 1  
    62   35   59 1  
@<TRIPOS>SUBSTRUCTURE
     1 40M         1

