### 
### Created by X-TOOL on Mon Sep 10 21:13:24 2018
### 

@<TRIPOS>MOLECULE
4xdo_ligand
   13    12     1     0     0
SMALL
GAST_HUCK


@<TRIPOS>ATOM
      1 C1        -28.9990    2.2020   45.8030 C.2       1 OGA         0.1433
      2 C2        -28.9410    3.6430   45.4980 C.2       1 OGA         0.2452
      3 C4        -30.1010    5.4420   44.3240 C.3       1 OGA         0.0841
      4 C5        -30.9640    5.8000   43.1200 C.2       1 OGA         0.0572
      5 O1        -29.7520    1.4870   45.0430 O.co2     1 OGA        -0.5457
      6 O2        -28.2210    1.7250   46.6820 O.co2     1 OGA        -0.5457
      7 O2'       -28.0630    4.3740   45.9980 O.2       1 OGA        -0.3655
      8 O3        -31.3280    6.9950   43.1230 O.co2     1 OGA        -0.5669
      9 N1        -29.8310    4.0470   44.6000 N.am      1 OGA        -0.2659
     10 O4        -31.2780    4.9560   42.1980 O.co2     1 OGA        -0.5669
     11 H1        -30.5988    5.8566   45.2130 H         1 OGA         0.0691
     12 H2        -29.1290    5.9374   44.1835 H         1 OGA         0.0691
     13 H3        -30.3397    3.3539   44.0893 H         1 OGA         0.1886
@<TRIPOS>BOND
     1    2    1 1  
     2    1    5 ar 
     3    1    6 ar 
     4    2    7 2  
     5    9    2 am 
     6    3    4 1  
     7    3    9 1  
     8    4    8 ar 
     9    4   10 ar 
    10    3   11 1  
    11    3   12 1  
    12    9   13 1  
@<TRIPOS>SUBSTRUCTURE
     1 OGA         1

