### 
### Created by X-TOOL on Mon Sep 10 21:13:25 2018
### 

@<TRIPOS>MOLECULE
4xe0_ligand
   49    53     1     0     0
SMALL
GAST_HUCK


@<TRIPOS>ATOM
      1 C13        -3.0990  -14.1880   23.6450 C.ar      1 40L        -0.0298
      2 C15        -2.7890  -16.3660   24.6000 C.ar      1 40L        -0.0730
      3 C17        -4.5080  -16.0300   22.9510 C.ar      1 40L        -0.0298
      4 C20        -7.5970  -14.5410   23.5990 C.3       1 40L        -0.0117
      5 C21        -8.7690  -14.3380   22.6510 C.3       1 40L        -0.0602
      6 C24        -7.0420   -9.9920   25.2280 C.ar      1 40L         0.1547
      7 C01        -4.9980  -11.2850   17.7880 C.ar      1 40L        -0.0313
      8 C02        -6.1650  -10.6730   18.2330 C.ar      1 40L        -0.0682
      9 C03        -6.6670  -10.9930   19.5000 C.ar      1 40L        -0.0575
     10 C04        -6.0110  -11.9180   20.3270 C.ar      1 40L         0.0133
     11 C05        -4.8590  -12.5380   19.8720 C.ar      1 40L         0.0983
     12 C06        -4.3640  -12.2210   18.6040 C.ar      1 40L         0.1459
     13 F07        -3.2470  -12.8160   18.1730 F         1 40L        -0.1798
     14 N08        -6.5270  -12.2030   21.5840 N.2       1 40L        -0.3009
     15 C09        -4.1940  -13.5210   20.7630 C.2       1 40L         0.2594
     16 O10        -3.1750  -14.0670   20.4020 O.2       1 40L        -0.3780
     17 N11        -4.8070  -13.7570   21.9950 N.am      1 40L        -0.1305
     18 C12        -4.1550  -14.6760   22.8700 C.ar      1 40L         0.1100
     19 C14        -2.4080  -15.0300   24.5110 C.ar      1 40L        -0.0705
     20 C16        -3.8270  -16.8710   23.8240 C.ar      1 40L        -0.0705
     21 C18        -5.9620  -13.0730   22.3480 C.2       1 40L         0.1912
     22 C19        -6.6120  -13.3560   23.7120 C.3       1 40L         0.1334
     23 N22        -7.2550  -12.1070   24.1100 N.pl3     1 40L        -0.2764
     24 C23        -6.4770  -11.1650   24.7280 C.ar      1 40L         0.1579
     25 C25        -6.2030   -9.0860   25.8370 C.ar      1 40L         0.1017
     26 N26        -4.8690   -9.1820   26.0140 N.ar      1 40L        -0.2948
     27 C27        -4.4110  -10.3460   25.5000 C.ar      1 40L         0.0502
     28 N28        -5.1190  -11.3250   24.8750 N.ar      1 40L        -0.2689
     29 N29        -8.3410   -9.5400   25.2300 N.pl3     1 40L        -0.2409
     30 C30        -8.2750   -8.3860   25.8440 C.2       1 40L         0.1112
     31 N31        -7.0130   -8.0650   26.2290 N.2       1 40L        -0.2857
     32 H1         -2.8158  -13.1443   23.5707 H         1 40L         0.0547
     33 H2         -2.2678  -17.0240   25.2858 H         1 40L         0.0522
     34 H3         -5.3098  -16.4204   22.3347 H         1 40L         0.0547
     35 H4         -7.0311  -15.4187   23.2534 H         1 40L         0.0320
     36 H5         -8.0039  -14.7386   24.6017 H         1 40L         0.0320
     37 H6         -9.4001  -15.2389   22.6501 H         1 40L         0.0233
     38 H7         -8.3909  -14.1542   21.6345 H         1 40L         0.0233
     39 H8         -9.3637  -13.4742   22.9828 H         1 40L         0.0233
     40 H9         -4.5856  -11.0368   16.8167 H         1 40L         0.0541
     41 H10        -6.6806   -9.9555   17.6050 H         1 40L         0.0617
     42 H11        -7.5774  -10.5186   19.8481 H         1 40L         0.0522
     43 H12        -1.5856  -14.6514   25.1072 H         1 40L         0.0588
     44 H13        -4.1040  -17.9163   23.8996 H         1 40L         0.0588
     45 H14        -5.8380  -13.6169   24.4488 H         1 40L         0.0865
     46 H15        -8.2559  -11.9409   23.9326 H         1 40L         0.1883
     47 H16        -3.3457  -10.5208   25.5984 H         1 40L         0.0974
     48 H17        -9.1737  -10.0029   24.8386 H         1 40L         0.2376
     49 H18        -9.1404   -7.7507   26.0267 H         1 40L         0.1402
@<TRIPOS>BOND
     1   18    1 ar 
     2    1   19 ar 
     3   19    2 ar 
     4   20    2 ar 
     5   18    3 ar 
     6    3   20 ar 
     7    4    5 1  
     8   22    4 1  
     9   24    6 ar 
    10    6   25 ar 
    11    6   29 1  
    12    8    7 ar 
    13   12    7 ar 
    14    9    8 ar 
    15   10    9 ar 
    16   10   11 ar 
    17   14   10 1  
    18   11   12 ar 
    19   15   11 1  
    20   12   13 1  
    21   21   14 2  
    22   15   16 2  
    23   17   15 am 
    24   17   18 1  
    25   21   17 1  
    26   22   21 1  
    27   23   22 1  
    28   23   24 1  
    29   24   28 ar 
    30   25   26 ar 
    31   25   31 1  
    32   26   27 ar 
    33   27   28 ar 
    34   29   30 1  
    35   30   31 2  
    36    1   32 1  
    37    2   33 1  
    38    3   34 1  
    39    4   35 1  
    40    4   36 1  
    41    5   37 1  
    42    5   38 1  
    43    5   39 1  
    44    7   40 1  
    45    8   41 1  
    46    9   42 1  
    47   19   43 1  
    48   20   44 1  
    49   22   45 1  
    50   23   46 1  
    51   27   47 1  
    52   29   48 1  
    53   30   49 1  
@<TRIPOS>SUBSTRUCTURE
     1 40L         1

