### 
### Created by X-TOOL on Sun Nov 13 14:29:36 2016
### 

@<TRIPOS>MOLECULE
4xe1_ligand
   22    23     1     0     0
SMALL
GAST_HUCK


@<TRIPOS>ATOM
      1 C2         -5.7230    3.3010   15.4070 C.ar      1 IL5        -0.0023
      2 C3         -5.0650    4.3350   14.7350 C.ar      1 IL5         0.1348
      3 S2         -5.5830    5.9260   14.1930 S.o2      1 IL5         0.0935
      4 O3         -5.9500    6.7130   15.3430 O.2       1 IL5        -0.1449
      5 O4         -6.6020    5.8440   13.1770 O.2       1 IL5        -0.1449
      6 N2         -4.1720    6.3950   13.5610 N.am      1 IL5        -0.1525
      7 C7         -3.2230    5.4400   13.6900 C.2       1 IL5         0.2270
      8 O5         -2.0580    5.5710   13.2890 O.2       1 IL5        -0.3829
      9 C4         -3.7190    4.2030   14.3770 C.ar      1 IL5         0.0785
     10 C5         -3.0230    3.0270   14.6730 C.ar      1 IL5        -0.0381
     11 C6         -3.6730    1.9930   15.3540 C.ar      1 IL5        -0.0294
     12 C1         -5.0170    2.1360   15.7190 C.ar      1 IL5         0.1140
     13 S1         -5.8250    0.8330   16.5750 S.o2      1 IL5         0.0678
     14 O1         -5.3090    0.9080   17.9070 O.2       1 IL5        -0.1499
     15 O2         -7.2320    0.9890   16.3690 O.2       1 IL5        -0.1499
     16 N1         -5.3410   -0.5260   15.9350 N.am      1 IL5        -0.2605
     17 H1         -6.7666    3.4014   15.6824 H         1 IL5         0.0668
     18 H2         -4.0190    7.2830   13.1274 H         1 IL5         0.2139
     19 H3         -1.9861    2.9175   14.3765 H         1 IL5         0.0670
     20 H4         -3.1375    1.0828   15.5987 H         1 IL5         0.0649
     21 H5         -5.6890   -1.3956   16.2853 H         1 IL5         0.1635
     22 H6         -4.6863   -0.5175   15.1791 H         1 IL5         0.1635
@<TRIPOS>BOND
     1    1    2 ar 
     2    1   12 ar 
     3    2    3 1  
     4    2    9 ar 
     5    3    4 2  
     6    3    5 2  
     7    3    6 am 
     8    6    7 am 
     9    7    8 2  
    10    7    9 1  
    11    9   10 ar 
    12   10   11 ar 
    13   11   12 ar 
    14   12   13 1  
    15   13   14 2  
    16   13   15 2  
    17   13   16 am 
    18    1   17 1  
    19    6   18 1  
    20   10   19 1  
    21   11   20 1  
    22   16   21 1  
    23   16   22 1  
@<TRIPOS>SUBSTRUCTURE
     1 IL5         1

