### 
### Created by X-TOOL on Mon Sep 10 21:13:24 2018
### 

@<TRIPOS>MOLECULE
4xg3_ligand
   63    66     1     0     0
SMALL
GAST_HUCK


@<TRIPOS>ATOM
      1 C4         12.9040   11.4670    5.7440 C.ar      1 X3G         0.2005
      2 C5         11.7510   12.2180    5.4940 C.ar      1 X3G         0.2027
      3 C6         11.8700   13.4010    4.7760 C.ar      1 X3G         0.0416
      4 N1         13.0570   13.8190    4.3600 N.ar      1 X3G        -0.2648
      5 N3         14.0820   11.9600    5.2910 N.ar      1 X3G        -0.2239
      6 CAD        21.9950   10.3440    5.6220 C.3       1 X3G         0.0849
      7 SBH        21.4950   11.5390    4.4010 S.o2      1 X3G         0.0931
      8 OAE        22.5730   11.6330    3.3630 O.2       1 X3G        -0.1442
      9 OAF        21.3100   12.8910    5.0180 O.2       1 X3G        -0.1442
     10 OAU        20.2950   11.0850    3.7610 O.3       1 X3G        -0.1867
     11 CBC        19.0880   11.7500    3.8880 C.ar      1 X3G         0.1135
     12 CAW        18.8130   12.9530    3.2090 C.ar      1 X3G        -0.0296
     13 CAB        19.8630   13.6510    2.3370 C.3       1 X3G        -0.0370
     14 CAK        17.5610   13.5590    3.3320 C.ar      1 X3G        -0.0520
     15 CAV        18.0600   11.1650    4.6500 C.ar      1 X3G        -0.0296
     16 CAA        18.2650    9.8550    5.4160 C.3       1 X3G        -0.0370
     17 CAJ        16.8160   11.7830    4.7690 C.ar      1 X3G        -0.0520
     18 CAZ        16.5380   12.9830    4.0980 C.ar      1 X3G         0.0408
     19 NAT        15.3530   13.6220    4.1540 N.pl3     1 X3G        -0.2541
     20 C2         14.1810   13.1120    4.5940 C.ar      1 X3G         0.1967
     21 F5         10.5360   11.8360    5.9080 F         1 X3G        -0.1809
     22 NBG        12.9030   10.3300    6.4610 N.pl3     1 X3G        -0.2368
     23 CAM        14.0190    9.6730    6.8050 C.2       1 X3G         0.0317
     24 CAL        11.8570    9.6820    7.0130 C.2       1 X3G         0.0267
     25 CAX        12.3320    8.6270    7.6710 C.2       1 X3G        -0.0576
     26 CAC        11.4970    7.5940    8.4350 C.3       1 X3G        -0.0505
     27 CBA        13.7090    8.6140    7.5480 C.2       1 X3G        -0.0156
     28 CAP        14.6990    7.5920    8.1190 C.3       1 X3G        -0.0165
     29 NBF        15.2130    8.0250    9.4290 N.4       1 X3G         0.2438
     30 CAQ        16.1370    9.1730    9.3320 C.3       1 X3G        -0.0043
     31 CAO        15.9690    6.9110   10.0380 C.3       1 X3G        -0.0284
     32 CAN        17.3950    7.4140   10.2020 C.3       1 X3G         0.0185
     33 CBE        17.1890    8.9020   10.3760 C.3       1 X3G         0.0997
     34 OAG        18.3790    9.5920   10.0030 O.3       1 X3G        -0.3863
     35 H1         10.9853   13.9869    4.5542 H         1 X3G         0.0851
     36 H2         22.9157   10.6879    6.1161 H         1 X3G         0.0492
     37 H3         22.1807    9.3762    5.1333 H         1 X3G         0.0492
     38 H4         21.1977   10.2296    6.3711 H         1 X3G         0.0492
     39 H5         19.4322   14.5674    1.9072 H         1 X3G         0.0365
     40 H6         20.1731   12.9762    1.5256 H         1 X3G         0.0365
     41 H7         20.7370   13.9104    2.9524 H         1 X3G         0.0365
     42 H8         17.3756   14.4978    2.8227 H         1 X3G         0.0393
     43 H9         17.3348    9.5861    5.9379 H         1 X3G         0.0365
     44 H10        19.0739    9.9824    6.1505 H         1 X3G         0.0365
     45 H11        18.5335    9.0555    4.7099 H         1 X3G         0.0365
     46 H12        16.0518   11.3292    5.3896 H         1 X3G         0.0393
     47 H13        15.3388   14.5990    3.8282 H         1 X3G         0.2137
     48 H14        15.0290    9.9627    6.5190 H         1 X3G         0.0705
     49 H15        10.8099    9.9706    6.9344 H         1 X3G         0.0703
     50 H16        10.4315    7.8576    8.3623 H         1 X3G         0.0314
     51 H17        11.8013    7.5858    9.4920 H         1 X3G         0.0314
     52 H18        11.6586    6.5971    7.9992 H         1 X3G         0.0314
     53 H19        15.5422    7.4805    7.4215 H         1 X3G         0.0899
     54 H20        14.1890    6.6244    8.2355 H         1 X3G         0.0899
     55 H21        14.4340    8.2754   10.0176 H         1 X3G         0.2042
     56 H22        15.6105   10.1147    9.5464 H         1 X3G         0.0840
     57 H23        16.5882    9.2250    8.3302 H         1 X3G         0.0840
     58 H24        15.9477    6.0296    9.3802 H         1 X3G         0.0815
     59 H25        15.5412    6.6485   11.0168 H         1 X3G         0.0815
     60 H26        18.0001    7.1966    9.3095 H         1 X3G         0.0344
     61 H27        17.8750    6.9714   11.0872 H         1 X3G         0.0344
     62 H28        16.8687    9.1736   11.3927 H         1 X3G         0.0649
     63 H29        18.2493   10.5267   10.1124 H         1 X3G         0.2100
@<TRIPOS>BOND
     1    1    2 ar 
     2    5    1 ar 
     3    1   22 1  
     4    3    2 ar 
     5    2   21 1  
     6    4    3 ar 
     7   20    4 ar 
     8   20    5 ar 
     9    7    6 1  
    10    7    8 2  
    11    7    9 2  
    12   10    7 1  
    13   11   10 1  
    14   12   11 ar 
    15   15   11 ar 
    16   12   13 1  
    17   14   12 ar 
    18   18   14 ar 
    19   15   16 1  
    20   17   15 ar 
    21   18   17 ar 
    22   19   18 1  
    23   19   20 1  
    24   22   23 1  
    25   22   24 1  
    26   23   27 2  
    27   24   25 2  
    28   25   26 1  
    29   25   27 1  
    30   27   28 1  
    31   28   29 1  
    32   29   30 1  
    33   29   31 1  
    34   30   33 1  
    35   31   32 1  
    36   32   33 1  
    37   33   34 1  
    38    3   35 1  
    39    6   36 1  
    40    6   37 1  
    41    6   38 1  
    42   13   39 1  
    43   13   40 1  
    44   13   41 1  
    45   14   42 1  
    46   16   43 1  
    47   16   44 1  
    48   16   45 1  
    49   17   46 1  
    50   19   47 1  
    51   23   48 1  
    52   24   49 1  
    53   26   50 1  
    54   26   51 1  
    55   26   52 1  
    56   28   53 1  
    57   28   54 1  
    58   29   55 1  
    59   30   56 1  
    60   30   57 1  
    61   31   58 1  
    62   31   59 1  
    63   32   60 1  
    64   32   61 1  
    65   33   62 1  
    66   34   63 1  
@<TRIPOS>SUBSTRUCTURE
     1 X3G         1

