### 
### Created by X-TOOL on Mon Sep 10 21:13:24 2018
### 

@<TRIPOS>MOLECULE
4xg4_ligand
   64    67     1     0     0
SMALL
GAST_HUCK


@<TRIPOS>ATOM
      1 C4         12.6400   -1.5010   12.5040 C.ar      1 X4G         0.2005
      2 C5         11.5110   -1.1000   13.2500 C.ar      1 X4G         0.2027
      3 C6         11.6760   -0.1080   14.2040 C.ar      1 X4G         0.0416
      4 N1         12.8660    0.4280   14.4220 N.ar      1 X4G        -0.2648
      5 N3         13.8340   -0.9190   12.8090 N.ar      1 X4G        -0.2239
      6 OAE        17.6370   -6.1960   12.1250 O.3       1 X4G        -0.3863
      7 CBE        16.4250   -6.7590   11.6530 C.3       1 X4G         0.0997
      8 CAQ        15.4960   -5.6050   11.3300 C.3       1 X4G        -0.0043
      9 CAN        16.6980   -7.4610   10.3200 C.3       1 X4G         0.0185
     10 CAO        15.9050   -6.6570    9.2790 C.3       1 X4G        -0.0284
     11 NBF        14.8690   -5.9470   10.0480 N.4       1 X4G         0.2438
     12 CAP        14.4310   -4.7350    9.3520 C.3       1 X4G        -0.0165
     13 CBA        13.4340   -3.9650   10.2100 C.2       1 X4G        -0.0156
     14 CAK        13.7370   -2.9560   11.0060 C.2       1 X4G         0.0317
     15 CAX        12.0680   -4.1430   10.3220 C.2       1 X4G        -0.0576
     16 CAC        11.2280   -5.2030    9.5940 C.3       1 X4G        -0.0505
     17 CAJ        11.5890   -3.2540   11.1810 C.2       1 X4G         0.0267
     18 NBG        12.6230   -2.4920   11.5900 N.pl3     1 X4G        -0.2368
     19 F5         10.2650   -1.5980   13.0760 F         1 X4G        -0.1809
     20 C2         13.9660    0.0520   13.7500 C.ar      1 X4G         0.1967
     21 NAT        15.1120    0.6800   14.1050 N.pl3     1 X4G        -0.2541
     22 CAZ        16.3690    0.4590   13.6540 C.ar      1 X4G         0.0408
     23 CAI        16.7370   -0.5910   12.8050 C.ar      1 X4G        -0.0520
     24 CAW        18.0650   -0.7460   12.3840 C.ar      1 X4G        -0.0320
     25 CAB        18.4590   -1.9030   11.4590 C.3       1 X4G        -0.0370
     26 CAH        17.3740    1.3410   14.0720 C.ar      1 X4G        -0.0520
     27 CAV        18.6990    1.1900   13.6670 C.ar      1 X4G        -0.0320
     28 CAA        19.7470    2.1880   14.1630 C.3       1 X4G        -0.0370
     29 CBC        19.0440    0.1450   12.8120 C.ar      1 X4G         0.0820
     30 OAU        20.3250   -0.0190   12.4030 O.3       1 X4G        -0.3307
     31 CAM        20.5530    0.6750   11.1790 C.3       1 X4G         0.0877
     32 CAL        21.9670    0.2500   10.7820 C.3       1 X4G         0.0711
     33 OAD        22.9030    0.7200   11.7700 O.3       1 X4G        -0.3924
     34 H1         10.8213    0.2322   14.7774 H         1 X4G         0.0851
     35 H2         18.0114   -5.6419   11.4503 H         1 X4G         0.2100
     36 H3         15.9868   -7.4464   12.3916 H         1 X4G         0.0649
     37 H4         16.0651   -4.6679   11.2407 H         1 X4G         0.0840
     38 H5         14.7319   -5.4967   12.1138 H         1 X4G         0.0840
     39 H6         16.3475   -8.5032   10.3527 H         1 X4G         0.0344
     40 H7         17.7727   -7.4427   10.0861 H         1 X4G         0.0344
     41 H8         15.4443   -7.3300    8.5408 H         1 X4G         0.0815
     42 H9         16.5612   -5.9408    8.7629 H         1 X4G         0.0815
     43 H10        14.0740   -6.5485   10.1972 H         1 X4G         0.2042
     44 H11        13.9524   -5.0147    8.4019 H         1 X4G         0.0899
     45 H12        15.3039   -4.0972    9.1490 H         1 X4G         0.0899
     46 H13        14.7394   -2.5608   11.1641 H         1 X4G         0.0705
     47 H14        10.1723   -5.0972    9.8845 H         1 X4G         0.0314
     48 H15        11.5852   -6.2063    9.8691 H         1 X4G         0.0314
     49 H16        11.3248   -5.0645    8.5071 H         1 X4G         0.0314
     50 H17        10.5516   -3.1572   11.4977 H         1 X4G         0.0703
     51 H18        15.0144    1.4236   14.8110 H         1 X4G         0.2137
     52 H19        15.9842   -1.2945   12.4681 H         1 X4G         0.0393
     53 H20        17.5679   -2.5029   11.2223 H         1 X4G         0.0365
     54 H21        19.2046   -2.5366   11.9615 H         1 X4G         0.0365
     55 H22        18.8871   -1.4998   10.5294 H         1 X4G         0.0365
     56 H23        17.1139    2.1635   14.7285 H         1 X4G         0.0393
     57 H24        19.2671    2.9264   14.8221 H         1 X4G         0.0365
     58 H25        20.1987    2.7034   13.3026 H         1 X4G         0.0365
     59 H26        20.5287    1.6519   14.7210 H         1 X4G         0.0365
     60 H27        20.4976    1.7634   11.3285 H         1 X4G         0.0626
     61 H28        19.8228    0.3723   10.4141 H         1 X4G         0.0626
     62 H29        22.2190    0.6829    9.8027 H         1 X4G         0.0583
     63 H30        22.0171   -0.8472   10.7218 H         1 X4G         0.0583
     64 H31        22.6842    0.3456   12.6153 H         1 X4G         0.2095
@<TRIPOS>BOND
     1    1    2 ar 
     2    1    5 ar 
     3   18    1 1  
     4    2    3 ar 
     5    2   19 1  
     6    3    4 ar 
     7   20    4 ar 
     8    5   20 ar 
     9    7    6 1  
    10    8    7 1  
    11    9    7 1  
    12   11    8 1  
    13   10    9 1  
    14   11   10 1  
    15   12   11 1  
    16   13   12 1  
    17   14   13 2  
    18   13   15 1  
    19   14   18 1  
    20   15   16 1  
    21   15   17 2  
    22   17   18 1  
    23   20   21 1  
    24   21   22 1  
    25   22   23 ar 
    26   22   26 ar 
    27   23   24 ar 
    28   24   25 1  
    29   24   29 ar 
    30   26   27 ar 
    31   27   28 1  
    32   27   29 ar 
    33   29   30 1  
    34   30   31 1  
    35   31   32 1  
    36   32   33 1  
    37    3   34 1  
    38    6   35 1  
    39    7   36 1  
    40    8   37 1  
    41    8   38 1  
    42    9   39 1  
    43    9   40 1  
    44   10   41 1  
    45   10   42 1  
    46   11   43 1  
    47   12   44 1  
    48   12   45 1  
    49   14   46 1  
    50   16   47 1  
    51   16   48 1  
    52   16   49 1  
    53   17   50 1  
    54   21   51 1  
    55   23   52 1  
    56   25   53 1  
    57   25   54 1  
    58   25   55 1  
    59   26   56 1  
    60   28   57 1  
    61   28   58 1  
    62   28   59 1  
    63   31   60 1  
    64   31   61 1  
    65   32   62 1  
    66   32   63 1  
    67   33   64 1  
@<TRIPOS>SUBSTRUCTURE
     1 X4G         1

