### 
### Created by X-TOOL on Mon Sep 10 21:13:24 2018
### 

@<TRIPOS>MOLECULE
4xg6_ligand
   52    55     1     0     0
SMALL
GAST_HUCK


@<TRIPOS>ATOM
      1 C4          4.6000   -2.7880    6.5410 C.ar      1 X6G         0.1814
      2 C5          5.7010   -2.3220    5.8210 C.ar      1 X6G         0.0120
      3 C6          5.4300   -1.4500    4.7550 C.ar      1 X6G         0.0082
      4 N1          4.1790   -1.1080    4.4170 N.ar      1 X6G        -0.2617
      5 N3          3.3910   -2.4130    6.1370 N.ar      1 X6G        -0.2199
      6 CAA        -1.3620   -2.4840    8.4000 C.3       1 X6G        -0.0352
      7 CAR        -0.9670   -1.7030    7.1370 C.ar      1 X6G        -0.0623
      8 CAH         0.3020   -1.9000    6.6060 C.ar      1 X6G        -0.0445
      9 CAG        -1.8400   -0.7880    6.5380 C.ar      1 X6G        -0.0711
     10 CAS        -1.4400   -0.0910    5.3950 C.ar      1 X6G        -0.0623
     11 CAB        -2.3750    0.9060    4.7080 C.3       1 X6G        -0.0352
     12 CAI        -0.1720   -0.2920    4.8690 C.ar      1 X6G        -0.0445
     13 CAT         0.7240   -1.1410    5.5120 C.ar      1 X6G         0.0517
     14 NAQ         1.8740   -1.3830    4.8760 N.pl3     1 X6G        -0.2462
     15 C2          3.1620   -1.5330    5.1820 C.ar      1 X6G         0.2028
     16 NBA         4.5830   -3.6610    7.5550 N.pl3     1 X6G        -0.1594
     17 CAJ         3.4680   -4.0350    8.2040 C.2       1 X6G         0.0684
     18 NAP         5.5650   -4.3020    7.9550 N.2       1 X6G        -0.2130
     19 CAU         5.1580   -5.1060    8.9240 C.2       1 X6G         0.0185
     20 CAC         6.0570   -6.0360    9.7130 C.3       1 X6G        -0.0271
     21 CAV         3.7960   -4.9370    9.1150 C.2       1 X6G         0.0211
     22 CAK         2.8230   -5.6810   10.0660 C.3       1 X6G        -0.0105
     23 NAZ         2.3010   -6.6840    9.1450 N.4       1 X6G         0.2461
     24 CAM         1.1050   -6.4640    8.3290 C.3       1 X6G         0.0007
     25 CAL         1.4640   -7.7160    9.8400 C.3       1 X6G         0.0007
     26 CAY         0.7920   -7.9310    8.4820 C.3       1 X6G         0.1343
     27 OAD        -0.6110   -8.0130    8.5870 O.3       1 X6G        -0.3815
     28 H1          6.7131   -2.6182    6.0720 H         1 X6G         0.0635
     29 H2          6.2580   -1.0406    4.1877 H         1 X6G         0.0868
     30 H3         -0.5328   -3.1423    8.6983 H         1 X6G         0.0388
     31 H4         -2.2552   -3.0911    8.1914 H         1 X6G         0.0388
     32 H5         -1.5807   -1.7777    9.2145 H         1 X6G         0.0388
     33 H6          0.9632   -2.6413    7.0400 H         1 X6G         0.0417
     34 H7         -2.8244   -0.6203    6.9598 H         1 X6G         0.0401
     35 H8         -1.8687    1.3408    3.8335 H         1 X6G         0.0388
     36 H9         -2.6398    1.7068    5.4141 H         1 X6G         0.0388
     37 H10        -3.2887    0.3873    4.3823 H         1 X6G         0.0388
     38 H11         0.1213    0.2130    3.9558 H         1 X6G         0.0417
     39 H12         1.7215   -1.4815    3.8621 H         1 X6G         0.2175
     40 H13         2.4639   -3.6594    8.0128 H         1 X6G         0.0895
     41 H14         5.4569   -6.5855   10.4532 H         1 X6G         0.0376
     42 H15         6.8291   -5.4479   10.2307 H         1 X6G         0.0376
     43 H16         6.5377   -6.7499    9.0280 H         1 X6G         0.0376
     44 H17         2.0301   -5.0177   10.4419 H         1 X6G         0.0902
     45 H18         3.3506   -6.1397   10.9153 H         1 X6G         0.0902
     46 H19         3.0758   -7.0461    8.6116 H         1 X6G         0.2043
     47 H20         1.3094   -6.1462    7.2959 H         1 X6G         0.0842
     48 H21         0.3624   -5.7894    8.7801 H         1 X6G         0.0842
     49 H22         0.8038   -7.3247   10.6280 H         1 X6G         0.0842
     50 H23         2.0207   -8.5830   10.2251 H         1 X6G         0.0842
     51 H24         1.2316   -8.6646    7.7902 H         1 X6G         0.0701
     52 H25        -0.9848   -8.1460    7.7238 H         1 X6G         0.2103
@<TRIPOS>BOND
     1    1    2 ar 
     2    5    1 ar 
     3    1   16 1  
     4    3    2 ar 
     5    4    3 ar 
     6   15    4 ar 
     7   15    5 ar 
     8    7    6 1  
     9    8    7 ar 
    10    7    9 ar 
    11   13    8 ar 
    12   10    9 ar 
    13   10   11 1  
    14   12   10 ar 
    15   13   12 ar 
    16   14   13 1  
    17   14   15 1  
    18   16   17 1  
    19   16   18 1  
    20   17   21 2  
    21   18   19 2  
    22   19   20 1  
    23   19   21 1  
    24   21   22 1  
    25   22   23 1  
    26   23   24 1  
    27   23   25 1  
    28   24   26 1  
    29   25   26 1  
    30   26   27 1  
    31    2   28 1  
    32    3   29 1  
    33    6   30 1  
    34    6   31 1  
    35    6   32 1  
    36    8   33 1  
    37    9   34 1  
    38   11   35 1  
    39   11   36 1  
    40   11   37 1  
    41   12   38 1  
    42   14   39 1  
    43   17   40 1  
    44   20   41 1  
    45   20   42 1  
    46   20   43 1  
    47   22   44 1  
    48   22   45 1  
    49   23   46 1  
    50   24   47 1  
    51   24   48 1  
    52   25   49 1  
    53   25   50 1  
    54   26   51 1  
    55   27   52 1  
@<TRIPOS>SUBSTRUCTURE
     1 X6G         1

