### 
### Created by X-TOOL on Mon Sep 10 21:13:25 2018
### 

@<TRIPOS>MOLECULE
4xg7_ligand
   52    56     1     0     0
SMALL
GAST_HUCK


@<TRIPOS>ATOM
      1 C4         15.1120   62.7780   13.8330 C.ar      1 X7G         0.1810
      2 C5         13.9680   62.9830   14.5540 C.ar      1 X7G         0.0116
      3 C6         14.0160   63.8590   15.6230 C.ar      1 X7G         0.0078
      4 N1         15.1260   64.4320   15.9310 N.ar      1 X7G        -0.2625
      5 N3         16.2060   63.4000   14.2310 N.ar      1 X7G        -0.2207
      6 CAB        23.4890   65.3980   14.2690 C.3       1 X7G         0.0541
      7 NBB        22.3750   64.6870   13.8980 N.pl3     1 X7G        -0.2072
      8 NAQ        22.3720   63.8360   13.0540 N.2       1 X7G        -0.2061
      9 CAH        21.1250   63.3810   12.9720 C.2       1 X7G         0.0175
     10 CAX        20.3580   64.0120   13.8210 C.ar      1 X7G        -0.0011
     11 CAI        19.0260   63.9450   14.1820 C.ar      1 X7G        -0.0431
     12 CAY        21.2130   64.8670   14.4180 C.ar      1 X7G         0.0813
     13 CAG        20.7740   65.7010   15.3870 C.ar      1 X7G        -0.0405
     14 CAF        19.4640   65.6460   15.7480 C.ar      1 X7G        -0.0437
     15 CAS        18.5510   64.7840   15.1720 C.ar      1 X7G         0.0546
     16 NAO        17.3050   64.8550   15.6310 N.pl3     1 X7G        -0.2491
     17 C2         16.2240   64.2070   15.2620 C.ar      1 X7G         0.2006
     18 NBC        15.1530   61.9010   12.8290 N.pl3     1 X7G        -0.1595
     19 CAJ        16.2510   61.4760   12.2590 C.2       1 X7G         0.0684
     20 NAN        14.1790   61.2920   12.4490 N.2       1 X7G        -0.2130
     21 CAT        14.5660   60.4630   11.5270 C.2       1 X7G         0.0185
     22 CAA        13.6730   59.5320   10.7410 C.3       1 X7G        -0.0271
     23 CAU        15.9180   60.5570   11.3940 C.2       1 X7G         0.0211
     24 CAK        16.8630   59.7700   10.4910 C.3       1 X7G        -0.0105
     25 NBA        17.3360   58.6050   11.2300 N.4       1 X7G         0.2461
     26 CAM        18.1360   58.9130   12.3790 C.3       1 X7G         0.0007
     27 CAL        18.4680   57.8850   10.6970 C.3       1 X7G         0.0007
     28 CAZ        18.8590   57.6200   12.1190 C.3       1 X7G         0.1343
     29 OAC        20.2310   57.7460   12.2970 O.3       1 X7G        -0.3815
     30 H1         13.0478   62.4722   14.2943 H         1 X7G         0.0632
     31 H2         13.1210   64.0623   16.1998 H         1 X7G         0.0867
     32 H3         23.2206   66.1136   15.0601 H         1 X7G         0.0576
     33 H4         23.8822   65.9440   13.3988 H         1 X7G         0.0576
     34 H5         24.2570   64.7063   14.6455 H         1 X7G         0.0576
     35 H6         20.7914   62.5959   12.2950 H         1 X7G         0.0703
     36 H7         18.3608   63.2419   13.6939 H         1 X7G         0.0478
     37 H8         21.4515   66.3986   15.8660 H         1 X7G         0.0544
     38 H9         19.1180   66.3137   16.5288 H         1 X7G         0.0528
     39 H10        17.1652   65.5262   16.3996 H         1 X7G         0.2149
     40 H11        17.2608   61.8258   12.4684 H         1 X7G         0.0895
     41 H12        14.2818   58.9517   10.0321 H         1 X7G         0.0376
     42 H13        12.9266   60.1204   10.1872 H         1 X7G         0.0376
     43 H14        13.1604   58.8459   11.4313 H         1 X7G         0.0376
     44 H15        17.7171   60.4016   10.2055 H         1 X7G         0.0902
     45 H16        16.3286   59.4450    9.5861 H         1 X7G         0.0902
     46 H17        16.5448   58.0126   11.4278 H         1 X7G         0.2043
     47 H18        17.5835   58.9494   13.3294 H         1 X7G         0.0842
     48 H19        18.7562   59.8161   12.2806 H         1 X7G         0.0842
     49 H20        19.1811   58.5006   10.1291 H         1 X7G         0.0842
     50 H21        18.2119   56.9882   10.1137 H         1 X7G         0.0842
     51 H22        18.4619   56.7121   12.5965 H         1 X7G         0.0701
     52 H23        20.4486   57.5728   13.2054 H         1 X7G         0.2103
@<TRIPOS>BOND
     1    1    2 ar 
     2    5    1 ar 
     3    1   18 1  
     4    3    2 ar 
     5    4    3 ar 
     6   17    4 ar 
     7   17    5 ar 
     8    7    6 1  
     9    7    8 1  
    10   12    7 1  
    11    9    8 2  
    12   10    9 1  
    13   11   10 ar 
    14   10   12 ar 
    15   15   11 ar 
    16   13   12 ar 
    17   14   13 ar 
    18   15   14 ar 
    19   16   15 1  
    20   16   17 1  
    21   18   19 1  
    22   18   20 1  
    23   19   23 2  
    24   20   21 2  
    25   21   22 1  
    26   21   23 1  
    27   23   24 1  
    28   24   25 1  
    29   25   26 1  
    30   25   27 1  
    31   26   28 1  
    32   27   28 1  
    33   28   29 1  
    34    2   30 1  
    35    3   31 1  
    36    6   32 1  
    37    6   33 1  
    38    6   34 1  
    39    9   35 1  
    40   11   36 1  
    41   13   37 1  
    42   14   38 1  
    43   16   39 1  
    44   19   40 1  
    45   22   41 1  
    46   22   42 1  
    47   22   43 1  
    48   24   44 1  
    49   24   45 1  
    50   25   46 1  
    51   26   47 1  
    52   26   48 1  
    53   27   49 1  
    54   27   50 1  
    55   28   51 1  
    56   29   52 1  
@<TRIPOS>SUBSTRUCTURE
     1 X7G         1

