### 
### Created by X-TOOL on Mon Sep 10 21:13:25 2018
### 

@<TRIPOS>MOLECULE
4xg8_ligand
   52    56     1     0     0
SMALL
GAST_HUCK


@<TRIPOS>ATOM
      1 C4         -4.8740   -6.2340    1.8550 C.ar      1 X8G         0.1810
      2 C5         -5.9340   -5.3380    1.8130 C.ar      1 X8G         0.0116
      3 C6         -5.7110   -4.1450    1.1330 C.ar      1 X8G         0.0078
      4 N1         -4.4840   -3.8150    0.5180 N.ar      1 X8G        -0.2624
      5 N3         -3.7290   -5.8300    1.2670 N.ar      1 X8G        -0.2207
      6 CAL        -1.4660  -10.4920    5.9420 C.3       1 X8G         0.0007
      7 CBA        -1.2140   -9.0690    6.5310 C.3       1 X8G         0.1343
      8 OAC         0.0930   -8.5540    6.2860 O.3       1 X8G        -0.3815
      9 CAM        -2.2110   -8.5130    5.5520 C.3       1 X8G         0.0007
     10 NBB        -2.0890   -9.7730    4.7740 N.4       1 X8G         0.2461
     11 CAK        -3.3030  -10.3270    4.1500 C.3       1 X8G        -0.0105
     12 CAU        -4.1890   -9.1750    3.6040 C.2       1 X8G         0.0211
     13 CAJ        -3.8080   -8.1780    2.8480 C.2       1 X8G         0.0684
     14 CAS        -5.4700   -8.9590    3.7800 C.2       1 X8G         0.0185
     15 CAA        -6.4460   -9.8470    4.5610 C.3       1 X8G        -0.0271
     16 NAP        -5.8080   -7.8490    3.1210 N.2       1 X8G        -0.2130
     17 NBD        -4.8800   -7.4000    2.5490 N.pl3     1 X8G        -0.1595
     18 C2         -3.4680   -4.6890    0.6020 C.ar      1 X8G         0.2006
     19 NAR        -2.2210   -4.4610    0.0590 N.pl3     1 X8G        -0.2491
     20 CAT        -1.2040   -5.3270    0.3280 C.ar      1 X8G         0.0546
     21 CAI         0.1580   -5.2310   -0.0300 C.ar      1 X8G        -0.0427
     22 CAY         1.0040   -6.2350    0.3470 C.ar      1 X8G         0.0131
     23 CAV         2.2780   -6.5420    0.2380 C.2       1 X8G         0.1184
     24 CL1         3.4490   -5.5970   -0.5410 Cl        1 X8G        -0.0628
     25 NAQ         2.5510   -7.7080    0.8390 N.2       1 X8G        -0.1910
     26 NBC         1.6050   -8.1350    1.2970 N.pl3     1 X8G        -0.2063
     27 CAB         1.3130   -9.4040    2.0890 C.3       1 X8G         0.0544
     28 CAZ         0.6180   -7.2940    1.0410 C.ar      1 X8G         0.0820
     29 CAH        -0.6150   -7.4110    1.3850 C.ar      1 X8G        -0.0404
     30 CAG        -1.4980   -6.4540    1.0340 C.ar      1 X8G        -0.0437
     31 H1         -6.8850   -5.5566    2.2851 H         1 X8G         0.0632
     32 H2         -6.5235   -3.4301    1.0721 H         1 X8G         0.0867
     33 H3         -2.1560  -11.1213    6.5233 H         1 X8G         0.0842
     34 H4         -0.5578  -11.0656    5.7051 H         1 X8G         0.0842
     35 H5         -1.4800   -8.9565    7.5924 H         1 X8G         0.0701
     36 H6          0.1692   -7.6897    6.6727 H         1 X8G         0.2103
     37 H7         -1.8712   -7.6135    5.0177 H         1 X8G         0.0842
     38 H8         -3.2111   -8.3334    5.9734 H         1 X8G         0.0842
     39 H9         -1.4218   -9.6686    4.0257 H         1 X8G         0.2043
     40 H10        -3.8697  -10.8992    4.8993 H         1 X8G         0.0902
     41 H11        -3.0166  -10.9911    3.3212 H         1 X8G         0.0902
     42 H12        -2.7882   -7.9994    2.5104 H         1 X8G         0.0895
     43 H13        -7.4516   -9.4022    4.5300 H         1 X8G         0.0376
     44 H14        -6.1127   -9.9272    5.6062 H         1 X8G         0.0376
     45 H15        -6.4740  -10.8486    4.1071 H         1 X8G         0.0376
     46 H16        -2.0597   -3.6425   -0.5451 H         1 X8G         0.2149
     47 H17         0.5245   -4.3794   -0.5917 H         1 X8G         0.0478
     48 H18         0.2446   -9.4363    2.3488 H         1 X8G         0.0577
     49 H19         1.9146   -9.4081    3.0099 H         1 X8G         0.0577
     50 H20         1.5689  -10.2835    1.4799 H         1 X8G         0.0577
     51 H21        -0.9430   -8.2736    1.9537 H         1 X8G         0.0544
     52 H22        -2.5287   -6.5935    1.3395 H         1 X8G         0.0528
@<TRIPOS>BOND
     1    1    2 ar 
     2    1    5 ar 
     3   17    1 1  
     4    2    3 ar 
     5    3    4 ar 
     6   18    4 ar 
     7    5   18 ar 
     8    6    7 1  
     9   10    6 1  
    10    7    8 1  
    11    9    7 1  
    12   10    9 1  
    13   11   10 1  
    14   12   11 1  
    15   13   12 2  
    16   12   14 1  
    17   13   17 1  
    18   14   15 1  
    19   14   16 2  
    20   16   17 1  
    21   18   19 1  
    22   19   20 1  
    23   20   21 ar 
    24   20   30 ar 
    25   21   22 ar 
    26   22   23 1  
    27   22   28 ar 
    28   23   24 1  
    29   23   25 2  
    30   25   26 1  
    31   26   27 1  
    32   26   28 1  
    33   28   29 ar 
    34   29   30 ar 
    35    2   31 1  
    36    3   32 1  
    37    6   33 1  
    38    6   34 1  
    39    7   35 1  
    40    8   36 1  
    41    9   37 1  
    42    9   38 1  
    43   10   39 1  
    44   11   40 1  
    45   11   41 1  
    46   13   42 1  
    47   15   43 1  
    48   15   44 1  
    49   15   45 1  
    50   19   46 1  
    51   21   47 1  
    52   27   48 1  
    53   27   49 1  
    54   27   50 1  
    55   29   51 1  
    56   30   52 1  
@<TRIPOS>SUBSTRUCTURE
     1 X8G         1

