### 
### Created by X-TOOL on Mon Sep 10 21:13:24 2018
### 

@<TRIPOS>MOLECULE
4xg9_ligand
   56    60     1     0     0
SMALL
GAST_HUCK


@<TRIPOS>ATOM
      1 C4          4.1180    6.4280    4.1420 C.ar      1 X9G         0.1810
      2 C5          5.2660    5.7010    3.8020 C.ar      1 X9G         0.0116
      3 C6          5.2220    4.8700    2.6910 C.ar      1 X9G         0.0078
      4 N1          4.0400    4.7660    1.9390 N.ar      1 X9G        -0.2625
      5 N3          3.0080    6.2600    3.3800 N.ar      1 X9G        -0.2207
      6 CAM         1.0720    8.1800    9.7520 C.3       1 X9G         0.0007
      7 CBB         0.2580    6.9410    9.3400 C.3       1 X9G         0.1343
      8 OAD        -1.1640    7.2420    9.2780 O.3       1 X9G        -0.3815
      9 CAN         0.8990    7.0210    7.9770 C.3       1 X9G         0.0007
     10 NBC         1.1560    8.4540    8.2860 N.4       1 X9G         0.2461
     11 CAL         2.3470    9.1850    7.7940 C.3       1 X9G        -0.0105
     12 CAV         3.3220    8.3980    6.8720 C.2       1 X9G         0.0211
     13 CAK         2.9730    7.7160    5.7880 C.2       1 X9G         0.0684
     14 CAS         4.6470    8.3260    6.9400 C.2       1 X9G         0.0185
     15 CAA         5.5720    8.9620    7.9860 C.3       1 X9G        -0.0271
     16 NAQ         5.0710    7.5780    5.9260 N.2       1 X9G        -0.2130
     17 NBE         4.0870    7.2200    5.2310 N.pl3     1 X9G        -0.1595
     18 C2          2.9380    5.4580    2.2910 C.ar      1 X9G         0.2005
     19 NAR         1.8380    5.3080    1.5180 N.pl3     1 X9G        -0.2511
     20 CAT         0.5870    5.7560    1.8270 C.ar      1 X9G         0.0445
     21 CAJ         0.1840    6.6230    2.8770 C.ar      1 X9G        -0.0582
     22 CAZ        -1.1050    6.9890    3.0370 C.ar      1 X9G        -0.0344
     23 CAW        -1.7250    7.7730    3.9240 C.2       1 X9G         0.0279
     24 CL1        -0.9820    8.6210    5.2280 Cl        1 X9G        -0.1203
     25 CAU        -3.0200    7.8080    3.6460 C.2       1 X9G         0.0535
     26 CAB        -4.0960    8.5830    4.4130 C.3       1 X9G        -0.0051
     27 NBD        -3.2450    7.0500    2.5840 N.pl3     1 X9G        -0.2656
     28 CAC        -4.5540    6.7890    1.9270 C.3       1 X9G         0.0400
     29 CBA        -2.0660    6.5450    2.2050 C.ar      1 X9G         0.0530
     30 CAI        -1.7490    5.7270    1.1980 C.ar      1 X9G        -0.0527
     31 CAH        -0.4310    5.3200    0.9800 C.ar      1 X9G        -0.0533
     32 H1          6.1700    5.7856    4.3942 H         1 X9G         0.0632
     33 H2          6.0992    4.3016    2.4038 H         1 X9G         0.0867
     34 H3          2.0325    7.9665   10.2438 H         1 X9G         0.0842
     35 H4          0.5191    8.9297   10.3371 H         1 X9G         0.0842
     36 H5          0.4530    6.0219    9.9120 H         1 X9G         0.0701
     37 H6         -1.6409    6.4613    9.0220 H         1 X9G         0.2103
     38 H7          0.2160    6.8446    7.1330 H         1 X9G         0.0842
     39 H8          1.8018    6.4050    7.8530 H         1 X9G         0.0842
     40 H9          0.3718    9.0092    7.9814 H         1 X9G         0.2043
     41 H10         2.9178    9.5206    8.6724 H         1 X9G         0.0902
     42 H11         1.9911   10.0607    7.2314 H         1 X9G         0.0902
     43 H12         1.9583    7.5826    5.4159 H         1 X9G         0.0895
     44 H13         6.6169    8.7087    7.7537 H         1 X9G         0.0376
     45 H14         5.3150    8.5784    8.9844 H         1 X9G         0.0376
     46 H15         5.4473   10.0548    7.9697 H         1 X9G         0.0376
     47 H16         1.9547    4.8145    0.6215 H         1 X9G         0.2147
     48 H17         0.9302    7.0001    3.5670 H         1 X9G         0.0399
     49 H18        -3.6309    9.1265    5.2486 H         1 X9G         0.0441
     50 H19        -4.8453    7.8795    4.8050 H         1 X9G         0.0441
     51 H20        -4.5844    9.2995    3.7362 H         1 X9G         0.0441
     52 H21        -5.3462    7.3382    2.4569 H         1 X9G         0.0560
     53 H22        -4.7714    5.7112    1.9580 H         1 X9G         0.0560
     54 H23        -4.5124    7.1247    0.8803 H         1 X9G         0.0560
     55 H24        -2.5307    5.3717    0.5364 H         1 X9G         0.0518
     56 H25        -0.1987    4.6630    0.1496 H         1 X9G         0.0451
@<TRIPOS>BOND
     1    1    2 ar 
     2    1    5 ar 
     3   17    1 1  
     4    2    3 ar 
     5    3    4 ar 
     6   18    4 ar 
     7    5   18 ar 
     8    6    7 1  
     9   10    6 1  
    10    7    8 1  
    11    9    7 1  
    12   10    9 1  
    13   11   10 1  
    14   12   11 1  
    15   13   12 2  
    16   12   14 1  
    17   13   17 1  
    18   14   15 1  
    19   14   16 2  
    20   16   17 1  
    21   18   19 1  
    22   19   20 1  
    23   20   21 ar 
    24   20   31 ar 
    25   21   22 ar 
    26   22   23 1  
    27   22   29 ar 
    28   23   24 1  
    29   23   25 2  
    30   25   26 1  
    31   25   27 1  
    32   27   28 1  
    33   27   29 1  
    34   29   30 ar 
    35   30   31 ar 
    36    2   32 1  
    37    3   33 1  
    38    6   34 1  
    39    6   35 1  
    40    7   36 1  
    41    8   37 1  
    42    9   38 1  
    43    9   39 1  
    44   10   40 1  
    45   11   41 1  
    46   11   42 1  
    47   13   43 1  
    48   15   44 1  
    49   15   45 1  
    50   15   46 1  
    51   19   47 1  
    52   21   48 1  
    53   26   49 1  
    54   26   50 1  
    55   26   51 1  
    56   28   52 1  
    57   28   53 1  
    58   28   54 1  
    59   30   55 1  
    60   31   56 1  
@<TRIPOS>SUBSTRUCTURE
     1 X9G         1

