### 
### Created by X-TOOL on Mon Sep 10 21:13:24 2018
### 

@<TRIPOS>MOLECULE
4xh6_ligand
   34    36     1     0     0
SMALL
GAST_HUCK


@<TRIPOS>ATOM
      1 C1         16.9430  -35.3710    1.9250 C.ar      1 HUL         0.1430
      2 C2         17.8330  -36.4150    2.2390 C.ar      1 HUL         0.1221
      3 C3         18.6450  -37.0140    1.2780 C.ar      1 HUL         0.0693
      4 C4         18.5390  -36.5580   -0.0380 C.ar      1 HUL         0.1192
      5 C5         17.6630  -35.5110   -0.3710 C.ar      1 HUL        -0.0097
      6 C6         16.8610  -34.9210    0.6130 C.ar      1 HUL         0.1076
      7 C7         15.7650  -35.6910    3.9690 C.3       1 HUL         0.0522
      8 C8         19.5080  -38.0630    1.6000 C.2       1 HUL         0.0939
      9 C9         20.2430  -38.6760    0.6240 C.2       1 HUL         0.0014
     10 C10        20.1360  -38.1880   -0.6640 C.2       1 HUL         0.1332
     11 C11        20.7460  -38.8260   -1.7180 C.ar      1 HUL         0.0205
     12 C12        21.7220  -39.8210   -1.4880 C.ar      1 HUL        -0.0520
     13 C13        22.2800  -40.4530   -2.5950 C.ar      1 HUL        -0.0265
     14 C14        21.8300  -40.1090   -3.8810 C.ar      1 HUL         0.0943
     15 C15        20.8410  -39.1560   -4.1310 C.ar      1 HUL        -0.0265
     16 O21        16.1450  -34.7850    2.8850 O.3       1 HUL        -0.3345
     17 O19        17.9270  -36.8820    3.5100 O.3       1 HUL        -0.3372
     18 O20        15.9860  -33.9010    0.3590 O.3       1 HUL        -0.3385
     19 O17        19.3110  -37.1470   -0.9990 O.3       1 HUL        -0.2492
     20 O18        19.6400  -38.5140    2.7320 O.2       1 HUL        -0.4281
     21 O22        22.3740  -40.7440   -4.9530 O.3       1 HUL        -0.3288
     22 C16        20.2910  -38.5170   -3.0220 C.ar      1 HUL        -0.0520
     23 H1         17.6080  -35.1585   -1.3946 H         1 HUL         0.0379
     24 H2         15.1327  -35.1538    4.6912 H         1 HUL         0.0564
     25 H3         16.6703  -36.0569    4.4755 H         1 HUL         0.0564
     26 H4         15.2062  -36.5435    3.5555 H         1 HUL         0.0564
     27 H5         20.8910  -39.5205    0.8540 H         1 HUL         0.0367
     28 H6         22.0265  -40.0838   -0.4814 H         1 HUL         0.0640
     29 H7         23.0530  -41.2021   -2.4668 H         1 HUL         0.0561
     30 H8         20.5168  -38.9245   -5.1391 H         1 HUL         0.0561
     31 H9         17.7001  -37.8043    3.5249 H         1 HUL         0.2460
     32 H10        15.5471  -33.6538    1.1645 H         1 HUL         0.2456
     33 H11        23.0294  -41.3633   -4.6538 H         1 HUL         0.2508
     34 H12        19.5095  -37.7783   -3.1587 H         1 HUL         0.0640
@<TRIPOS>BOND
     1    1    2 ar 
     2    1    6 ar 
     3    1   16 1  
     4    2    3 ar 
     5    2   17 1  
     6    3    4 ar 
     7    3    8 1  
     8    4    5 ar 
     9    4   19 1  
    10    5    6 ar 
    11    6   18 1  
    12   16    7 1  
    13    8    9 1  
    14    8   20 2  
    15    9   10 2  
    16   10   11 1  
    17   10   19 1  
    18   11   12 ar 
    19   11   22 ar 
    20   12   13 ar 
    21   13   14 ar 
    22   14   15 ar 
    23   14   21 1  
    24   15   22 ar 
    25    5   23 1  
    26    7   24 1  
    27    7   25 1  
    28    7   26 1  
    29    9   27 1  
    30   12   28 1  
    31   13   29 1  
    32   15   30 1  
    33   17   31 1  
    34   18   32 1  
    35   21   33 1  
    36   22   34 1  
@<TRIPOS>SUBSTRUCTURE
     1 HUL         1

