### 
### Created by X-TOOL on Mon Sep 10 21:13:23 2018
### 

@<TRIPOS>MOLECULE
4xhe_ligand
  111   118     1     0     0
SMALL
GAST_HUCK


@<TRIPOS>ATOM
      1 C13         1.7440   -3.0870   51.2470 C.2       1 40P        -0.0773
      2 C18        -3.0670    0.3370   52.4300 C.3       1 40P         0.0279
      3 C15        -0.3310   -1.8680   51.8480 C.3       1 40P         0.0972
      4 C17        -1.8000   -0.0870   51.7080 C.3       1 40P         0.1739
      5 O1          4.5010   -3.2290   51.6850 O.co2     1 40P        -0.5666
      6 O3          4.4420   -5.3740   51.3740 O.co2     1 40P        -0.5666
      7 C2          3.8720   -4.2740   51.4190 C.2       1 40P         0.0475
      8 C8          2.4270   -4.2420   51.1300 C.2       1 40P        -0.0266
      9 C9          1.7980   -5.5360   50.6950 C.3       1 40P        -0.0298
     10 C10         0.3420   -5.3710   50.2530 C.3       1 40P        -0.0484
     11 C27        -0.4340   -4.3480   51.0690 C.3       1 40P         0.0177
     12 C28        -0.4490   -4.8250   52.5440 C.3       1 40P        -0.0522
     13 C46        -1.7730   -4.5900   53.2980 C.3       1 40P        -0.0438
     14 C22        -1.5440   -4.4500   54.8120 C.3       1 40P        -0.0626
     15 C29        -2.7600   -5.7130   53.0580 C.3       1 40P        -0.0222
     16 C6         -4.1980   -5.2280   53.2530 C.3       1 40P        -0.0605
     17 C30        -2.5880   -6.3750   51.6970 C.3       1 40P         0.0464
     18 N31        -2.6460   -5.3180   50.6650 N.2       1 40P        -0.2721
     19 C32        -1.8120   -4.4070   50.3780 C.2       1 40P         0.0367
     20 C33        -2.1610   -3.4640   49.2340 C.3       1 40P         0.0089
     21 C34        -3.6420   -3.4120   48.8690 C.3       1 40P        -0.0257
     22 C35        -4.4500   -2.7740   49.9830 C.3       1 40P        -0.0155
     23 C36        -5.8760   -2.4130   49.6020 C.2       1 40P        -0.0708
     24 C38        -6.4550   -2.8970   48.5110 C.2       1 40P        -0.1289
     25 C37        -6.6500   -1.4880   50.5170 C.3       1 40P         0.0085
     26 C48        -6.7300   -1.9660   51.9830 C.3       1 40P         0.0736
     27 C49        -7.3890   -3.3260   52.1540 C.3       1 40P        -0.0215
     28 C50        -7.6340   -3.6550   53.6310 C.3       1 40P        -0.0167
     29 C51        -8.2360   -2.4660   54.3840 C.3       1 40P         0.1170
     30 O52        -8.2760   -2.7640   55.7800 O.3       1 40P        -0.3835
     31 C53        -9.6490   -2.1630   53.8600 C.3       1 40P        -0.0310
     32 O47        -7.3400   -0.9560   52.7760 O.3       1 40P        -0.3402
     33 C43        -7.3560   -1.2670   54.1790 C.3       1 40P         0.2021
     34 O44        -6.0020   -1.4890   54.6380 O.3       1 40P        -0.3145
     35 C42        -7.8770   -0.0090   54.8840 C.3       1 40P         0.0092
     36 C55        -6.6270    0.7210   55.3010 C.3       1 40P         0.0065
     37 C23        -5.4570   -0.2180   55.0490 C.3       1 40P         0.1739
     38 O48        -4.6240    0.2890   54.0100 O.3       1 40P        -0.3451
     39 C80        -4.7590   -0.3870   56.3660 C.3       1 40P         0.0016
     40 C60        -3.5200   -1.2410   56.0260 C.3       1 40P        -0.0458
     41 C81        -2.6880   -0.6750   54.8480 C.3       1 40P        -0.0261
     42 C21        -3.5280   -0.5460   53.5960 C.3       1 40P         0.0668
     43 O16        -1.6820   -1.5030   51.5070 O.3       1 40P        -0.3408
     44 O65        -0.6620    0.2900   52.4520 O.3       1 40P        -0.3400
     45 C61         0.3790   -0.5170   51.9140 C.3       1 40P         0.1157
     46 C62         0.7810    0.1030   50.5670 C.3       1 40P         0.0867
     47 O66         1.3540    1.3900   50.8080 O.3       1 40P        -0.3889
     48 C63        -0.4260    0.2630   49.6270 C.3       1 40P        -0.0104
     49 C67        -0.1730    1.2600   48.4920 C.3       1 40P        -0.0598
     50 C64        -1.6760    0.6650   50.3820 C.3       1 40P         0.0065
     51 C12         0.2580   -2.9600   50.9340 C.3       1 40P         0.0072
     52 H1          2.2801   -2.2002   51.5818 H         1 40P         0.0564
     53 H2         -3.8798    0.3607   51.6893 H         1 40P         0.0342
     54 H3         -2.9014    1.3501   52.8253 H         1 40P         0.0342
     55 H4         -0.3274   -2.2960   52.8613 H         1 40P         0.0645
     56 H5          1.8312   -6.2430   51.5370 H         1 40P         0.0380
     57 H6          2.3768   -5.9419   49.8523 H         1 40P         0.0380
     58 H7         -0.1617   -6.3443   50.3473 H         1 40P         0.0227
     59 H8          0.3329   -5.0538   49.1998 H         1 40P         0.0227
     60 H9          0.3481   -4.2911   53.0822 H         1 40P         0.0211
     61 H10        -0.2389   -5.9047   52.5544 H         1 40P         0.0211
     62 H11        -2.2132   -3.6539   52.9241 H         1 40P         0.0296
     63 H12        -2.5082   -4.2840   55.3148 H         1 40P         0.0232
     64 H13        -0.8781   -3.5959   55.0047 H         1 40P         0.0232
     65 H14        -1.0820   -5.3699   55.1996 H         1 40P         0.0232
     66 H15        -2.5648   -6.4831   53.8188 H         1 40P         0.0318
     67 H16        -4.8935   -6.0611   53.0732 H         1 40P         0.0233
     68 H17        -4.4098   -4.4141   52.5441 H         1 40P         0.0233
     69 H18        -4.3246   -4.8603   54.2820 H         1 40P         0.0233
     70 H19        -3.3955   -7.1033   51.5313 H         1 40P         0.0510
     71 H20        -1.6162   -6.8883   51.6515 H         1 40P         0.0510
     72 H21        -1.6014   -3.7862   48.3435 H         1 40P         0.0508
     73 H22        -1.8442   -2.4499   49.5191 H         1 40P         0.0508
     74 H23        -4.0076   -4.4355   48.6992 H         1 40P         0.0322
     75 H24        -3.7662   -2.8210   47.9496 H         1 40P         0.0322
     76 H25        -3.9352   -1.8540   50.2969 H         1 40P         0.0462
     77 H26        -4.4881   -3.4789   50.8265 H         1 40P         0.0462
     78 H27        -7.4790   -2.6170   48.2682 H         1 40P         0.0075
     79 H28        -5.9063   -3.5743   47.8582 H         1 40P         0.0075
     80 H29        -7.6748   -1.3967   50.1280 H         1 40P         0.0485
     81 H30        -6.1629   -0.5018   50.5022 H         1 40P         0.0485
     82 H31        -5.6956   -2.0780   52.3399 H         1 40P         0.0624
     83 H32        -6.7342   -4.0965   51.7210 H         1 40P         0.0293
     84 H33        -8.3531   -3.3242   51.6245 H         1 40P         0.0293
     85 H34        -6.6763   -3.9256   54.0995 H         1 40P         0.0295
     86 H35        -8.3276   -4.5063   53.6962 H         1 40P         0.0295
     87 H36        -7.3940   -2.9265   56.0934 H         1 40P         0.2104
     88 H37       -10.0683   -1.3074   54.4097 H         1 40P         0.0259
     89 H38       -10.2914   -3.0437   54.0072 H         1 40P         0.0259
     90 H39        -9.5985   -1.9209   52.7882 H         1 40P         0.0259
     91 H40        -8.4846   -0.2760   55.7612 H         1 40P         0.0320
     92 H41        -8.4766    0.6047   54.1957 H         1 40P         0.0320
     93 H42        -6.6797    0.9804   56.3687 H         1 40P         0.0319
     94 H43        -6.5094    1.6387   54.7060 H         1 40P         0.0319
     95 H44        -5.4062   -0.9072   57.0874 H         1 40P         0.0317
     96 H45        -4.4603    0.5882   56.7780 H         1 40P         0.0317
     97 H46        -3.8567   -2.2539   55.7602 H         1 40P         0.0268
     98 H47        -2.8755   -1.2906   56.9161 H         1 40P         0.0268
     99 H48        -1.8451   -1.3523   54.6461 H         1 40P         0.0290
    100 H49        -2.3027    0.3173   55.1252 H         1 40P         0.0290
    101 H50        -3.8191   -1.5456   53.2410 H         1 40P         0.0599
    102 H51         1.2593   -0.5698   52.5714 H         1 40P         0.0651
    103 H52         1.5255   -0.5463   50.0832 H         1 40P         0.0623
    104 H53         2.1200    1.2957   51.3619 H         1 40P         0.2099
    105 H54        -0.6116   -0.7199   49.1693 H         1 40P         0.0325
    106 H55        -1.0693    1.3291   47.8581 H         1 40P         0.0233
    107 H56         0.6789    0.9176   47.8862 H         1 40P         0.0233
    108 H57         0.0530    2.2493   48.9165 H         1 40P         0.0233
    109 H58        -1.6374    1.7451   50.5865 H         1 40P         0.0320
    110 H59        -2.5557    0.4406   49.7609 H         1 40P         0.0320
    111 H60         0.1413   -2.6297   49.8913 H         1 40P         0.0420
@<TRIPOS>BOND
     1    8    1 2  
     2    1   51 1  
     3    4    2 1  
     4    2   42 1  
     5    3   43 1  
     6    3   45 1  
     7   51    3 1  
     8   43    4 1  
     9    4   44 1  
    10    4   50 1  
    11    7    5 ar 
    12    7    6 ar 
    13    7    8 1  
    14    8    9 1  
    15    9   10 1  
    16   10   11 1  
    17   11   12 1  
    18   11   19 1  
    19   11   51 1  
    20   12   13 1  
    21   13   14 1  
    22   13   15 1  
    23   15   16 1  
    24   15   17 1  
    25   17   18 1  
    26   18   19 2  
    27   19   20 1  
    28   20   21 1  
    29   21   22 1  
    30   22   23 1  
    31   23   24 2  
    32   23   25 1  
    33   25   26 1  
    34   26   27 1  
    35   26   32 1  
    36   27   28 1  
    37   28   29 1  
    38   29   30 1  
    39   29   31 1  
    40   29   33 1  
    41   32   33 1  
    42   33   34 1  
    43   33   35 1  
    44   34   37 1  
    45   35   36 1  
    46   36   37 1  
    47   37   38 1  
    48   37   39 1  
    49   38   42 1  
    50   39   40 1  
    51   40   41 1  
    52   41   42 1  
    53   44   45 1  
    54   45   46 1  
    55   46   47 1  
    56   46   48 1  
    57   48   49 1  
    58   48   50 1  
    59    1   52 1  
    60    2   53 1  
    61    2   54 1  
    62    3   55 1  
    63    9   56 1  
    64    9   57 1  
    65   10   58 1  
    66   10   59 1  
    67   12   60 1  
    68   12   61 1  
    69   13   62 1  
    70   14   63 1  
    71   14   64 1  
    72   14   65 1  
    73   15   66 1  
    74   16   67 1  
    75   16   68 1  
    76   16   69 1  
    77   17   70 1  
    78   17   71 1  
    79   20   72 1  
    80   20   73 1  
    81   21   74 1  
    82   21   75 1  
    83   22   76 1  
    84   22   77 1  
    85   24   78 1  
    86   24   79 1  
    87   25   80 1  
    88   25   81 1  
    89   26   82 1  
    90   27   83 1  
    91   27   84 1  
    92   28   85 1  
    93   28   86 1  
    94   30   87 1  
    95   31   88 1  
    96   31   89 1  
    97   31   90 1  
    98   35   91 1  
    99   35   92 1  
   100   36   93 1  
   101   36   94 1  
   102   39   95 1  
   103   39   96 1  
   104   40   97 1  
   105   40   98 1  
   106   41   99 1  
   107   41  100 1  
   108   42  101 1  
   109   45  102 1  
   110   46  103 1  
   111   47  104 1  
   112   48  105 1  
   113   49  106 1  
   114   49  107 1  
   115   49  108 1  
   116   50  109 1  
   117   50  110 1  
   118   51  111 1  
@<TRIPOS>SUBSTRUCTURE
     1 40P         1

