### 
### Created by X-TOOL on Mon Sep 10 21:13:21 2018
### 

@<TRIPOS>MOLECULE
4xhk_ligand
   45    48     1     0     0
SMALL
GAST_HUCK


@<TRIPOS>ATOM
      1 O2        -18.3580   36.4720    3.6980 O.2       1 3YR        -0.3807
      2 C9        -19.8250   37.7760    2.1880 C.2       1 3YR         0.1012
      3 C8        -20.6500   38.4350    2.9940 C.2       1 3YR         0.0373
      4 C10       -18.7380   36.8520    2.5770 C.2       1 3YR         0.2288
      5 C11       -17.5610   34.9830    1.3800 C.ar      1 3YR         0.1239
      6 C12       -16.8990   34.2740    2.4010 C.ar      1 3YR         0.0200
      7 C7        -21.0180   38.8250    0.5630 C.2       1 3YR         0.1157
      8 C3        -21.9560   39.9810   -3.3640 C.ar      1 3YR        -0.0619
      9 C2        -22.7770   40.3410   -2.3140 C.ar      1 3YR        -0.0271
     10 C4        -20.8650   39.2500   -3.1520 C.ar      1 3YR        -0.0271
     11 C5        -20.5830   38.9490   -1.8290 C.ar      1 3YR         0.1487
     12 C6        -21.3490   39.2460   -0.7610 C.ar      1 3YR         0.0896
     13 O1        -17.8550   35.1410   -0.9090 O.3       1 3YR        -0.3051
     14 C1        -22.4690   39.9720   -1.0340 C.ar      1 3YR         0.1487
     15 S         -21.5890   39.4270    2.0670 S.3       1 3YR         0.0041
     16 N4        -20.0500   37.9800    0.8750 N.2       1 3YR        -0.2971
     17 F2        -19.4390   38.3430   -1.6540 F         1 3YR        -0.1787
     18 F1        -23.2930   40.2150   -0.0260 F         1 3YR        -0.1787
     19 N1        -18.4270   36.1100    1.4900 N.am      1 3YR        -0.2311
     20 C15       -17.2640   34.5080    0.1450 C.ar      1 3YR         0.1340
     21 C14       -16.3660   33.4440   -0.1110 C.ar      1 3YR        -0.0185
     22 C13       -15.7870   32.7850    1.0040 C.ar      1 3YR        -0.0164
     23 N2        -16.0660   33.2580    2.2080 N.ar      1 3YR        -0.3295
     24 C16       -18.0430   34.4330   -2.1620 C.3       1 3YR         0.1255
     25 C19       -16.9220   34.7620   -3.1130 C.3       1 3YR        -0.0021
     26 N3        -17.6200   35.6030   -4.0820 N.4       1 3YR         0.2292
     27 C18       -18.8660   36.1270   -3.6210 C.3       1 3YR        -0.0306
     28 C17       -19.3200   34.9280   -2.8360 C.3       1 3YR         0.0231
     29 H1        -20.6985   38.3378    4.0776 H         1 3YR         0.0876
     30 H2        -17.0838   34.5815    3.4239 H         1 3YR         0.0658
     31 H3        -22.2029   40.2971   -4.3711 H         1 3YR         0.0626
     32 H4        -23.6727   40.9207   -2.5059 H         1 3YR         0.0579
     33 H5        -20.2343   38.9101   -3.9655 H         1 3YR         0.0579
     34 H6        -18.8691   36.3933    0.6390 H         1 3YR         0.2240
     35 H7        -16.1287   33.1429   -1.1250 H         1 3YR         0.0583
     36 H8        -15.1396   31.9253    0.8744 H         1 3YR         0.0659
     37 H9        -18.0921   33.3495   -1.9785 H         1 3YR         0.0706
     38 H10       -16.5126   33.8564   -3.5844 H         1 3YR         0.0843
     39 H11       -16.1127   35.3113   -2.6097 H         1 3YR         0.0843
     40 H12       -17.7961   35.0525   -4.9078 H         1 3YR         0.2014
     41 H13       -17.0198   36.3781   -4.3165 H         1 3YR         0.2014
     42 H14       -19.5495   36.3659   -4.4491 H         1 3YR         0.0815
     43 H15       -18.7349   37.0155   -2.9858 H         1 3YR         0.0815
     44 H16       -20.0742   35.2119   -2.0873 H         1 3YR         0.0348
     45 H17       -19.7362   34.1577   -3.5019 H         1 3YR         0.0348
@<TRIPOS>BOND
     1    4    1 2  
     2    2    3 2  
     3    2    4 1  
     4   16    2 1  
     5   15    3 1  
     6    4   19 am 
     7    5    6 ar 
     8   19    5 1  
     9    5   20 ar 
    10    6   23 ar 
    11   12    7 1  
    12    7   15 1  
    13    7   16 2  
    14    8    9 ar 
    15   10    8 ar 
    16    9   14 ar 
    17   11   10 ar 
    18   11   12 ar 
    19   11   17 1  
    20   12   14 ar 
    21   20   13 1  
    22   13   24 1  
    23   14   18 1  
    24   20   21 ar 
    25   21   22 ar 
    26   22   23 ar 
    27   24   25 1  
    28   24   28 1  
    29   25   26 1  
    30   26   27 1  
    31   27   28 1  
    32    3   29 1  
    33    6   30 1  
    34    8   31 1  
    35    9   32 1  
    36   10   33 1  
    37   19   34 1  
    38   21   35 1  
    39   22   36 1  
    40   24   37 1  
    41   25   38 1  
    42   25   39 1  
    43   26   40 1  
    44   26   41 1  
    45   27   42 1  
    46   27   43 1  
    47   28   44 1  
    48   28   45 1  
@<TRIPOS>SUBSTRUCTURE
     1 3YR         1

