### 
### Created by X-TOOL on Mon Sep 10 21:13:30 2018
### 

@<TRIPOS>MOLECULE
4xhl_ligand
   31    32     1     0     0
SMALL
GAST_HUCK


@<TRIPOS>ATOM
      1 C1         27.6600   37.2820    3.9890 C.ar      1 CKI         0.0217
      2 N2         27.6930   37.0160    5.3320 N.ar      1 CKI        -0.2974
      3 C3         27.4270   35.7390    5.7730 C.ar      1 CKI         0.0076
      4 C4         27.1300   34.7240    4.8650 C.ar      1 CKI        -0.0310
      5 C5         26.8000   33.9890    2.5770 C.ar      1 CKI         0.0562
      6 CL5        26.4470   32.3330    2.9930 Cl        1 CKI        -0.0664
      7 C6         26.7690   34.2660    1.2160 C.ar      1 CKI        -0.0397
      8 C7         27.0360   35.5580    0.7770 C.ar      1 CKI        -0.0281
      9 C8         27.3310   36.5560    1.6920 C.ar      1 CKI         0.1246
     10 C9         27.3610   36.2680    3.0670 C.ar      1 CKI         0.0361
     11 C10        27.1010   35.0110    3.5070 C.ar      1 CKI         0.0133
     12 S          27.6220   38.0470    0.7820 S.o2      1 CKI         0.0712
     13 O1S        26.8080   38.1070   -0.4060 O.2       1 CKI        -0.1498
     14 O2S        27.1730   39.2070    1.5070 O.2       1 CKI        -0.1498
     15 N1'        29.2230   38.1430    0.4020 N.am      1 CKI        -0.2420
     16 C1'        29.8830   39.3930    0.5270 C.3       1 CKI         0.0665
     17 C2'        31.0240   39.4430   -0.4580 C.3       1 CKI        -0.0182
     18 N2'        32.1920   39.9510    0.1880 N.4       1 CKI         0.2197
     19 H1         27.8669   38.2855    3.6352 H         1 CKI         0.0870
     20 H2         27.4487   35.5213    6.8347 H         1 CKI         0.0776
     21 H3         26.9235   33.7194    5.2161 H         1 CKI         0.0714
     22 H4         26.5389   33.4824    0.5032 H         1 CKI         0.0661
     23 H5         27.0134   35.7849   -0.2827 H         1 CKI         0.0664
     24 H6         29.7207   37.3342    0.0887 H         1 CKI         0.1675
     25 H7         30.2728   39.5043    1.5496 H         1 CKI         0.0528
     26 H8         29.1751   40.2074    0.3137 H         1 CKI         0.0528
     27 H9         30.7545   40.1008   -1.2975 H         1 CKI         0.0829
     28 H10        31.2260   38.4300   -0.8361 H         1 CKI         0.0829
     29 H11        32.9534   39.9837   -0.4717 H         1 CKI         0.1995
     30 H12        32.4395   39.3484    0.9572 H         1 CKI         0.1995
     31 H13        32.0075   40.8794    0.5344 H         1 CKI         0.1995
@<TRIPOS>BOND
     1    2    1 ar 
     2    1   10 ar 
     3    3    2 ar 
     4    4    3 ar 
     5   11    4 ar 
     6    5    6 1  
     7    5    7 ar 
     8    5   11 ar 
     9    7    8 ar 
    10    8    9 ar 
    11    9   10 ar 
    12    9   12 1  
    13   10   11 ar 
    14   12   13 2  
    15   12   14 2  
    16   12   15 am 
    17   15   16 1  
    18   16   17 1  
    19   17   18 1  
    20    1   19 1  
    21    3   20 1  
    22    4   21 1  
    23    7   22 1  
    24    8   23 1  
    25   15   24 1  
    26   16   25 1  
    27   16   26 1  
    28   17   27 1  
    29   17   28 1  
    30   18   29 1  
    31   18   30 1  
    32   18   31 1  
@<TRIPOS>SUBSTRUCTURE
     1 CKI         1

