### 
### Created by X-TOOL on Mon Sep 10 21:13:24 2018
### 

@<TRIPOS>MOLECULE
4xii_ligand
   80    84     1     0     0
SMALL
GAST_HUCK


@<TRIPOS>ATOM
      1 C10         2.1930  -10.2680  -14.3410 C.3       1 40V         0.0900
      2 C13         1.5760  -10.9280  -16.8540 C.ar      1 40V         0.0635
      3 C15         1.6870   -9.8680  -15.7780 C.3       1 40V         0.1216
      4 C17         7.6270  -13.1720  -11.4630 C.3       1 40V        -0.0066
      5 C20         6.5260   -9.7520  -14.9020 C.3       1 40V        -0.0387
      6 C21         7.3020  -11.7290  -13.7380 C.3       1 40V        -0.0316
      7 C22         5.5480  -10.4720  -12.7780 C.3       1 40V        -0.0269
      8 C24         6.3680  -12.3040  -11.9010 C.3       1 40V        -0.0203
      9 C26         4.5250   -8.6070  -14.2300 C.3       1 40V         0.0416
     10 C28         3.1440   -6.0090  -12.8410 C.3       1 40V         0.0676
     11 C01         6.8840  -15.8620   -8.4540 C.3       1 40V        -0.0528
     12 C02         5.6770  -15.1120   -7.8670 C.3       1 40V        -0.0528
     13 C03         1.3390  -12.9190  -18.9960 C.ar      1 40V        -0.0481
     14 C04         1.8370  -13.3460  -17.6410 C.ar      1 40V        -0.0446
     15 C05         7.6140  -15.2810   -9.6680 C.3       1 40V        -0.0498
     16 C06         5.1940  -13.7890   -8.5020 C.3       1 40V        -0.0498
     17 C07         2.5820  -11.6890  -14.0290 C.3       1 40V         0.0168
     18 C08         0.9520  -11.4710  -19.2770 C.ar      1 40V        -0.0046
     19 C09         1.9540  -12.3550  -16.5580 C.ar      1 40V         0.0272
     20 C11         7.1250  -13.9540  -10.2990 C.3       1 40V        -0.0329
     21 C12         5.9280  -13.2230   -9.7150 C.3       1 40V        -0.0329
     22 C14         2.4810  -12.7640  -15.0980 C.3       1 40V         0.2167
     23 C16         2.3030   -9.1560  -13.2330 C.2       1 40V         0.1865
     24 C18         5.6890  -11.9850  -10.5110 C.3       1 40V        -0.0066
     25 C19         7.6630  -10.5570  -14.6390 C.3       1 40V        -0.0120
     26 C23         5.8420   -9.3130  -13.7220 C.3       1 40V         0.0197
     27 C25         1.3400   -5.3490  -14.2570 C.3       1 40V         0.0365
     28 C27         3.6750   -7.2520  -12.2190 C.3       1 40V         0.0572
     29 N29         1.0750  -10.4870  -18.2100 N.ar      1 40V        -0.3029
     30 N30         6.6910  -11.3000  -12.5210 N.4       1 40V         0.2376
     31 N31         3.5400   -8.3430  -13.2380 N.am      1 40V        -0.2701
     32 N32         2.8740  -14.0830  -14.6920 N.2       1 40V         0.3057
     33 O33         3.1230  -14.3170  -13.3600 O.2       1 40V         0.1887
     34 O34         1.4050   -8.9520  -12.4170 O.2       1 40V        -0.3963
     35 O35         2.9960  -14.9830  -15.4710 O.2       1 40V         0.1887
     36 O36         1.3180   -8.5240  -16.0780 O.3       1 40V        -0.3753
     37 O37         1.8130   -6.2590  -13.3070 O.3       1 40V        -0.3810
     38 H1          1.1594  -10.4831  -14.0320 H         1 40V         0.0590
     39 H2          2.7216   -9.6545  -16.0845 H         1 40V         0.0801
     40 H3          8.4668  -12.5253  -11.1689 H         1 40V         0.0323
     41 H4          7.9459  -13.8399  -12.2767 H         1 40V         0.0323
     42 H5          5.8222  -10.3354  -15.5138 H         1 40V         0.0272
     43 H6          6.8521   -8.8645  -15.4641 H         1 40V         0.0272
     44 H7          8.2186  -12.2875  -13.4974 H         1 40V         0.0814
     45 H8          6.6020  -12.3866  -14.2741 H         1 40V         0.0814
     46 H9          4.7594  -11.0950  -13.2253 H         1 40V         0.0818
     47 H10         5.1925  -10.0614  -11.8214 H         1 40V         0.0818
     48 H11         5.6896  -12.8977  -12.5313 H         1 40V         0.0851
     49 H12         4.0690   -9.2537  -14.9941 H         1 40V         0.0527
     50 H13         4.8109   -7.6472  -14.6850 H         1 40V         0.0527
     51 H14         3.7832   -5.7166  -13.6871 H         1 40V         0.0580
     52 H15         3.1291   -5.1999  -12.0960 H         1 40V         0.0580
     53 H16         6.5298  -16.8627   -8.7423 H         1 40V         0.0265
     54 H17         7.6267  -15.9540   -7.6478 H         1 40V         0.0265
     55 H18         5.9244  -14.8871   -6.8190 H         1 40V         0.0265
     56 H19         4.8258  -15.8078   -7.9017 H         1 40V         0.0265
     57 H20         1.2539  -13.6551  -19.7872 H         1 40V         0.0633
     58 H21         2.1087  -14.3802  -17.4630 H         1 40V         0.0655
     59 H22         7.5727  -16.0439  -10.4594 H         1 40V         0.0268
     60 H23         8.6596  -15.1230   -9.3651 H         1 40V         0.0268
     61 H24         5.2386  -13.0218   -7.7150 H         1 40V         0.0268
     62 H25         4.1478  -13.9432   -8.8049 H         1 40V         0.0268
     63 H26         1.9461  -12.0144  -13.1925 H         1 40V         0.0344
     64 H27         3.6324  -11.6649  -13.7033 H         1 40V         0.0344
     65 H28         0.5907  -11.1783  -20.2562 H         1 40V         0.0741
     66 H29         6.4934  -14.5541  -10.9705 H         1 40V         0.0305
     67 H30         5.2202  -13.7741  -10.3516 H         1 40V         0.0305
     68 H31         3.5103  -12.5635  -15.4303 H         1 40V         0.0857
     69 H32         4.6119  -11.7979  -10.6332 H         1 40V         0.0323
     70 H33         6.1608  -11.1135  -10.0337 H         1 40V         0.0323
     71 H34         8.4308   -9.9449  -14.1433 H         1 40V         0.0317
     72 H35         8.0591  -10.9426  -15.5900 H         1 40V         0.0317
     73 H36         6.4652   -8.5820  -13.1861 H         1 40V         0.0372
     74 H37         0.3162   -5.6242  -14.5504 H         1 40V         0.0523
     75 H38         1.9931   -5.3700  -15.1419 H         1 40V         0.0523
     76 H39         1.3384   -4.3368  -13.8263 H         1 40V         0.0523
     77 H40         3.0945   -7.5019  -11.3187 H         1 40V         0.0545
     78 H41         4.7324   -7.1170  -11.9478 H         1 40V         0.0545
     79 H42         7.3578  -10.7716  -11.9804 H         1 40V         0.2036
     80 H43         1.8612   -8.1982  -16.7860 H         1 40V         0.2134
@<TRIPOS>BOND
     1    1    3 1  
     2    1   17 1  
     3   23    1 1  
     4    3    2 1  
     5    2   19 ar 
     6    2   29 ar 
     7    3   36 1  
     8    8    4 1  
     9    4   20 1  
    10    5   25 1  
    11   26    5 1  
    12   25    6 1  
    13   30    6 1  
    14   26    7 1  
    15    7   30 1  
    16    8   24 1  
    17   30    8 1  
    18    9   26 1  
    19   31    9 1  
    20   28   10 1  
    21   10   37 1  
    22   12   11 1  
    23   15   11 1  
    24   16   12 1  
    25   14   13 ar 
    26   18   13 ar 
    27   19   14 ar 
    28   20   15 1  
    29   21   16 1  
    30   17   22 1  
    31   29   18 ar 
    32   22   19 1  
    33   21   20 1  
    34   24   21 1  
    35   22   32 1  
    36   31   23 am 
    37   23   34 2  
    38   37   27 1  
    39   28   31 1  
    40   32   33 2  
    41   32   35 2  
    42    1   38 1  
    43    3   39 1  
    44    4   40 1  
    45    4   41 1  
    46    5   42 1  
    47    5   43 1  
    48    6   44 1  
    49    6   45 1  
    50    7   46 1  
    51    7   47 1  
    52    8   48 1  
    53    9   49 1  
    54    9   50 1  
    55   10   51 1  
    56   10   52 1  
    57   11   53 1  
    58   11   54 1  
    59   12   55 1  
    60   12   56 1  
    61   13   57 1  
    62   14   58 1  
    63   15   59 1  
    64   15   60 1  
    65   16   61 1  
    66   16   62 1  
    67   17   63 1  
    68   17   64 1  
    69   18   65 1  
    70   20   66 1  
    71   21   67 1  
    72   22   68 1  
    73   24   69 1  
    74   24   70 1  
    75   25   71 1  
    76   25   72 1  
    77   26   73 1  
    78   27   74 1  
    79   27   75 1  
    80   27   76 1  
    81   28   77 1  
    82   28   78 1  
    83   30   79 1  
    84   36   80 1  
@<TRIPOS>SUBSTRUCTURE
     1 40V         1

