### 
### Created by X-TOOL on Mon Sep 10 21:13:24 2018
### 

@<TRIPOS>MOLECULE
4xip_ligand
   42    44     1     0     0
SMALL
GAST_HUCK


@<TRIPOS>ATOM
      1 N1         -1.6190  -10.6030  -26.2250 N.am      1 40W        -0.3012
      2 C4          6.5070  -11.9690  -24.0840 C.2       1 40W         0.0182
      3 C5          7.5940  -12.9300  -24.3300 C.2       1 40W         0.0985
      4 C6          7.2210  -14.3390  -24.7380 C.3       1 40W         0.0216
      5 C7          5.9390  -14.4600  -25.5800 C.3       1 40W        -0.0077
      6 C8          4.8090  -13.7260  -24.8500 C.3       1 40W         0.0158
      7 C10         6.1620  -13.8500  -26.9680 C.3       1 40W        -0.0557
      8 C13         1.0350  -10.1620  -25.2280 C.ar      1 40W        -0.0464
      9 C15         0.7500  -12.2470  -24.0470 C.ar      1 40W        -0.0464
     10 C17        -1.2620  -11.1680  -25.1030 C.2       1 40W         0.1969
     11 O1         -2.0830  -11.7030  -24.3180 O.2       1 40W        -0.3884
     12 C14         0.1960  -11.1910  -24.7790 C.ar      1 40W         0.0420
     13 C12         2.3960  -10.1930  -24.9700 C.ar      1 40W        -0.0220
     14 C16         2.1080  -12.2800  -23.7770 C.ar      1 40W        -0.0220
     15 C11         2.9420  -11.2580  -24.2510 C.ar      1 40W         0.0968
     16 N           4.3630  -11.3160  -24.0220 N.pl3     1 40W        -0.2331
     17 C2          5.1450  -10.2480  -23.6190 C.2       1 40W         0.0228
     18 C3          5.2070  -12.3810  -24.3160 C.2       1 40W         0.0745
     19 C9          5.5580  -15.9280  -25.7510 C.3       1 40W        -0.0557
     20 O           8.7710  -12.5920  -24.2680 O.2       1 40W        -0.4025
     21 C1          6.4570  -10.6010  -23.6410 C.2       1 40W        -0.0601
     22 C           7.6050   -9.6950  -23.2800 C.3       1 40W        -0.0504
     23 H1         -0.9285  -10.1894  -26.8184 H         1 40W         0.1806
     24 H2         -2.5829  -10.5839  -26.4907 H         1 40W         0.1806
     25 H3          7.0841  -14.9333  -23.8226 H         1 40W         0.0483
     26 H4          8.0535  -14.7551  -25.3243 H         1 40W         0.0483
     27 H5          4.4780  -14.3499  -24.0067 H         1 40W         0.0473
     28 H6          3.9745  -13.5870  -25.5531 H         1 40W         0.0473
     29 H7          6.9750  -14.3872  -27.4783 H         1 40W         0.0238
     30 H8          6.4328  -12.7891  -26.8631 H         1 40W         0.0238
     31 H9          5.2383  -13.9359  -27.5590 H         1 40W         0.0238
     32 H10         0.6141   -9.3319  -25.7838 H         1 40W         0.0651
     33 H11         0.1110  -13.0458  -23.6883 H         1 40W         0.0651
     34 H12         3.0350   -9.3927  -25.3254 H         1 40W         0.0594
     35 H13         2.5260  -13.0963  -23.1990 H         1 40W         0.0594
     36 H14         4.7654   -9.2698  -23.3275 H         1 40W         0.0628
     37 H15         5.3941  -16.3818  -24.7625 H         1 40W         0.0238
     38 H16         6.3701  -16.4598  -26.2684 H         1 40W         0.0238
     39 H17         4.6352  -16.0005  -26.3453 H         1 40W         0.0238
     40 H18         8.5526  -10.2432  -23.3877 H         1 40W         0.0324
     41 H19         7.4927   -9.3579  -22.2390 H         1 40W         0.0324
     42 H20         7.6081   -8.8224  -23.9497 H         1 40W         0.0324
@<TRIPOS>BOND
     1   10    1 am 
     2    2    3 1  
     3   18    2 2  
     4    2   21 1  
     5    3    4 1  
     6    3   20 2  
     7    5    4 1  
     8    6    5 1  
     9    5    7 1  
    10    5   19 1  
    11   18    6 1  
    12    8   12 ar 
    13   13    8 ar 
    14    9   12 ar 
    15   14    9 ar 
    16   10   11 2  
    17   12   10 1  
    18   15   13 ar 
    19   15   14 ar 
    20   16   15 1  
    21   16   17 1  
    22   16   18 1  
    23   17   21 2  
    24   21   22 1  
    25    1   23 1  
    26    1   24 1  
    27    4   25 1  
    28    4   26 1  
    29    6   27 1  
    30    6   28 1  
    31    7   29 1  
    32    7   30 1  
    33    7   31 1  
    34    8   32 1  
    35    9   33 1  
    36   13   34 1  
    37   14   35 1  
    38   17   36 1  
    39   19   37 1  
    40   19   38 1  
    41   19   39 1  
    42   22   40 1  
    43   22   41 1  
    44   22   42 1  
@<TRIPOS>SUBSTRUCTURE
     1 40W         1

