### 
### Created by X-TOOL on Mon Sep 10 21:13:24 2018
### 

@<TRIPOS>MOLECULE
4xiq_ligand
   47    50     1     0     0
SMALL
GAST_HUCK


@<TRIPOS>ATOM
      1 N1         -2.3980  -11.6430  -24.2360 N.am      1 40Y        -0.3013
      2 C4          6.2500  -11.7140  -24.1000 C.2       1 40Y         0.0062
      3 C5          7.3860  -12.6450  -24.3070 C.2       1 40Y         0.0953
      4 C6          7.0910  -14.0770  -24.6980 C.3       1 40Y         0.0211
      5 C7          5.8130  -14.2910  -25.5260 C.3       1 40Y        -0.0090
      6 C8          4.6510  -13.5870  -24.8160 C.3       1 40Y         0.0108
      7 C10         5.9960  -13.7230  -26.9360 C.3       1 40Y        -0.0559
      8 C13         0.4870  -12.1550  -24.0340 C.ar      1 40Y        -0.0574
      9 C15         0.7110  -10.1170  -25.3120 C.ar      1 40Y        -0.0175
     10 C17         3.3030   -8.0870  -24.6210 C.3       1 40Y         0.0768
     11 O2         -1.9330  -10.7100  -26.2180 O.2       1 40Y        -0.3884
     12 C19        -1.5590  -11.1500  -25.1350 C.2       1 40Y         0.1943
     13 C14        -0.0910  -11.1410  -24.8040 C.ar      1 40Y         0.0332
     14 C12         1.8500  -12.1680  -23.7800 C.ar      1 40Y        -0.0300
     15 C16         2.0740  -10.1310  -25.0660 C.ar      1 40Y         0.1312
     16 O1          2.8360   -9.0880  -25.5650 O.3       1 40Y        -0.3159
     17 C18         4.2170   -8.6520  -23.5510 C.3       1 40Y         0.0195
     18 C2          4.7790  -10.0300  -23.7690 C.2       1 40Y         0.0444
     19 C11         2.6570  -11.1570  -24.3110 C.ar      1 40Y         0.1271
     20 N           4.0830  -11.1830  -24.1210 N.pl3     1 40Y        -0.2315
     21 C3          4.9790  -12.2080  -24.3280 C.2       1 40Y         0.0646
     22 C9          5.5070  -15.7810  -25.6360 C.3       1 40Y        -0.0559
     23 O           8.5540  -12.2730  -24.2080 O.2       1 40Y        -0.4031
     24 C1          6.1180  -10.3160  -23.7430 C.2       1 40Y        -0.0622
     25 C           7.2720   -9.3940  -23.4560 C.3       1 40Y        -0.0559
     26 H1         -2.0501  -11.9914  -23.3656 H         1 40Y         0.1806
     27 H2         -3.3791  -11.6667  -24.4278 H         1 40Y         0.1806
     28 H3          6.9985  -14.6676  -23.7746 H         1 40Y         0.0483
     29 H4          7.9420  -14.4489  -25.2874 H         1 40Y         0.0483
     30 H5          4.3532  -14.1980  -23.9511 H         1 40Y         0.0455
     31 H6          3.8092  -13.5133  -25.5202 H         1 40Y         0.0455
     32 H7          6.8321  -14.2370  -27.4327 H         1 40Y         0.0238
     33 H8          6.2132  -12.6466  -26.8724 H         1 40Y         0.0238
     34 H9          5.0742  -13.8774  -27.5160 H         1 40Y         0.0238
     35 H10        -0.1394  -12.9421  -23.6299 H         1 40Y         0.0559
     36 H11         0.2699   -9.3166  -25.8949 H         1 40Y         0.0568
     37 H12         2.4285   -7.6351  -24.1301 H         1 40Y         0.0629
     38 H13         3.8526   -7.3128  -25.1764 H         1 40Y         0.0629
     39 H14         2.2861  -12.9548  -23.1752 H         1 40Y         0.0562
     40 H15         3.6472   -8.6745  -22.6103 H         1 40Y         0.0420
     41 H16         5.0679   -7.9626  -23.4480 H         1 40Y         0.0420
     42 H17         5.3729  -16.2031  -24.6291 H         1 40Y         0.0238
     43 H18         6.3420  -16.2907  -26.1389 H         1 40Y         0.0238
     44 H19         4.5854  -15.9240  -26.2192 H         1 40Y         0.0238
     45 H20         8.2152   -9.9564  -23.5194 H         1 40Y         0.0297
     46 H21         7.1630   -8.9737  -22.4453 H         1 40Y         0.0297
     47 H22         7.2815   -8.5779  -24.1935 H         1 40Y         0.0297
@<TRIPOS>BOND
     1   12    1 am 
     2    2    3 1  
     3    2   21 2  
     4   24    2 1  
     5    3    4 1  
     6    3   23 2  
     7    4    5 1  
     8    6    5 1  
     9    5    7 1  
    10    5   22 1  
    11   21    6 1  
    12   13    8 ar 
    13   14    8 ar 
    14    9   13 ar 
    15   15    9 ar 
    16   10   16 1  
    17   17   10 1  
    18   12   11 2  
    19   13   12 1  
    20   19   14 ar 
    21   16   15 1  
    22   15   19 ar 
    23   18   17 1  
    24   18   20 1  
    25   18   24 2  
    26   19   20 1  
    27   20   21 1  
    28   24   25 1  
    29    1   26 1  
    30    1   27 1  
    31    4   28 1  
    32    4   29 1  
    33    6   30 1  
    34    6   31 1  
    35    7   32 1  
    36    7   33 1  
    37    7   34 1  
    38    8   35 1  
    39    9   36 1  
    40   10   37 1  
    41   10   38 1  
    42   14   39 1  
    43   17   40 1  
    44   17   41 1  
    45   22   42 1  
    46   22   43 1  
    47   22   44 1  
    48   25   45 1  
    49   25   46 1  
    50   25   47 1  
@<TRIPOS>SUBSTRUCTURE
     1 40Y         1

