### 
### Created by X-TOOL on Mon Sep 10 21:13:24 2018
### 

@<TRIPOS>MOLECULE
4xir_ligand
   56    59     1     0     0
SMALL
GAST_HUCK


@<TRIPOS>ATOM
      1 N1         -2.4120  -11.5430  -24.0540 N.am      1 40X        -0.3014
      2 C4          4.2440   -8.6760  -23.1650 C.3       1 40X         0.0224
      3 C5          4.8030   -9.9760  -23.5230 C.2       1 40X         0.0447
      4 C6          6.1460  -10.2340  -23.5500 C.2       1 40X        -0.0622
      5 C7          6.2850  -11.5990  -24.0070 C.2       1 40X         0.0062
      6 C8          5.0130  -12.0890  -24.2590 C.2       1 40X         0.0646
      7 C10         1.9270  -12.1320  -23.6670 C.ar      1 40X        -0.0161
      8 C13         0.6860   -9.9920  -25.0000 C.ar      1 40X        -0.0169
      9 C15        -1.5390  -11.0990  -24.9480 C.2       1 40X         0.1946
     10 C17         5.8310  -14.1220  -25.5440 C.3       1 40X        -0.0090
     11 C20         5.9800  -13.5170  -26.9450 C.3       1 40X        -0.0559
     12 C21         5.5320  -15.6110  -25.6750 C.3       1 40X        -0.0559
     13 C22         7.2980   -9.3090  -23.2580 C.3       1 40X        -0.0559
     14 O2          8.5800  -12.1290  -24.1750 O.2       1 40X        -0.4031
     15 C19         7.4140  -12.5030  -24.2870 C.2       1 40X         0.0953
     16 C18         7.1250  -13.9200  -24.7350 C.3       1 40X         0.0211
     17 C16         4.6740  -13.4420  -24.8050 C.3       1 40X         0.0108
     18 N           4.1140  -11.0940  -23.9580 N.pl3     1 40X        -0.2315
     19 C9          2.6850  -11.0600  -24.1130 C.ar      1 40X         0.1277
     20 C14         2.0590   -9.9930  -24.7770 C.ar      1 40X         0.1319
     21 C12        -0.0770  -11.1060  -24.5970 C.ar      1 40X         0.0469
     22 O1         -1.9020  -10.6660  -26.0370 O.2       1 40X        -0.3885
     23 C11         0.5720  -12.1640  -23.9380 C.ar      1 40X         0.0444
     24 CL         -0.2490  -13.6240  -23.5110 Cl        1 40X        -0.0766
     25 O           2.8220   -8.9630  -25.3080 O.3       1 40X        -0.3124
     26 C3          3.4700   -8.0820  -24.3390 C.3       1 40X         0.0877
     27 C2          2.6630   -6.8430  -24.0790 C.3       1 40X        -0.0212
     28 C1          3.4700   -5.5820  -24.2060 C.3       1 40X        -0.0531
     29 C           3.9390   -5.3000  -25.6350 C.3       1 40X        -0.0652
     30 H1         -3.3888  -11.5466  -24.2680 H         1 40X         0.1806
     31 H2         -2.0935  -11.8742  -23.1658 H         1 40X         0.1806
     32 H3          5.0621   -7.9942  -22.8895 H         1 40X         0.0423
     33 H4          3.5643   -8.7982  -22.3088 H         1 40X         0.0423
     34 H5          2.3928  -12.9375  -23.1109 H         1 40X         0.0568
     35 H6          0.2087   -9.1443  -25.4781 H         1 40X         0.0569
     36 H7          6.8118  -14.0091  -27.4703 H         1 40X         0.0238
     37 H8          6.1865  -12.4400  -26.8593 H         1 40X         0.0238
     38 H9          5.0487  -13.6680  -27.5106 H         1 40X         0.0238
     39 H10         5.4236  -16.0527  -24.6734 H         1 40X         0.0238
     40 H11         6.3584  -16.1056  -26.2063 H         1 40X         0.0238
     41 H12         4.5982  -15.7492  -26.2396 H         1 40X         0.0238
     42 H13         6.9106   -8.3340  -22.9275 H         1 40X         0.0297
     43 H14         7.9003   -9.1746  -24.1686 H         1 40X         0.0297
     44 H15         7.9245   -9.7427  -22.4646 H         1 40X         0.0297
     45 H16         7.9673  -14.2540  -25.3587 H         1 40X         0.0483
     46 H17         7.0617  -14.5507  -23.8360 H         1 40X         0.0483
     47 H18         3.8330  -13.3319  -25.5054 H         1 40X         0.0455
     48 H19         4.3714  -14.0875  -23.9673 H         1 40X         0.0455
     49 H20         4.3025   -7.6835  -24.9374 H         1 40X         0.0666
     50 H21         2.2552   -6.8974  -23.0588 H         1 40X         0.0295
     51 H22         1.8358   -6.8046  -24.8030 H         1 40X         0.0295
     52 H23         4.3557   -5.6686  -23.5594 H         1 40X         0.0264
     53 H24         2.8514   -4.7371  -23.8693 H         1 40X         0.0264
     54 H25         4.5206   -4.3665  -25.6525 H         1 40X         0.0230
     55 H26         3.0646   -5.1996  -26.2948 H         1 40X         0.0230
     56 H27         4.5689   -6.1311  -25.9849 H         1 40X         0.0230
@<TRIPOS>BOND
     1    9    1 am 
     2    3    2 1  
     3    2   26 1  
     4    3    4 2  
     5   18    3 1  
     6    5    4 1  
     7    4   13 1  
     8    6    5 2  
     9    5   15 1  
    10    6   17 1  
    11   18    6 1  
    12   19    7 ar 
    13    7   23 ar 
    14   20    8 ar 
    15    8   21 ar 
    16   21    9 1  
    17    9   22 2  
    18   10   11 1  
    19   10   12 1  
    20   10   16 1  
    21   17   10 1  
    22   15   14 2  
    23   15   16 1  
    24   19   18 1  
    25   19   20 ar 
    26   20   25 1  
    27   21   23 ar 
    28   23   24 1  
    29   25   26 1  
    30   26   27 1  
    31   27   28 1  
    32   28   29 1  
    33    1   30 1  
    34    1   31 1  
    35    2   32 1  
    36    2   33 1  
    37    7   34 1  
    38    8   35 1  
    39   11   36 1  
    40   11   37 1  
    41   11   38 1  
    42   12   39 1  
    43   12   40 1  
    44   12   41 1  
    45   13   42 1  
    46   13   43 1  
    47   13   44 1  
    48   16   45 1  
    49   16   46 1  
    50   17   47 1  
    51   17   48 1  
    52   26   49 1  
    53   27   50 1  
    54   27   51 1  
    55   28   52 1  
    56   28   53 1  
    57   29   54 1  
    58   29   55 1  
    59   29   56 1  
@<TRIPOS>SUBSTRUCTURE
     1 40X         1

