### 
### Created by X-TOOL on Mon Sep 10 21:13:24 2018
### 

@<TRIPOS>MOLECULE
4xit_ligand
   58    62     1     0     0
SMALL
GAST_HUCK


@<TRIPOS>ATOM
      1 N1          2.7440   -8.8030  -25.6150 N.pl3     1 40Z        -0.2928
      2 C4          6.4160  -11.5830  -24.3170 C.2       1 40Z         0.0060
      3 C5          7.5470  -12.5360  -24.4700 C.2       1 40Z         0.0952
      4 C6          7.2590  -13.9720  -24.8520 C.3       1 40Z         0.0211
      5 C7          6.0090  -14.2010  -25.7170 C.3       1 40Z        -0.0090
      6 C8          4.8310  -13.4460  -25.0920 C.3       1 40Z         0.0107
      7 C10         5.6820  -15.6900  -25.7690 C.3       1 40Z        -0.0559
      8 C13         0.7560  -12.2500  -24.1760 C.ar      1 40Z         0.0421
      9 C15         0.7170  -10.1210  -25.2710 C.ar      1 40Z        -0.0277
     10 C17         3.6010   -7.9190  -24.8170 C.3       1 40Z         0.0359
     11 C20         3.0670   -7.4420  -27.8670 C.2       1 40Z         0.1164
     12 C21         3.4610   -6.1690  -27.7320 C.2       1 40Z        -0.0686
     13 C22         3.9870   -5.7780  -28.9610 C.2       1 40Z        -0.0808
     14 C24        -1.4510  -11.2950  -25.0690 C.2       1 40Z         0.1942
     15 CL          0.0150  -13.7180  -23.6430 Cl        1 40Z        -0.0785
     16 C12         2.1190  -12.1440  -23.9930 C.ar      1 40Z        -0.0191
     17 C14         0.0250  -11.2460  -24.8160 C.ar      1 40Z         0.0439
     18 N2         -2.2330  -11.7920  -24.1230 N.am      1 40Z        -0.3014
     19 O2         -1.8980  -10.8680  -26.1440 O.2       1 40Z        -0.3884
     20 C16         2.1000  -10.0000  -25.1150 C.ar      1 40Z         0.0844
     21 C19         2.3900   -8.4080  -26.9700 C.3       1 40Z         0.0891
     22 O1          3.3270   -7.8730  -29.1240 O.3       1 40Z        -0.2668
     23 C23         3.8830   -6.8240  -29.7650 C.2       1 40Z         0.0669
     24 C18         4.3090   -8.5880  -23.6450 C.3       1 40Z         0.0115
     25 C2          4.9300   -9.9130  -23.9770 C.2       1 40Z         0.0433
     26 C11         2.8190  -11.0450  -24.4920 C.ar      1 40Z         0.1171
     27 N           4.2530  -11.0410  -24.3830 N.pl3     1 40Z        -0.2332
     28 C3          5.1550  -12.0660  -24.6000 C.2       1 40Z         0.0642
     29 C9          6.2560  -13.7080  -27.1470 C.3       1 40Z        -0.0559
     30 O           8.7110  -12.1840  -24.3300 O.2       1 40Z        -0.4031
     31 C1          6.2720  -10.1950  -23.9210 C.2       1 40Z        -0.0625
     32 C           7.4150   -9.2930  -23.5470 C.3       1 40Z        -0.0560
     33 H1          7.1363  -14.5492  -23.9237 H         1 40Z         0.0483
     34 H2          8.1279  -14.3531  -25.4086 H         1 40Z         0.0483
     35 H3          4.4614  -14.0347  -24.2395 H         1 40Z         0.0455
     36 H4          4.0385  -13.3612  -25.8501 H         1 40Z         0.0455
     37 H5          6.5257  -16.2352  -26.2172 H         1 40Z         0.0238
     38 H6          4.7795  -15.8462  -26.3781 H         1 40Z         0.0238
     39 H7          5.5051  -16.0624  -24.7492 H         1 40Z         0.0238
     40 H8          0.1676   -9.3227  -25.7568 H         1 40Z         0.0541
     41 H9          2.9751   -7.1071  -24.4181 H         1 40Z         0.0531
     42 H10         4.3685   -7.4972  -25.4825 H         1 40Z         0.0531
     43 H11         3.3848   -5.5574  -26.8342 H         1 40Z         0.0219
     44 H12         4.4023   -4.8029  -29.2112 H         1 40Z         0.0296
     45 H13         2.6511  -12.9214  -23.4567 H         1 40Z         0.0562
     46 H14        -3.2219  -11.8371  -24.2643 H         1 40Z         0.1806
     47 H15        -1.8346  -12.1222  -23.2673 H         1 40Z         0.1806
     48 H16         1.3618   -8.0267  -26.8838 H         1 40Z         0.0705
     49 H17         2.3852   -9.3505  -27.5371 H         1 40Z         0.0705
     50 H18         4.2036   -6.8364  -30.8057 H         1 40Z         0.0854
     51 H19         3.5744   -8.7431  -22.8411 H         1 40Z         0.0413
     52 H20         5.1030   -7.9139  -23.2912 H         1 40Z         0.0413
     53 H21         6.4937  -12.6341  -27.1287 H         1 40Z         0.0238
     54 H22         5.3530  -13.8734  -27.7530 H         1 40Z         0.0238
     55 H23         7.0986  -14.2626  -27.5857 H         1 40Z         0.0238
     56 H24         8.3598   -9.8527  -23.6108 H         1 40Z         0.0297
     57 H25         7.2734   -8.9287  -22.5188 H         1 40Z         0.0297
     58 H26         7.4483   -8.4376  -24.2378 H         1 40Z         0.0297
@<TRIPOS>BOND
     1   10    1 1  
     2    1   20 1  
     3    1   21 1  
     4    2    3 1  
     5    2   28 2  
     6   31    2 1  
     7    3    4 1  
     8    3   30 2  
     9    4    5 1  
    10    6    5 1  
    11    5    7 1  
    12    5   29 1  
    13   28    6 1  
    14    8   15 1  
    15   16    8 ar 
    16   17    8 ar 
    17    9   17 ar 
    18   20    9 ar 
    19   24   10 1  
    20   11   12 2  
    21   21   11 1  
    22   11   22 1  
    23   12   13 1  
    24   23   13 2  
    25   17   14 1  
    26   14   18 am 
    27   14   19 2  
    28   26   16 ar 
    29   20   26 ar 
    30   22   23 1  
    31   25   24 1  
    32   25   27 1  
    33   25   31 2  
    34   26   27 1  
    35   27   28 1  
    36   31   32 1  
    37    4   33 1  
    38    4   34 1  
    39    6   35 1  
    40    6   36 1  
    41    7   37 1  
    42    7   38 1  
    43    7   39 1  
    44    9   40 1  
    45   10   41 1  
    46   10   42 1  
    47   12   43 1  
    48   13   44 1  
    49   16   45 1  
    50   18   46 1  
    51   18   47 1  
    52   21   48 1  
    53   21   49 1  
    54   23   50 1  
    55   24   51 1  
    56   24   52 1  
    57   29   53 1  
    58   29   54 1  
    59   29   55 1  
    60   32   56 1  
    61   32   57 1  
    62   32   58 1  
@<TRIPOS>SUBSTRUCTURE
     1 40Z         1

