### 
### Created by X-TOOL on Mon Sep 10 21:13:24 2018
### 

@<TRIPOS>MOLECULE
4xj0_ligand
   53    56     1     0     0
SMALL
GAST_HUCK


@<TRIPOS>ATOM
      1 C4        -14.7300  -36.6540  -19.8010 C.ar      1 41B         0.1401
      2 C5        -13.9410  -35.8310  -20.5970 C.ar      1 41B        -0.0231
      3 C6        -13.0400  -36.3920  -21.4980 C.ar      1 41B        -0.0070
      4 C7        -12.2920  -35.4440  -22.4140 C.3       1 41B         0.1359
      5 C13       -14.2550  -36.0750  -25.5030 C.2       1 41B        -0.0326
      6 C15       -14.6020  -33.7440  -24.8880 C.2       1 41B         0.0021
      7 C20       -17.1120  -33.5500  -28.5050 C.ar      1 41B         0.0152
      8 C22       -16.6190  -35.7980  -28.8410 C.ar      1 41B         0.1916
      9 C26       -16.8070  -39.3560  -30.0970 C.3       1 41B        -0.0060
     10 C1        -12.9610  -37.7870  -21.6250 C.ar      1 41B        -0.0605
     11 C2        -13.7410  -38.6140  -20.8250 C.ar      1 41B        -0.0562
     12 C3        -14.6200  -38.0330  -19.9200 C.ar      1 41B         0.0659
     13 C9        -10.8720  -35.8900  -22.7740 C.3       1 41B         0.0865
     14 O10       -10.1260  -35.9080  -21.5620 O.3       1 41B        -0.3897
     15 N11       -13.1550  -35.1720  -23.5850 N.am      1 41B        -0.1919
     16 C12       -13.4290  -36.2120  -24.4480 C.2       1 41B         0.0676
     17 C14       -14.8770  -34.8200  -25.7460 C.2       1 41B        -0.0121
     18 C16       -13.7300  -33.9420  -23.7800 C.2       1 41B         0.2049
     19 O17       -13.5050  -32.9990  -23.0320 O.2       1 41B        -0.4197
     20 C18       -15.7600  -34.7210  -26.9410 C.ar      1 41B         0.0537
     21 C19       -16.3940  -33.5250  -27.3170 C.ar      1 41B        -0.0150
     22 N21       -17.2180  -34.6740  -29.2200 N.ar      1 41B        -0.2536
     23 N23       -15.9020  -35.8090  -27.7250 N.ar      1 41B        -0.2486
     24 N24       -16.7100  -36.9340  -29.6460 N.pl3     1 41B        -0.2858
     25 C25       -16.1110  -38.2330  -29.2960 C.3       1 41B         0.0460
     26 C27       -16.1020  -40.7150  -29.9030 C.3       1 41B         0.0498
     27 O28       -14.6690  -40.6150  -30.0410 O.3       1 41B        -0.3796
     28 C29       -14.0010  -39.6170  -29.2470 C.3       1 41B         0.0498
     29 C30       -14.5940  -38.2350  -29.5780 C.3       1 41B        -0.0060
     30 F31       -15.5990  -36.1360  -18.9040 F         1 41B        -0.1844
     31 CL1       -15.6240  -39.0120  -18.9170 Cl        1 41B        -0.0785
     32 H1        -14.0274  -34.7535  -20.5161 H         1 41B         0.0543
     33 H2        -12.1778  -34.4950  -21.8696 H         1 41B         0.0867
     34 H3        -14.4449  -36.9189  -26.1646 H         1 41B         0.0362
     35 H4        -15.0507  -32.7682  -25.0677 H         1 41B         0.0483
     36 H5        -17.5934  -32.6450  -28.8576 H         1 41B         0.0895
     37 H6        -16.7905  -39.0949  -31.1654 H         1 41B         0.0310
     38 H7        -17.8495  -39.4433  -29.7569 H         1 41B         0.0310
     39 H8        -12.2864  -38.2234  -22.3527 H         1 41B         0.0524
     40 H9        -13.6647  -39.6923  -20.9059 H         1 41B         0.0596
     41 H10       -10.4217  -35.1819  -23.4851 H         1 41B         0.0613
     42 H11       -10.8927  -36.8950  -23.2207 H         1 41B         0.0613
     43 H12       -10.1201  -35.0373  -21.1821 H         1 41B         0.2098
     44 H13       -12.9607  -37.1789  -24.2701 H         1 41B         0.1222
     45 H14       -16.3261  -32.6289  -26.7108 H         1 41B         0.0686
     46 H15       -17.2250  -36.8599  -30.5349 H         1 41B         0.1865
     47 H16       -16.2668  -38.4147  -28.2224 H         1 41B         0.0561
     48 H17       -16.4812  -41.4207  -30.6568 H         1 41B         0.0560
     49 H18       -16.3346  -41.0934  -28.8966 H         1 41B         0.0560
     50 H19       -12.9254  -39.6216  -29.4771 H         1 41B         0.0560
     51 H20       -14.1485  -39.8356  -28.1791 H         1 41B         0.0560
     52 H21       -14.1063  -37.4704  -28.9555 H         1 41B         0.0310
     53 H22       -14.4202  -38.0086  -30.6403 H         1 41B         0.0310
@<TRIPOS>BOND
     1    2    1 ar 
     2    1   12 ar 
     3    1   30 1  
     4    3    2 ar 
     5    4    3 1  
     6    3   10 ar 
     7    4   13 1  
     8   15    4 1  
     9    5   16 2  
    10   17    5 1  
    11   17    6 2  
    12    6   18 1  
    13    7   21 ar 
    14   22    7 ar 
    15    8   22 ar 
    16    8   23 ar 
    17   24    8 1  
    18   25    9 1  
    19    9   26 1  
    20   10   11 ar 
    21   11   12 ar 
    22   12   31 1  
    23   13   14 1  
    24   16   15 1  
    25   18   15 am 
    26   20   17 1  
    27   18   19 2  
    28   20   21 ar 
    29   23   20 ar 
    30   24   25 1  
    31   25   29 1  
    32   26   27 1  
    33   27   28 1  
    34   28   29 1  
    35    2   32 1  
    36    4   33 1  
    37    5   34 1  
    38    6   35 1  
    39    7   36 1  
    40    9   37 1  
    41    9   38 1  
    42   10   39 1  
    43   11   40 1  
    44   13   41 1  
    45   13   42 1  
    46   14   43 1  
    47   16   44 1  
    48   21   45 1  
    49   24   46 1  
    50   25   47 1  
    51   26   48 1  
    52   26   49 1  
    53   28   50 1  
    54   28   51 1  
    55   29   52 1  
    56   29   53 1  
@<TRIPOS>SUBSTRUCTURE
     1 41B         1

