### 
### Created by X-TOOL on Mon Sep 10 21:13:23 2018
### 

@<TRIPOS>MOLECULE
4xjs_ligand
   39    41     1     0     0
SMALL
GAST_HUCK


@<TRIPOS>ATOM
      1 C01        -6.5860  -21.3270    9.7000 C.3       1 733        -0.0189
      2 C02        -6.6900  -20.6380   11.0390 C.ar      1 733         0.0026
      3 C03        -6.2030  -21.2590   12.1890 C.ar      1 733        -0.0152
      4 C04        -6.3150  -20.6100   13.4310 C.ar      1 733         0.0697
      5 N01        -5.8060  -21.2160   14.6250 N.pl3     1 733        -0.2979
      6 C05        -5.5150  -22.6670   14.7060 C.3       1 733         0.0639
      7 C06        -5.2720  -23.1270   16.1370 C.ar      1 733         0.0079
      8 C07        -6.2330  -23.9030   16.8120 C.ar      1 733         0.0439
      9 CL1        -7.7380  -24.3580   16.0700 Cl        1 733        -0.0769
     10 C08        -6.0150  -24.3210   18.1260 C.ar      1 733        -0.0539
     11 C09        -4.8390  -23.9800   18.7980 C.ar      1 733        -0.0538
     12 C10        -3.8710  -23.2090   18.1360 C.ar      1 733         0.0479
     13 CL2        -2.4000  -22.7490   18.9530 Cl        1 733        -0.0716
     14 C11        -4.0780  -22.7820   16.8100 C.ar      1 733         0.0576
     15 CL3        -2.8270  -21.8070   16.0590 Cl        1 733        -0.0765
     16 C12        -6.9220  -19.3420   13.4570 C.ar      1 733         0.0300
     17 C13        -7.0450  -18.6520   14.6680 C.ar      1 733        -0.0114
     18 C14        -7.6370  -17.3880   14.7190 C.ar      1 733         0.1396
     19 F          -7.7370  -16.7550   15.9220 F         1 733        -0.1843
     20 C15        -8.1210  -16.7990   13.5440 C.ar      1 733        -0.0064
     21 C16        -8.0280  -17.4500   12.2990 C.ar      1 733         0.0604
     22 C17        -8.5640  -16.7270   11.0770 C.2       1 733         0.1987
     23 N02        -9.2020  -15.5690   11.2000 N.am      1 733        -0.3012
     24 O1         -8.4160  -17.1310    9.9090 O.2       1 733        -0.3883
     25 C1         -7.4090  -18.7500   12.2680 C.ar      1 733         0.0377
     26 N1         -7.2610  -19.4410   11.1190 N.ar      1 733        -0.3238
     27 H1         -6.0886  -22.3000    9.8260 H         1 733         0.0428
     28 H2         -5.9994  -20.7020    9.0106 H         1 733         0.0428
     29 H3         -7.5941  -21.4812    9.2877 H         1 733         0.0428
     30 H4         -5.7404  -22.2373   12.1254 H         1 733         0.0497
     31 H5         -5.6372  -20.6257   15.4520 H         1 733         0.1876
     32 H6         -4.6173  -22.8820   14.1078 H         1 733         0.0692
     33 H7         -6.3708  -23.2232   14.2959 H         1 733         0.0692
     34 H8         -6.7669  -24.9170   18.6305 H         1 733         0.0607
     35 H9         -4.6759  -24.3069   19.8186 H         1 733         0.0565
     36 H10        -6.6752  -19.1054   15.5806 H         1 733         0.0673
     37 H11        -8.5785  -15.8176   13.5944 H         1 733         0.0706
     38 H12        -9.5509  -15.1016   10.3877 H         1 733         0.1805
     39 H13        -9.3336  -15.1643   12.1049 H         1 733         0.1805
@<TRIPOS>BOND
     1    1    2 1  
     2    2    3 ar 
     3    2   26 ar 
     4    3    4 ar 
     5    4    5 1  
     6    4   16 ar 
     7    5    6 1  
     8    6    7 1  
     9    7    8 ar 
    10    7   14 ar 
    11    8    9 1  
    12    8   10 ar 
    13   10   11 ar 
    14   11   12 ar 
    15   12   13 1  
    16   12   14 ar 
    17   14   15 1  
    18   16   17 ar 
    19   16   25 ar 
    20   17   18 ar 
    21   18   19 1  
    22   18   20 ar 
    23   20   21 ar 
    24   21   22 1  
    25   21   25 ar 
    26   22   23 am 
    27   22   24 2  
    28   25   26 ar 
    29    1   27 1  
    30    1   28 1  
    31    1   29 1  
    32    3   30 1  
    33    5   31 1  
    34    6   32 1  
    35    6   33 1  
    36   10   34 1  
    37   11   35 1  
    38   17   36 1  
    39   20   37 1  
    40   23   38 1  
    41   23   39 1  
@<TRIPOS>SUBSTRUCTURE
     1 733         1

