### 
### Created by X-TOOL on Mon Sep 10 21:13:24 2018
### 

@<TRIPOS>MOLECULE
4xjt_ligand
   45    47     1     0     0
SMALL
GAST_HUCK


@<TRIPOS>ATOM
      1 C10        -2.3530  -21.7370   16.0170 C.3       1 41Z        -0.0352
      2 C13        -5.0770  -23.7560   18.5380 C.ar      1 41Z        -0.0739
      3 C15        -6.8870  -23.7180   16.8830 C.3       1 41Z        -0.0352
      4 C17        -7.1550  -18.6790   14.9210 C.ar      1 41Z        -0.0441
      5 C20        -8.0110  -17.5580   12.5630 C.ar      1 41Z         0.0600
      6 C21        -8.5070  -16.8660   11.3550 C.2       1 41Z         0.1989
      7 C24        -7.3430  -18.7810   12.5050 C.ar      1 41Z         0.0403
      8 C02        -6.2030  -21.2470   10.0830 C.3       1 41Z        -0.0184
      9 C03        -6.4560  -20.5710   11.3850 C.ar      1 41Z         0.0038
     10 C04        -6.0190  -21.1570   12.5530 C.ar      1 41Z        -0.0139
     11 C05        -6.2490  -20.5340   13.7630 C.ar      1 41Z         0.0714
     12 N06        -5.8390  -21.0580   15.0280 N.pl3     1 41Z        -0.2998
     13 C07        -5.0880  -22.3170   15.0280 C.3       1 41Z         0.0579
     14 C08        -4.6330  -22.7210   16.4090 C.ar      1 41Z        -0.0175
     15 C09        -3.3480  -22.4430   16.8590 C.ar      1 41Z        -0.0487
     16 C11        -2.9420  -22.8170   18.1260 C.ar      1 41Z        -0.0739
     17 C12        -3.8010  -23.4800   18.9780 C.ar      1 41Z        -0.0820
     18 C14        -5.4920  -23.3850   17.2740 C.ar      1 41Z        -0.0487
     19 C16        -6.9210  -19.3260   13.7200 C.ar      1 41Z         0.0322
     20 C18        -7.8150  -17.4750   14.9430 C.ar      1 41Z        -0.0539
     21 C19        -8.2430  -16.9140   13.7590 C.ar      1 41Z        -0.0416
     22 O22        -8.4090  -17.3330   10.2340 O.2       1 41Z        -0.3884
     23 N23        -9.0780  -15.6540   11.6140 N.am      1 41Z        -0.3012
     24 N25        -7.1100  -19.4080   11.3400 N.ar      1 41Z        -0.3220
     25 H1         -1.4117  -21.6277   16.5755 H         1 41Z         0.0374
     26 H2         -2.7386  -20.7420   15.7501 H         1 41Z         0.0374
     27 H3         -2.1703  -22.3174   15.1006 H         1 41Z         0.0374
     28 H4         -5.7670  -24.2731   19.1950 H         1 41Z         0.0482
     29 H5         -7.3858  -24.2396   17.7131 H         1 41Z         0.0374
     30 H6         -6.8739  -24.3687   15.9962 H         1 41Z         0.0374
     31 H7         -7.4336  -22.7922   16.6505 H         1 41Z         0.0374
     32 H8         -6.8156  -19.1250   15.8489 H         1 41Z         0.0701
     33 H9         -5.6606  -22.1879   10.2577 H         1 41Z         0.0431
     34 H10        -5.5993  -20.5898    9.4398 H         1 41Z         0.0431
     35 H11        -7.1620  -21.4628    9.5894 H         1 41Z         0.0431
     36 H12        -5.4955  -22.1057   12.5216 H         1 41Z         0.0500
     37 H13        -6.0628  -20.5694   15.9067 H         1 41Z         0.1875
     38 H14        -4.2027  -22.1992   14.3858 H         1 41Z         0.0658
     39 H15        -5.7319  -23.1114   14.6228 H         1 41Z         0.0658
     40 H16        -1.9351  -22.5863   18.4547 H         1 41Z         0.0482
     41 H17        -3.4796  -23.7767   19.9699 H         1 41Z         0.0525
     42 H18        -7.9980  -16.9696   15.8844 H         1 41Z         0.0606
     43 H19        -8.7637  -15.9633   13.7687 H         1 41Z         0.0704
     44 H20        -9.4458  -15.1041   10.8641 H         1 41Z         0.1805
     45 H21        -9.1286  -15.3157   12.5537 H         1 41Z         0.1805
@<TRIPOS>BOND
     1   15    1 1  
     2    2   17 ar 
     3   18    2 ar 
     4   18    3 1  
     5   19    4 ar 
     6    4   20 ar 
     7    5    6 1  
     8    7    5 ar 
     9    5   21 ar 
    10    6   22 2  
    11    6   23 am 
    12   19    7 ar 
    13    7   24 ar 
    14    9    8 1  
    15   10    9 ar 
    16    9   24 ar 
    17   11   10 ar 
    18   12   11 1  
    19   11   19 ar 
    20   13   12 1  
    21   14   13 1  
    22   14   15 ar 
    23   14   18 ar 
    24   15   16 ar 
    25   16   17 ar 
    26   20   21 ar 
    27    1   25 1  
    28    1   26 1  
    29    1   27 1  
    30    2   28 1  
    31    3   29 1  
    32    3   30 1  
    33    3   31 1  
    34    4   32 1  
    35    8   33 1  
    36    8   34 1  
    37    8   35 1  
    38   10   36 1  
    39   12   37 1  
    40   13   38 1  
    41   13   39 1  
    42   16   40 1  
    43   17   41 1  
    44   20   42 1  
    45   21   43 1  
    46   23   44 1  
    47   23   45 1  
@<TRIPOS>SUBSTRUCTURE
     1 41Z         1

