### 
### Created by X-TOOL on Mon Sep 10 21:13:24 2018
### 

@<TRIPOS>MOLECULE
4xk9_ligand
  113   120     1     0     0
SMALL
GAST_HUCK


@<TRIPOS>ATOM
      1 C1         64.4370   -5.6010   25.5190 C.2       1 41J        -0.1119
      2 C2         64.9850   -6.5800   24.8190 C.2       1 41J        -0.0796
      3 C6         72.2060   -5.5210   20.6020 C.3       1 41J        -0.0605
      4 C8         65.8260   -6.3650   23.6210 C.2       1 41J        -0.0578
      5 C10        66.8210   -4.9650   21.7530 C.3       1 41J        -0.0484
      6 C13        66.2730   -7.4560   22.9880 C.2       1 41J        -0.0792
      7 C15        68.0320   -8.6820   21.7200 C.3       1 41J         0.0977
      8 C17        68.6960  -10.3300   20.2360 C.3       1 41J         0.1739
      9 C18        69.9900  -10.9880   19.7600 C.3       1 41J         0.0279
     10 C21        71.2980  -10.3630   20.2430 C.3       1 41J         0.0668
     11 C22        71.2150   -6.8240   23.3320 C.3       1 41J        -0.0626
     12 O52        76.4270   -8.4050   18.6110 O.3       1 41J        -0.3835
     13 C51        75.3780   -8.4150   17.6360 C.3       1 41J         0.1170
     14 C53        75.9630   -8.5050   16.2180 C.3       1 41J        -0.0310
     15 C50        74.5950   -7.1160   17.8250 C.3       1 41J        -0.0167
     16 C49        73.2670   -7.0910   17.0670 C.3       1 41J        -0.0215
     17 C48        72.4720   -8.3900   17.2200 C.3       1 41J         0.0736
     18 O47        73.3190   -9.5350   17.0930 O.3       1 41J        -0.3402
     19 C43        74.4550   -9.5840   17.9620 C.3       1 41J         0.2021
     20 O44        74.0240   -9.5070   19.3130 O.3       1 41J        -0.3145
     21 C42        75.0910  -10.9680   17.8650 C.3       1 41J         0.0092
     22 C55        74.6160  -11.7270   19.0960 C.3       1 41J         0.0065
     23 C23        73.6990  -10.7720   19.8550 C.3       1 41J         0.1739
     24 O48        72.3260  -11.0650   19.5320 O.3       1 41J        -0.3451
     25 C80        73.9290  -10.8140   21.3580 C.3       1 41J         0.0016
     26 C60        72.8800   -9.9980   22.0990 C.3       1 41J        -0.0458
     27 C81        71.4880  -10.5130   21.7460 C.3       1 41J        -0.0261
     28 O65        68.3150  -10.9220   21.4630 O.3       1 41J        -0.3400
     29 O16        68.7620   -8.9220   20.5060 O.3       1 41J        -0.3406
     30 C64        67.5880  -10.6360   19.2370 C.3       1 41J         0.0065
     31 C63        66.2210  -10.1390   19.7030 C.3       1 41J        -0.0104
     32 C67        65.0780  -10.7920   18.9330 C.3       1 41J        -0.0598
     33 C62        66.0370  -10.2860   21.2130 C.3       1 41J         0.0868
     34 O66        65.5970  -11.6070   21.5100 O.3       1 41J        -0.3889
     35 C37        71.3680   -8.5090   16.1600 C.3       1 41J         0.0085
     36 C36        70.3410   -7.3990   16.2610 C.2       1 41J        -0.0708
     37 C38        70.0900   -6.6750   15.1890 C.2       1 41J        -0.1289
     38 C35        69.6600   -7.1870   17.5990 C.3       1 41J        -0.0155
     39 C34        68.4240   -6.2970   17.5740 C.3       1 41J        -0.0257
     40 C33        67.6640   -6.3920   18.8930 C.3       1 41J         0.0089
     41 C32        68.3270   -5.7830   20.1220 C.2       1 41J         0.0369
     42 N31        69.2540   -4.9570   19.8930 N.2       1 41J        -0.2721
     43 C30        70.1200   -4.1620   20.7530 C.3       1 41J         0.0464
     44 C29        71.0670   -5.0830   21.5220 C.3       1 41J        -0.0222
     45 C46        70.3800   -6.2820   22.1690 C.3       1 41J        -0.0438
     46 C28        68.9540   -5.9440   22.6250 C.3       1 41J        -0.0521
     47 C27        67.8520   -6.0740   21.5480 C.3       1 41J         0.0181
     48 C9         66.1580   -4.9730   23.1260 C.3       1 41J        -0.0328
     49 C12        67.1150   -7.4310   21.7180 C.3       1 41J         0.0080
     50 C61        67.3440  -10.0300   21.9710 C.3       1 41J         0.1158
     51 H1         63.8279   -5.8307   26.3920 H         1 41J         0.0403
     52 H2         64.5948   -4.5651   25.2224 H         1 41J         0.0403
     53 H3         64.8068   -7.6042   25.1433 H         1 41J         0.0577
     54 H4         72.6773   -4.6337   20.1541 H         1 41J         0.0233
     55 H5         71.8065   -6.1656   19.8052 H         1 41J         0.0233
     56 H6         72.9540   -6.0788   21.1845 H         1 41J         0.0233
     57 H7         66.0363   -5.0784   20.9905 H         1 41J         0.0226
     58 H8         67.3251   -3.9965   21.6192 H         1 41J         0.0226
     59 H9         66.0178   -8.4274   23.4089 H         1 41J         0.0569
     60 H10        68.7579   -8.5143   22.5293 H         1 41J         0.0647
     61 H11        69.9933  -10.9590   18.6604 H         1 41J         0.0342
     62 H12        69.9758  -12.0343   20.0992 H         1 41J         0.0342
     63 H13        71.3197   -9.2933   19.9875 H         1 41J         0.0599
     64 H14        70.7009   -7.6861   23.7819 H         1 41J         0.0232
     65 H15        71.3428   -6.0369   24.0898 H         1 41J         0.0232
     66 H16        72.2013   -7.1385   22.9600 H         1 41J         0.0232
     67 H17        76.0489   -8.3491   19.4808 H         1 41J         0.2104
     68 H18        75.1443   -8.5115   15.4834 H         1 41J         0.0259
     69 H19        76.5496   -9.4305   16.1214 H         1 41J         0.0259
     70 H20        76.6137   -7.6374   16.0340 H         1 41J         0.0259
     71 H21        75.2152   -6.2802   17.4691 H         1 41J         0.0295
     72 H22        74.3867   -6.9874   18.8974 H         1 41J         0.0295
     73 H23        73.4750   -6.9300   15.9989 H         1 41J         0.0293
     74 H24        72.6585   -6.2593   17.4515 H         1 41J         0.0293
     75 H25        72.0101   -8.3947   18.2183 H         1 41J         0.0624
     76 H26        76.1880  -10.8868   17.8642 H         1 41J         0.0320
     77 H27        74.7604  -11.4786   16.9485 H         1 41J         0.0320
     78 H28        75.4736  -12.0119   19.7232 H         1 41J         0.0319
     79 H29        74.0636  -12.6303   18.7979 H         1 41J         0.0319
     80 H30        74.9252  -10.4037   21.5800 H         1 41J         0.0317
     81 H31        73.8781  -11.8584   21.6996 H         1 41J         0.0317
     82 H32        72.9644   -8.9410   21.8063 H         1 41J         0.0268
     83 H33        73.0412  -10.0924   23.1830 H         1 41J         0.0268
     84 H34        71.3988  -11.5720   22.0297 H         1 41J         0.0290
     85 H35        70.7263   -9.9251   22.2791 H         1 41J         0.0290
     86 H36        67.5358  -11.7251   19.0919 H         1 41J         0.0320
     87 H37        67.8320  -10.1499   18.2809 H         1 41J         0.0320
     88 H38        66.1822   -9.0625   19.4801 H         1 41J         0.0325
     89 H39        64.1177  -10.4036   19.3030 H         1 41J         0.0233
     90 H40        65.1133  -11.8817   19.0786 H         1 41J         0.0233
     91 H41        65.1785  -10.5616   17.8621 H         1 41J         0.0233
     92 H42        65.2798   -9.5628   21.5501 H         1 41J         0.0623
     93 H43        65.4827  -11.6980   22.4488 H         1 41J         0.2099
     94 H44        70.8572   -9.4744   16.2902 H         1 41J         0.0485
     95 H45        71.8312   -8.4707   15.1630 H         1 41J         0.0485
     96 H46        69.3566   -5.8712   15.2342 H         1 41J         0.0075
     97 H47        70.6160   -6.8804   14.2578 H         1 41J         0.0075
     98 H48        70.3914   -6.7314   18.2828 H         1 41J         0.0462
     99 H49        69.3601   -8.1720   17.9861 H         1 41J         0.0462
    100 H50        67.7649   -6.6175   16.7537 H         1 41J         0.0322
    101 H51        68.7332   -5.2542   17.4099 H         1 41J         0.0322
    102 H52        67.4953   -7.4587   19.1020 H         1 41J         0.0508
    103 H53        66.6962   -5.8879   18.7547 H         1 41J         0.0508
    104 H54        69.5050   -3.5925   21.4654 H         1 41J         0.0510
    105 H55        70.7075   -3.4653   20.1370 H         1 41J         0.0510
    106 H56        71.5054   -4.4899   22.3381 H         1 41J         0.0318
    107 H57        70.3071   -7.0744   21.4095 H         1 41J         0.0296
    108 H58        68.9526   -4.9045   22.9848 H         1 41J         0.0211
    109 H59        68.6963   -6.6194   23.4541 H         1 41J         0.0211
    110 H60        66.8411   -4.4995   23.8466 H         1 41J         0.0377
    111 H61        65.2262   -4.3914   23.0674 H         1 41J         0.0377
    112 H62        66.4347   -7.5278   20.8591 H         1 41J         0.0430
    113 H63        67.1685  -10.1746   23.0472 H         1 41J         0.0651
@<TRIPOS>BOND
     1    2    1 2  
     2    4    2 1  
     3   44    3 1  
     4    4    6 2  
     5   48    4 1  
     6   47    5 1  
     7    5   48 1  
     8    6   49 1  
     9    7   29 1  
    10   49    7 1  
    11    7   50 1  
    12    8    9 1  
    13   28    8 1  
    14   29    8 1  
    15    8   30 1  
    16    9   10 1  
    17   10   24 1  
    18   10   27 1  
    19   45   11 1  
    20   13   12 1  
    21   13   14 1  
    22   15   13 1  
    23   19   13 1  
    24   16   15 1  
    25   17   16 1  
    26   17   18 1  
    27   35   17 1  
    28   18   19 1  
    29   19   20 1  
    30   19   21 1  
    31   20   23 1  
    32   21   22 1  
    33   22   23 1  
    34   23   24 1  
    35   23   25 1  
    36   25   26 1  
    37   27   26 1  
    38   50   28 1  
    39   31   30 1  
    40   31   32 1  
    41   33   31 1  
    42   33   34 1  
    43   50   33 1  
    44   36   35 1  
    45   36   37 2  
    46   38   36 1  
    47   39   38 1  
    48   40   39 1  
    49   41   40 1  
    50   42   41 2  
    51   41   47 1  
    52   43   42 1  
    53   44   43 1  
    54   44   45 1  
    55   45   46 1  
    56   46   47 1  
    57   47   49 1  
    58    1   51 1  
    59    1   52 1  
    60    2   53 1  
    61    3   54 1  
    62    3   55 1  
    63    3   56 1  
    64    5   57 1  
    65    5   58 1  
    66    6   59 1  
    67    7   60 1  
    68    9   61 1  
    69    9   62 1  
    70   10   63 1  
    71   11   64 1  
    72   11   65 1  
    73   11   66 1  
    74   12   67 1  
    75   14   68 1  
    76   14   69 1  
    77   14   70 1  
    78   15   71 1  
    79   15   72 1  
    80   16   73 1  
    81   16   74 1  
    82   17   75 1  
    83   21   76 1  
    84   21   77 1  
    85   22   78 1  
    86   22   79 1  
    87   25   80 1  
    88   25   81 1  
    89   26   82 1  
    90   26   83 1  
    91   27   84 1  
    92   27   85 1  
    93   30   86 1  
    94   30   87 1  
    95   31   88 1  
    96   32   89 1  
    97   32   90 1  
    98   32   91 1  
    99   33   92 1  
   100   34   93 1  
   101   35   94 1  
   102   35   95 1  
   103   37   96 1  
   104   37   97 1  
   105   38   98 1  
   106   38   99 1  
   107   39  100 1  
   108   39  101 1  
   109   40  102 1  
   110   40  103 1  
   111   43  104 1  
   112   43  105 1  
   113   44  106 1  
   114   45  107 1  
   115   46  108 1  
   116   46  109 1  
   117   48  110 1  
   118   48  111 1  
   119   49  112 1  
   120   50  113 1  
@<TRIPOS>SUBSTRUCTURE
     1 41J         1

