### 
### Created by X-TOOL on Mon Sep 10 21:13:21 2018
### 

@<TRIPOS>MOLECULE
4xkb_ligand
   64    68     1     0     0
SMALL
GAST_HUCK


@<TRIPOS>ATOM
      1 CHA        -8.1560  -22.2200  -20.1330 C.2       1 DE9         0.0238
      2 CHB        -3.9020  -21.1220  -17.5950 C.2       1 DE9         0.0264
      3 CHC        -2.4320  -25.9260  -18.0420 C.2       1 DE9         0.0274
      4 CHD        -6.7640  -27.0740  -20.3590 C.2       1 DE9         0.0247
      5 NA         -5.9590  -22.0680  -18.8200 N.2       1 DE9        -0.3106
      6 C1A        -7.0170  -21.5340  -19.4620 C.2       1 DE9         0.0552
      7 C2A        -6.9190  -20.1470  -19.4010 C.2       1 DE9        -0.0347
      8 C3A        -5.7430  -19.8640  -18.7070 C.2       1 DE9        -0.0406
      9 C4A        -5.1730  -21.0740  -18.3620 C.2       1 DE9         0.0528
     10 CMA        -5.1850  -18.5150  -18.3810 C.3       1 DE9        -0.0419
     11 CAA        -7.8470  -19.1160  -19.9550 C.3       1 DE9        -0.0198
     12 CBA        -7.5260  -18.5710  -21.2990 C.3       1 DE9         0.0060
     13 CGA        -7.7100  -19.5490  -22.4040 C.2       1 DE9         0.0363
     14 O1A        -6.7460  -19.8440  -23.1550 O.co2     1 DE9        -0.5689
     15 O2A        -8.8420  -20.0780  -22.5680 O.co2     1 DE9        -0.5689
     16 NB         -3.5260  -23.6080  -17.9950 N.2       1 DE9        -0.2993
     17 C1B        -3.1500  -22.4010  -17.5470 C.2       1 DE9         0.0671
     18 C2B        -1.8820  -22.4820  -16.9890 C.2       1 DE9        -0.0379
     19 C3B        -1.4900  -23.8080  -17.1150 C.2       1 DE9        -0.0603
     20 C4B        -2.5330  -24.4770  -17.7430 C.2       1 DE9         0.0499
     21 CMB        -1.0860  -21.3740  -16.3780 C.3       1 DE9        -0.0380
     22 NC         -4.7490  -26.1570  -19.0680 N.2       1 DE9        -0.2985
     23 C1C        -3.4970  -26.5680  -18.8480 C.2       1 DE9         0.0683
     24 C2C        -3.2930  -27.7640  -19.5060 C.2       1 DE9        -0.0371
     25 C3C        -4.4820  -28.0730  -20.1500 C.2       1 DE9        -0.0597
     26 C4C        -5.3720  -27.0560  -19.8530 C.2       1 DE9         0.0502
     27 CMC        -2.0370  -28.5630  -19.5360 C.3       1 DE9        -0.0377
     28 ND         -7.1120  -24.5740  -20.0490 N.2       1 DE9        -0.3097
     29 C1D        -7.4810  -25.7880  -20.4870 C.2       1 DE9         0.0560
     30 C2D        -8.7300  -25.7000  -21.1070 C.2       1 DE9        -0.0383
     31 C3D        -9.0930  -24.3710  -21.0270 C.2       1 DE9        -0.0358
     32 C4D        -8.0750  -23.6910  -20.3760 C.2       1 DE9         0.0535
     33 CMD        -9.5340  -26.7870  -21.7460 C.3       1 DE9        -0.0433
     34 CAD       -10.3330  -23.7680  -21.5900 C.3       1 DE9        -0.0181
     35 CBD       -10.0560  -23.1160  -22.9050 C.3       1 DE9         0.0069
     36 CGD       -11.1780  -22.8500  -23.8400 C.2       1 DE9         0.0364
     37 O1D       -12.3230  -23.2610  -23.5540 O.co2     1 DE9        -0.5689
     38 O2D       -10.9720  -22.2190  -24.9180 O.co2     1 DE9        -0.5689
     39 H          -9.0313  -21.6594  -20.4406 H         1 DE9         0.1383
     40 H          -3.5316  -20.2422  -17.0814 H         1 DE9         0.1387
     41 H          -1.5924  -26.5064  -17.6768 H         1 DE9         0.1395
     42 H          -7.2449  -28.0073  -20.6287 H         1 DE9         0.1390
     43 H          -5.8510  -17.7363  -18.7811 H         1 DE9         0.0352
     44 H          -4.1874  -18.4119  -18.8328 H         1 DE9         0.0352
     45 H          -5.1064  -18.4047  -17.2894 H         1 DE9         0.0352
     46 H          -7.8636  -18.2717  -19.2501 H         1 DE9         0.0392
     47 H          -8.8487  -19.5670  -20.0107 H         1 DE9         0.0392
     48 H          -6.4762  -18.2425  -21.2982 H         1 DE9         0.0448
     49 H          -8.1803  -17.7073  -21.4881 H         1 DE9         0.0448
     50 H          -0.5509  -24.2384  -16.7866 H         1 DE9         0.0358
     51 H          -1.6634  -20.4389  -16.4246 H         1 DE9         0.0369
     52 H          -0.1436  -21.2510  -16.9318 H         1 DE9         0.0369
     53 H          -0.8654  -21.6167  -15.3281 H         1 DE9         0.0369
     54 H          -4.6764  -28.9430  -20.7667 H         1 DE9         0.0359
     55 H          -1.2687  -28.0613  -18.9293 H         1 DE9         0.0370
     56 H          -1.6839  -28.6523  -20.5739 H         1 DE9         0.0370
     57 H          -2.2303  -29.5656  -19.1269 H         1 DE9         0.0370
     58 H          -8.9948  -27.7417  -21.6584 H         1 DE9         0.0340
     59 H          -9.6908  -26.5507  -22.8088 H         1 DE9         0.0340
     60 H         -10.5077  -26.8682  -21.2408 H         1 DE9         0.0340
     61 H         -10.7184  -23.0141  -20.8878 H         1 DE9         0.0405
     62 H         -11.0862  -24.5573  -21.7304 H         1 DE9         0.0405
     63 H          -9.3418  -23.7610  -23.4377 H         1 DE9         0.0449
     64 H          -9.5836  -22.1466  -22.6882 H         1 DE9         0.0449
@<TRIPOS>BOND
     1    6    1 1  
     2    1   32 2  
     3    2    9 2  
     4   17    2 1  
     5    3   20 2  
     6   23    3 1  
     7   26    4 2  
     8    4   29 1  
     9    5    6 2  
    10    9    5 1  
    11    7    6 1  
    12    8    7 2  
    13    7   11 1  
    14    9    8 1  
    15    8   10 1  
    16   11   12 1  
    17   12   13 1  
    18   13   14 ar 
    19   13   15 ar 
    20   16   17 2  
    21   20   16 1  
    22   18   17 1  
    23   19   18 2  
    24   18   21 1  
    25   20   19 1  
    26   22   23 2  
    27   22   26 1  
    28   23   24 1  
    29   24   25 2  
    30   24   27 1  
    31   25   26 1  
    32   29   28 2  
    33   28   32 1  
    34   29   30 1  
    35   30   31 2  
    36   30   33 1  
    37   31   32 1  
    38   31   34 1  
    39   34   35 1  
    40   35   36 1  
    41   36   37 ar 
    42   36   38 ar 
    43    1   39 1  
    44    2   40 1  
    45    3   41 1  
    46    4   42 1  
    47   10   43 1  
    48   10   44 1  
    49   10   45 1  
    50   11   46 1  
    51   11   47 1  
    52   12   48 1  
    53   12   49 1  
    54   19   50 1  
    55   21   51 1  
    56   21   52 1  
    57   21   53 1  
    58   25   54 1  
    59   27   55 1  
    60   27   56 1  
    61   27   57 1  
    62   33   58 1  
    63   33   59 1  
    64   33   60 1  
    65   34   61 1  
    66   34   62 1  
    67   35   63 1  
    68   35   64 1  
@<TRIPOS>SUBSTRUCTURE
     1 DE9         1

