### 
### Created by X-TOOL on Mon Sep 10 21:13:24 2018
### 

@<TRIPOS>MOLECULE
4xkx_ligand
   49    54     1     0     0
SMALL
GAST_HUCK


@<TRIPOS>ATOM
      1 C28        64.3530   51.2100   10.7030 C.ar      1 43K         0.0103
      2 C29        63.0920   51.4920   11.2370 C.ar      1 43K         0.2120
      3 F33        62.0180   50.9690   10.6360 F         1 43K        -0.1542
      4 N30        62.9200   52.2640   12.3230 N.ar      1 43K        -0.2669
      5 C31        63.9770   52.8010   12.9340 C.ar      1 43K         0.0050
      6 C32        65.2710   52.5630   12.4420 C.ar      1 43K        -0.0331
      7 C15        65.4890   51.7620   11.3070 C.ar      1 43K         0.0126
      8 C12        66.7990   51.5160   10.8280 C.ar      1 43K         0.0704
      9 C14        67.0990   50.5120    9.8840 C.ar      1 43K        -0.0199
     10 N11        67.8190   52.2670   11.3090 N.ar      1 43K        -0.2706
     11 C10        69.0710   52.0660   10.9320 C.ar      1 43K         0.0761
     12 C9         69.4100   51.1040   10.0050 C.ar      1 43K         0.1838
     13 O8         70.7160   50.9920    9.6970 O.3       1 43K        -0.2001
     14 C13        68.4100   50.2960    9.4510 C.ar      1 43K         0.0252
     15 C21        68.7450   49.2130    8.4150 C.3       1 43K         0.1215
     16 C16        68.3360   47.8210    8.8880 C.3       1 43K         0.0516
     17 O17        67.4890   47.2660    7.8310 O.3       1 43K        -0.3341
     18 C18        67.1990   48.2990    6.9760 C.cat     1 43K         0.3380
     19 N19        67.8800   49.4120    7.2290 N.pl3     1 43K        -0.2926
     20 N20        66.3040   48.1680    6.0030 N.pl3     1 43K        -0.2518
     21 C5         70.2420   49.2460    8.0520 C.ar      1 43K         0.0112
     22 C6         70.7460   48.3890    7.0720 C.ar      1 43K        -0.0447
     23 C4         71.1200   50.1150    8.7290 C.ar      1 43K         0.1613
     24 C3         72.4660   50.1210    8.4170 C.ar      1 43K         0.0042
     25 C2         72.9540   49.2650    7.4340 C.ar      1 43K        -0.0367
     26 C1         72.1020   48.3970    6.7590 C.ar      1 43K         0.0019
     27 C7         72.6210   47.5430    5.7810 C.ar      1 43K         0.0487
     28 C22        73.6400   46.6490    6.1220 C.ar      1 43K        -0.0393
     29 C23        74.1380   45.8000    5.1460 C.ar      1 43K        -0.0418
     30 C24        73.6170   45.8510    3.8560 C.ar      1 43K         0.0044
     31 N25        72.6420   46.6920    3.5520 N.ar      1 43K        -0.2652
     32 C26        72.1460   47.5370    4.4610 C.ar      1 43K         0.2214
     33 F27        71.1790   48.3820    4.0680 F         1 43K        -0.1516
     34 H1         64.4499   50.5719    9.8321 H         1 43K         0.0678
     35 H2         63.8373   53.4220   13.8115 H         1 43K         0.0798
     36 H3         66.1205   53.0067   12.9486 H         1 43K         0.0657
     37 H4         66.2989   49.8974    9.4875 H         1 43K         0.0836
     38 H5         69.8546   52.6768   11.3656 H         1 43K         0.0870
     39 H6         67.7745   47.8880    9.8315 H         1 43K         0.0421
     40 H7         69.2256   47.1909    9.0347 H         1 43K         0.0421
     41 H8         67.8159   50.2826    6.6823 H         1 43K         0.3039
     42 H9         66.1059   48.9603    5.3754 H         1 43K         0.3201
     43 H10        65.8082   47.2741    5.8762 H         1 43K         0.3201
     44 H11        70.0770   47.7132    6.5516 H         1 43K         0.0732
     45 H12        73.1408   50.7913    8.9370 H         1 43K         0.0643
     46 H13        74.0105   49.2748    7.1916 H         1 43K         0.0777
     47 H14        74.0337   46.6202    7.1316 H         1 43K         0.0715
     48 H15        74.9296   45.0995    5.3861 H         1 43K         0.0647
     49 H16        74.0150   45.1937    3.0914 H         1 43K         0.0793
@<TRIPOS>BOND
     1    1    2 ar 
     2    1    7 ar 
     3    2    3 1  
     4    2    4 ar 
     5    4    5 ar 
     6    5    6 ar 
     7    6    7 ar 
     8    7    8 1  
     9    8    9 ar 
    10    8   10 ar 
    11    9   14 ar 
    12   10   11 ar 
    13   11   12 ar 
    14   12   13 1  
    15   12   14 ar 
    16   13   23 1  
    17   14   15 1  
    18   15   16 1  
    19   15   19 1  
    20   15   21 1  
    21   16   17 1  
    22   17   18 1  
    23   18   19 ar 
    24   18   20 ar 
    25   21   22 ar 
    26   21   23 ar 
    27   22   26 ar 
    28   23   24 ar 
    29   24   25 ar 
    30   25   26 ar 
    31   26   27 1  
    32   27   28 ar 
    33   27   32 ar 
    34   28   29 ar 
    35   29   30 ar 
    36   30   31 ar 
    37   31   32 ar 
    38   32   33 1  
    39    1   34 1  
    40    5   35 1  
    41    6   36 1  
    42    9   37 1  
    43   11   38 1  
    44   16   39 1  
    45   16   40 1  
    46   19   41 1  
    47   20   42 1  
    48   20   43 1  
    49   22   44 1  
    50   24   45 1  
    51   25   46 1  
    52   28   47 1  
    53   29   48 1  
    54   30   49 1  
@<TRIPOS>SUBSTRUCTURE
     1 43K         1

