### 
### Created by X-TOOL on Mon Sep 10 21:13:24 2018
### 

@<TRIPOS>MOLECULE
4xm6_ligand
   49    49     1     0     0
SMALL
GAST_HUCK


@<TRIPOS>ATOM
      1 C1         11.9880   19.3340   28.5590 C.2       1 41R         0.2211
      2 C2         10.9380   19.2250   27.4860 C.3       1 41R         0.1332
      3 C3         12.1030   17.2050   26.5890 C.3       1 41R        -0.0588
      4 O4         12.0090   18.5690   29.5120 O.2       1 41R        -0.3948
      5 O5         14.0910   20.2520   29.0930 O.3       1 41R        -0.2717
      6 C11         9.0560   19.3570   29.1300 C.3       1 41R         0.0348
      7 C12         8.3480   20.5000   29.8600 C.3       1 41R        -0.0294
      8 C13         9.3300   21.4560   30.5250 C.3       1 41R        -0.0612
      9 C19         7.5520   22.8470   27.3160 C.ar      1 41R        -0.0357
     10 C20         7.4810   24.2010   27.6540 C.ar      1 41R        -0.0105
     11 C21         8.6320   24.9300   27.8830 C.ar      1 41R         0.1329
     12 C22         9.8730   24.3110   27.7870 C.ar      1 41R        -0.0331
     13 N3         12.8890   20.2960   28.3950 N.am      1 41R        -0.1626
     14 C6         10.7850   17.7410   27.1450 C.3       1 41R        -0.0095
     15 N7          9.6260   19.7870   27.8430 N.am      1 41R        -0.2123
     16 S8          8.9320   20.6700   26.8120 S.o2      1 41R         0.0694
     17 O9          7.6270   20.1440   26.5200 O.2       1 41R        -0.1506
     18 O10         9.7300   20.6080   25.6200 O.2       1 41R        -0.1506
     19 C17         7.3450   19.9730   30.8820 C.3       1 41R        -0.0612
     20 C18         8.7950   22.2190   27.2200 C.ar      1 41R         0.0979
     21 C23         9.9450   22.9620   27.4550 C.ar      1 41R        -0.0440
     22 F24         8.5330   26.2380   28.1990 F         1 41R        -0.1891
     23 C25         6.1620   24.9200   27.7560 C.3       1 41R        -0.0303
     24 C4          9.6330   17.4230   26.1980 C.3       1 41R        -0.0588
     25 H1         11.3007   19.7636   26.5981 H         1 41R         0.0758
     26 H2         11.9910   16.1384   26.3445 H         1 41R         0.0234
     27 H3         12.8954   17.3273   27.3420 H         1 41R         0.0234
     28 H4         12.3716   17.7632   25.6800 H         1 41R         0.0234
     29 H5         14.6174   21.0086   28.8628 H         1 41R         0.2490
     30 H6          8.3299   18.5518   28.9443 H         1 41R         0.0482
     31 H7          9.8681   18.9785   29.7681 H         1 41R         0.0482
     32 H8          7.7875   21.0724   29.1062 H         1 41R         0.0311
     33 H9          8.7741   22.2569   31.0344 H         1 41R         0.0233
     34 H10         9.9884   21.8953   29.7611 H         1 41R         0.0233
     35 H11         9.9366   20.9062   31.2597 H         1 41R         0.0233
     36 H12         6.6438   22.2855   27.1288 H         1 41R         0.0565
     37 H13        10.7796   24.8764   27.9698 H         1 41R         0.0586
     38 H14        12.7028   21.0530   27.7687 H         1 41R         0.2217
     39 H15        10.5775   17.2133   28.0876 H         1 41R         0.0338
     40 H16         6.6440   19.2851   30.3867 H         1 41R         0.0233
     41 H17         6.7868   20.8156   31.3161 H         1 41R         0.0233
     42 H18         7.8811   19.4384   31.6799 H         1 41R         0.0233
     43 H19        10.9143   22.4828   27.3784 H         1 41R         0.0568
     44 H20         5.3432   24.2151   27.5494 H         1 41R         0.0383
     45 H21         6.1336   25.7398   27.0232 H         1 41R         0.0383
     46 H22         6.0455   25.3303   28.7699 H         1 41R         0.0383
     47 H23         8.6950   17.8169   26.6164 H         1 41R         0.0234
     48 H24         9.5501   16.3331   26.0744 H         1 41R         0.0234
     49 H25         9.8227   17.8896   25.2201 H         1 41R         0.0234
@<TRIPOS>BOND
     1    2    1 1  
     2    1    4 2  
     3    1   13 am 
     4    2   14 1  
     5   15    2 1  
     6   14    3 1  
     7   13    5 1  
     8    6    7 1  
     9   15    6 1  
    10    7    8 1  
    11    7   19 1  
    12    9   10 ar 
    13   20    9 ar 
    14   10   11 ar 
    15   10   23 1  
    16   11   12 ar 
    17   11   22 1  
    18   12   21 ar 
    19   14   24 1  
    20   16   15 am 
    21   16   17 2  
    22   16   18 2  
    23   16   20 1  
    24   20   21 ar 
    25    2   25 1  
    26    3   26 1  
    27    3   27 1  
    28    3   28 1  
    29    5   29 1  
    30    6   30 1  
    31    6   31 1  
    32    7   32 1  
    33    8   33 1  
    34    8   34 1  
    35    8   35 1  
    36    9   36 1  
    37   12   37 1  
    38   13   38 1  
    39   14   39 1  
    40   19   40 1  
    41   19   41 1  
    42   19   42 1  
    43   21   43 1  
    44   23   44 1  
    45   23   45 1  
    46   23   46 1  
    47   24   47 1  
    48   24   48 1  
    49   24   49 1  
@<TRIPOS>SUBSTRUCTURE
     1 41R         1

