### 
### Created by X-TOOL on Mon Sep 10 21:13:25 2018
### 

@<TRIPOS>MOLECULE
4xm7_ligand
   50    50     1     0     0
SMALL
GAST_HUCK


@<TRIPOS>ATOM
      1 C1         11.0250   19.7030   27.5870 C.3       1 41S         0.1332
      2 C2         11.9110   19.6050   28.7930 C.2       1 41S         0.2211
      3 C3          5.3540   24.6600   27.8830 C.3       1 41S         0.0586
      4 O5         13.6490   20.3900   30.0700 O.3       1 41S        -0.2717
      5 N6          9.6610   20.0530   27.9510 N.am      1 41S        -0.2124
      6 C7         12.2960   17.7320   26.6870 C.3       1 41S        -0.0588
      7 C8         10.1260   18.4180   25.6240 C.3       1 41S        -0.0588
      8 C10         8.8370   22.3930   27.3840 C.ar      1 41S         0.0959
      9 C11         7.6840   23.1680   27.4240 C.ar      1 41S        -0.0081
     10 C12         7.7670   24.5210   27.7330 C.ar      1 41S         0.1260
     11 C13         8.9970   25.0970   28.0010 C.ar      1 41S         0.1596
     12 C14        10.1510   24.3230   27.9620 C.ar      1 41S        -0.0350
     13 C15        10.0720   22.9710   27.6540 C.ar      1 41S        -0.0482
     14 O17         6.6310   25.2850   27.7710 O.3       1 41S        -0.3210
     15 C19         8.5270   20.7800   29.8940 C.3       1 41S        -0.0294
     16 C18         9.2450   19.5910   29.2670 C.3       1 41S         0.0348
     17 C28        10.9170   18.3340   26.9240 C.3       1 41S        -0.0095
     18 N4         12.8770   20.5110   28.9800 N.am      1 41S        -0.1626
     19 O3         11.7780   18.5590   29.7950 O.2       1 41S        -0.3948
     20 S7          8.7420   20.8400   27.0300 S.o2      1 41S         0.0686
     21 O8          7.3900   20.3910   27.2050 O.2       1 41S        -0.1506
     22 O9          9.1420   20.6360   25.6660 O.2       1 41S        -0.1506
     23 F16         9.0750   26.4060   28.2990 F         1 41S        -0.1902
     24 C5          7.3110   20.3250   30.6910 C.3       1 41S        -0.0612
     25 C6          9.4760   21.5950   30.7640 C.3       1 41S        -0.0612
     26 H1         11.4374   20.4451   26.8875 H         1 41S         0.0758
     27 H2          4.5689   25.4303   27.8980 H         1 41S         0.0576
     28 H3          5.3121   24.0757   28.8140 H         1 41S         0.0576
     29 H4          5.1960   23.9921   27.0234 H         1 41S         0.0576
     30 H5         14.2898   21.0913   30.0823 H         1 41S         0.2490
     31 H6         12.1889   16.7471   26.2089 H         1 41S         0.0234
     32 H7         12.8165   17.6177   27.6493 H         1 41S         0.0234
     33 H8         12.8784   18.3963   26.0316 H         1 41S         0.0234
     34 H9          9.1368   18.8554   25.8243 H         1 41S         0.0234
     35 H10        10.0025   17.4089   25.2041 H         1 41S         0.0234
     36 H11        10.6678   19.0505   24.9053 H         1 41S         0.0234
     37 H12         6.7205   22.7178   27.2144 H         1 41S         0.0550
     38 H13        11.1135   24.7751   28.1722 H         1 41S         0.0575
     39 H14        10.9720   22.3675   27.6242 H         1 41S         0.0532
     40 H15         8.1737   21.4293   29.0794 H         1 41S         0.0311
     41 H16        10.1191   19.3052   29.8705 H         1 41S         0.0482
     42 H17         8.5642   18.7316   29.1777 H         1 41S         0.0482
     43 H18        10.3712   17.6687   27.6092 H         1 41S         0.0338
     44 H19        13.0192   21.2553   28.3275 H         1 41S         0.2217
     45 H20         6.8127   21.2011   31.1316 H         1 41S         0.0233
     46 H21         7.6320   19.6439   31.4929 H         1 41S         0.0233
     47 H22         6.6103   19.8016   30.0240 H         1 41S         0.0233
     48 H23        10.3432   21.9101   30.1651 H         1 41S         0.0233
     49 H24         9.8182   20.9798   31.6092 H         1 41S         0.0233
     50 H25         8.9518   22.4835   31.1457 H         1 41S         0.0233
@<TRIPOS>BOND
     1    1    2 1  
     2    5    1 1  
     3    1   17 1  
     4    2   18 am 
     5    2   19 2  
     6   14    3 1  
     7   18    4 1  
     8    5   16 1  
     9   20    5 am 
    10   17    6 1  
    11   17    7 1  
    12    9    8 ar 
    13    8   13 ar 
    14    8   20 1  
    15   10    9 ar 
    16   10   11 ar 
    17   10   14 1  
    18   11   12 ar 
    19   11   23 1  
    20   12   13 ar 
    21   16   15 1  
    22   15   24 1  
    23   15   25 1  
    24   20   21 2  
    25   20   22 2  
    26    1   26 1  
    27    3   27 1  
    28    3   28 1  
    29    3   29 1  
    30    4   30 1  
    31    6   31 1  
    32    6   32 1  
    33    6   33 1  
    34    7   34 1  
    35    7   35 1  
    36    7   36 1  
    37    9   37 1  
    38   12   38 1  
    39   13   39 1  
    40   15   40 1  
    41   16   41 1  
    42   16   42 1  
    43   17   43 1  
    44   18   44 1  
    45   24   45 1  
    46   24   46 1  
    47   24   47 1  
    48   25   48 1  
    49   25   49 1  
    50   25   50 1  
@<TRIPOS>SUBSTRUCTURE
     1 41S         1

