### 
### Created by X-TOOL on Mon Sep 10 21:13:25 2018
### 

@<TRIPOS>MOLECULE
4xm8_ligand
   53    53     1     0     0
SMALL
GAST_HUCK


@<TRIPOS>ATOM
      1 C1         11.0890   19.1830   27.4260 C.3       1 41T         0.1333
      2 C2         11.9960   19.2410   28.6280 C.2       1 41T         0.2211
      3 O5         13.8480   20.2620   29.7040 O.3       1 41T        -0.2717
      4 N6          9.6840   19.5490   27.6710 N.am      1 41T        -0.2119
      5 C7          9.0700   18.9590   28.8660 C.3       1 41T         0.0348
      6 C8          8.3190   20.0310   29.6580 C.3       1 41T        -0.0294
      7 C9          9.2740   21.0090   30.3280 C.3       1 41T        -0.0612
      8 C10         7.3720   19.4220   30.6870 C.3       1 41T        -0.0612
      9 C14         8.7690   21.9670   27.0900 C.ar      1 41T         0.1020
     10 C15         7.4920   22.5120   27.1490 C.ar      1 41T        -0.0315
     11 C16         7.3120   23.8460   27.4880 C.ar      1 41T        -0.0157
     12 C19         9.8770   22.7600   27.3640 C.ar      1 41T        -0.0421
     13 C20         5.9110   24.4130   27.5430 C.3       1 41T         0.0813
     14 C22         4.4800   26.0720   26.6770 C.3       1 41T         0.0391
     15 C24        12.5540   17.3520   26.5240 C.3       1 41T        -0.0588
     16 O3         11.9210   18.2160   29.6780 O.2       1 41T        -0.3948
     17 N4         12.9200   20.2400   28.7170 N.am      1 41T        -0.1626
     18 S11         8.9170   20.4320   26.6850 S.o2      1 41T         0.0712
     19 O12         7.5970   19.8970   26.5110 O.2       1 41T        -0.1501
     20 O13         9.5890   20.4010   25.4180 O.2       1 41T        -0.1501
     21 C17         8.4190   24.6410   27.7600 C.ar      1 41T        -0.0580
     22 C18         9.7000   24.0990   27.7010 C.ar      1 41T        -0.0666
     23 O21         5.8360   25.6820   26.8990 O.3       1 41T        -0.3705
     24 C23        11.1360   17.7260   26.9480 C.3       1 41T        -0.0095
     25 C25        10.1450   17.3530   25.8470 C.3       1 41T        -0.0588
     26 H1         11.4878   19.8515   26.6488 H         1 41T         0.0758
     27 H2         14.3996   21.0286   29.6014 H         1 41T         0.2490
     28 H3          9.8555   18.5223   29.5002 H         1 41T         0.0482
     29 H4          8.3649   18.1717   28.5612 H         1 41T         0.0482
     30 H5          7.7087   20.6000   28.9412 H         1 41T         0.0311
     31 H6          8.6968   21.7614   30.8855 H         1 41T         0.0233
     32 H7          9.8842   21.5091   29.5615 H         1 41T         0.0233
     33 H8          9.9310   20.4633   31.0213 H         1 41T         0.0233
     34 H9          6.6899   18.7189   30.1866 H         1 41T         0.0233
     35 H10         6.7877   20.2215   31.1660 H         1 41T         0.0233
     36 H11         7.9553   18.8864   31.4504 H         1 41T         0.0233
     37 H12         6.6309   21.8914   26.9289 H         1 41T         0.0577
     38 H13        10.8742   22.3378   27.3155 H         1 41T         0.0578
     39 H14         5.6129   24.5281   28.5956 H         1 41T         0.0724
     40 H15         5.2234   23.7163   27.0412 H         1 41T         0.0724
     41 H16         4.4573   27.0530   26.1798 H         1 41T         0.0526
     42 H17         3.9547   26.1375   27.6412 H         1 41T         0.0526
     43 H18         3.9837   25.3260   26.0389 H         1 41T         0.0526
     44 H19        12.5712   16.3059   26.1843 H         1 41T         0.0234
     45 H20        13.2358   17.4712   27.3789 H         1 41T         0.0234
     46 H21        12.8767   18.0093   25.7032 H         1 41T         0.0234
     47 H22        12.9125   20.9738   28.0377 H         1 41T         0.2217
     48 H23         8.2848   25.6851   28.0186 H         1 41T         0.0557
     49 H24        10.5611   24.7207   27.9179 H         1 41T         0.0600
     50 H25        10.8780   17.1067   27.8197 H         1 41T         0.0338
     51 H26         9.1271   17.6263   26.1619 H         1 41T         0.0234
     52 H27        10.1931   16.2698   25.6619 H         1 41T         0.0234
     53 H28        10.4011   17.8944   24.9243 H         1 41T         0.0234
@<TRIPOS>BOND
     1    1    2 1  
     2    4    1 1  
     3    1   24 1  
     4    2   16 2  
     5    2   17 am 
     6   17    3 1  
     7    4    5 1  
     8   18    4 am 
     9    5    6 1  
    10    6    7 1  
    11    6    8 1  
    12    9   10 ar 
    13    9   12 ar 
    14    9   18 1  
    15   10   11 ar 
    16   11   13 1  
    17   11   21 ar 
    18   12   22 ar 
    19   13   23 1  
    20   23   14 1  
    21   24   15 1  
    22   18   19 2  
    23   18   20 2  
    24   21   22 ar 
    25   24   25 1  
    26    1   26 1  
    27    3   27 1  
    28    5   28 1  
    29    5   29 1  
    30    6   30 1  
    31    7   31 1  
    32    7   32 1  
    33    7   33 1  
    34    8   34 1  
    35    8   35 1  
    36    8   36 1  
    37   10   37 1  
    38   12   38 1  
    39   13   39 1  
    40   13   40 1  
    41   14   41 1  
    42   14   42 1  
    43   14   43 1  
    44   15   44 1  
    45   15   45 1  
    46   15   46 1  
    47   17   47 1  
    48   21   48 1  
    49   22   49 1  
    50   24   50 1  
    51   25   51 1  
    52   25   52 1  
    53   25   53 1  
@<TRIPOS>SUBSTRUCTURE
     1 41T         1

