### 
### Created by X-TOOL on Mon Sep 10 21:13:23 2018
### 

@<TRIPOS>MOLECULE
4xmb_ligand
   70    73     1     0     0
SMALL
GAST_HUCK


@<TRIPOS>ATOM
      1 C11         2.8590   -2.9350  -21.5040 C.3       1 41P         0.1421
      2 C12         1.6970   -3.6440  -20.7610 C.2       1 41P         0.1990
      3 C01         5.0630   -1.7830  -29.8170 C.3       1 41P         0.0594
      4 O02         5.5550   -1.6680  -28.5060 O.3       1 41P        -0.3212
      5 C03         4.6500   -1.6960  -27.3920 C.ar      1 41P         0.0908
      6 C04         4.2360   -2.9870  -26.8220 C.ar      1 41P        -0.0313
      7 C05         3.3270   -3.0240  -25.7020 C.ar      1 41P        -0.0435
      8 C06         4.1780   -0.5390  -26.8590 C.ar      1 41P        -0.0313
      9 C07         3.2580   -0.5800  -25.7200 C.ar      1 41P        -0.0435
     10 C08         2.8490   -1.8560  -25.1670 C.ar      1 41P         0.1030
     11 S09         1.7090   -1.9220  -23.7470 S.o2      1 41P         0.0872
     12 N10         2.5700   -1.7970  -22.3590 N.am      1 41P        -0.1631
     13 N13         1.9920   -4.7670  -19.9010 N.am      1 41P        -0.2991
     14 O14         0.6170   -3.2750  -20.8890 O.2       1 41P        -0.3949
     15 C15         3.1260   -0.4860  -21.9840 C.ar      1 41P         0.0620
     16 C16         4.4340   -0.2000  -22.3890 C.ar      1 41P        -0.0676
     17 C17         5.0320    1.0660  -22.0520 C.ar      1 41P        -0.0676
     18 C18         4.3220    1.9770  -21.3260 C.ar      1 41P         0.0620
     19 N19         4.9470    3.2360  -21.0390 N.am      1 41P        -0.1631
     20 C20         5.9070    3.4150  -19.9470 C.3       1 41P         0.1421
     21 C21         5.6460    2.8340  -18.6440 C.2       1 41P         0.1990
     22 N22         5.3590    3.7210  -17.5020 N.am      1 41P        -0.2991
     23 O23         5.6720    1.6710  -18.4990 O.2       1 41P        -0.3949
     24 S24         4.5880    4.4460  -22.0780 S.o2      1 41P         0.0872
     25 C25         5.5490    4.0970  -23.5700 C.ar      1 41P         0.1030
     26 C26         6.7860    4.6410  -23.7190 C.ar      1 41P        -0.0435
     27 C27         7.5270    4.3660  -24.8520 C.ar      1 41P        -0.0313
     28 C28         7.0120    3.5230  -25.8410 C.ar      1 41P         0.0908
     29 O29         7.7510    3.2640  -26.9470 O.3       1 41P        -0.3212
     30 C30         8.9620    2.5400  -26.8120 C.3       1 41P         0.0594
     31 C31         5.7730    2.9660  -25.6920 C.ar      1 41P        -0.0313
     32 C32         5.0290    3.2360  -24.5620 C.ar      1 41P        -0.0435
     33 O33         4.8630    5.7230  -21.5270 O.2       1 41P        -0.1459
     34 O34         3.1750    4.5460  -22.3780 O.2       1 41P        -0.1459
     35 C35         2.9740    1.6950  -20.9190 C.ar      1 41P        -0.0044
     36 C36         2.3890    0.4520  -21.2490 C.ar      1 41P        -0.0044
     37 C37         1.0770    0.1660  -20.8410 C.ar      1 41P        -0.0620
     38 C38         0.3420    1.1140  -20.1070 C.ar      1 41P        -0.0689
     39 C39         0.9360    2.3820  -19.7690 C.ar      1 41P        -0.0689
     40 C40         2.2220    2.6650  -20.1660 C.ar      1 41P        -0.0620
     41 O41         0.8940   -3.1520  -23.7770 O.2       1 41P        -0.1459
     42 O42         0.6920   -0.9100  -23.8510 O.2       1 41P        -0.1459
     43 H1          3.3464   -3.6935  -22.1342 H         1 41P         0.0795
     44 H2          3.5655   -2.5873  -20.7359 H         1 41P         0.0795
     45 H3          5.9011   -1.7404  -30.5282 H         1 41P         0.0577
     46 H4          4.3666   -0.9564  -30.0211 H         1 41P         0.0577
     47 H5          4.5363   -2.7422  -29.9282 H         1 41P         0.0577
     48 H6          4.6140   -3.9114  -27.2436 H         1 41P         0.0542
     49 H7          3.0219   -3.9762  -25.2834 H         1 41P         0.0608
     50 H8          4.4821    0.4141  -27.2764 H         1 41P         0.0542
     51 H9          2.8835    0.3425  -25.2912 H         1 41P         0.0608
     52 H10         1.2521   -5.2333  -19.4160 H         1 41P         0.1815
     53 H11         2.9360   -5.0780  -19.7908 H         1 41P         0.1815
     54 H12         4.9977   -0.9315  -22.9567 H         1 41P         0.0369
     55 H13         6.0417    1.2940  -22.3738 H         1 41P         0.0369
     56 H14         6.0146    4.4990  -19.7945 H         1 41P         0.0795
     57 H15         6.8633    2.9968  -20.2943 H         1 41P         0.0795
     58 H16         5.1776    3.3310  -16.5992 H         1 41P         0.1815
     59 H17         5.3457    4.7127  -17.6301 H         1 41P         0.1815
     60 H18         7.1902    5.2894  -22.9501 H         1 41P         0.0608
     61 H19         8.5105    4.8051  -24.9744 H         1 41P         0.0542
     62 H20         9.4298    2.4204  -27.8004 H         1 41P         0.0577
     63 H21         8.7510    1.5489  -26.3839 H         1 41P         0.0577
     64 H22         9.6451    3.0888  -26.1470 H         1 41P         0.0577
     65 H23         5.3754    2.3130  -26.4605 H         1 41P         0.0542
     66 H24         4.0494    2.7893  -24.4358 H         1 41P         0.0608
     67 H25         0.6288   -0.7885  -21.0924 H         1 41P         0.0597
     68 H26        -0.6719    0.8904  -19.7955 H         1 41P         0.0571
     69 H27         0.3700    3.1124  -19.2023 H         1 41P         0.0571
     70 H28         2.6698    3.6189  -19.9119 H         1 41P         0.0597
@<TRIPOS>BOND
     1    1    2 1  
     2   12    1 1  
     3    2   13 am 
     4    2   14 2  
     5    4    3 1  
     6    5    4 1  
     7    6    5 ar 
     8    8    5 ar 
     9    7    6 ar 
    10   10    7 ar 
    11    9    8 ar 
    12   10    9 ar 
    13   11   10 1  
    14   11   12 am 
    15   11   41 2  
    16   11   42 2  
    17   12   15 1  
    18   15   16 ar 
    19   15   36 ar 
    20   16   17 ar 
    21   17   18 ar 
    22   18   19 1  
    23   18   35 ar 
    24   19   20 1  
    25   19   24 am 
    26   20   21 1  
    27   21   22 am 
    28   21   23 2  
    29   24   25 1  
    30   24   33 2  
    31   24   34 2  
    32   25   26 ar 
    33   25   32 ar 
    34   26   27 ar 
    35   27   28 ar 
    36   28   29 1  
    37   28   31 ar 
    38   29   30 1  
    39   31   32 ar 
    40   35   36 ar 
    41   35   40 ar 
    42   36   37 ar 
    43   37   38 ar 
    44   38   39 ar 
    45   39   40 ar 
    46    1   43 1  
    47    1   44 1  
    48    3   45 1  
    49    3   46 1  
    50    3   47 1  
    51    6   48 1  
    52    7   49 1  
    53    8   50 1  
    54    9   51 1  
    55   13   52 1  
    56   13   53 1  
    57   16   54 1  
    58   17   55 1  
    59   20   56 1  
    60   20   57 1  
    61   22   58 1  
    62   22   59 1  
    63   26   60 1  
    64   27   61 1  
    65   30   62 1  
    66   30   63 1  
    67   30   64 1  
    68   31   65 1  
    69   32   66 1  
    70   37   67 1  
    71   38   68 1  
    72   39   69 1  
    73   40   70 1  
@<TRIPOS>SUBSTRUCTURE
     1 41P         1

