### 
### Created by X-TOOL on Mon Sep 10 21:13:23 2018
### 

@<TRIPOS>MOLECULE
4xmo_ligand
   48    52     1     0     0
SMALL
GAST_HUCK


@<TRIPOS>ATOM
      1 C22        28.2660   32.0700   60.4490 C.3       1 46G        -0.0257
      2 C21        27.0260   31.8420   59.6040 C.2       1 46G         0.0248
      3 C20        26.2650   30.7420   59.6180 C.2       1 46G        -0.0216
      4 N5         26.5630   32.7450   58.7550 N.2       1 46G        -0.1569
      5 O2         25.4180   32.1930   58.1870 O.3       1 46G        -0.1758
      6 C7         25.2570   30.9680   58.7640 C.2       1 46G         0.1612
      7 C1         24.2370   30.1360   58.3300 C.2       1 46G         0.0833
      8 C2         24.1480   28.8190   58.7730 C.2       1 46G         0.0102
      9 C3         23.1630   27.9680   58.2880 C.2       1 46G         0.2096
     10 F1         23.0760   26.7020   58.7280 F         1 46G        -0.1709
     11 C5         23.3490   30.5980   57.3500 C.2       1 46G         0.1219
     12 N1         22.3660   29.7250   56.8800 N.pl3     1 46G        -0.1578
     13 C4         22.2660   28.4160   57.3240 C.2       1 46G         0.2350
     14 N2         21.2430   27.8560   56.6830 N.2       1 46G        -0.2072
     15 N3         20.7070   28.6720   55.8940 N.2       1 46G        -0.2171
     16 C6         21.3450   29.8320   55.9660 C.2       1 46G         0.1441
     17 C8         21.0470   31.1090   55.2020 C.3       1 46G         0.1108
     18 C18        20.2060   30.7610   53.9500 C.3       1 46G        -0.0796
     19 F2         22.2070   31.6750   54.9090 F         1 46G        -0.3342
     20 C9         20.2560   32.0380   56.1450 C.ar      1 46G        -0.0589
     21 C14        20.8140   33.2190   56.6260 C.ar      1 46G        -0.0406
     22 C13        20.0710   34.0410   57.4860 C.ar      1 46G         0.0172
     23 C17        20.5990   35.2330   57.9820 C.ar      1 46G         0.0008
     24 C16        19.8000   36.0040   58.8410 C.ar      1 46G         0.1275
     25 O1         20.1890   37.1910   59.3960 O.3       1 46G        -0.3124
     26 C19        21.6070   37.3390   59.6110 C.3       1 46G         0.0609
     27 C15        18.5220   35.5620   59.1520 C.ar      1 46G         0.0505
     28 N4         18.0360   34.4350   58.6660 N.ar      1 46G        -0.2895
     29 C12        18.7700   33.6680   57.8450 C.ar      1 46G         0.0514
     30 C11        18.2200   32.4860   57.3740 C.ar      1 46G        -0.0365
     31 C10        18.9580   31.6720   56.5200 C.ar      1 46G        -0.0617
     32 H1         28.4524   31.1836   61.0731 H         1 46G         0.0376
     33 H2         28.1136   32.9475   61.0946 H         1 46G         0.0376
     34 H3         29.1307   32.2441   59.7918 H         1 46G         0.0376
     35 H4         26.4315   29.8411   60.2068 H         1 46G         0.0384
     36 H5         24.8604   28.4510   59.5099 H         1 46G         0.0761
     37 H6         23.4236   31.6136   56.9641 H         1 46G         0.1409
     38 H7         19.9849   31.6813   53.3894 H         1 46G         0.0064
     39 H8         19.2639   30.2862   54.2614 H         1 46G         0.0064
     40 H9         20.7715   30.0684   53.3093 H         1 46G         0.0064
     41 H10        21.8195   33.5025   56.3369 H         1 46G         0.0843
     42 H11        21.5982   35.5549   57.7118 H         1 46G         0.0703
     43 H12        21.8092   38.3233   60.0584 H         1 46G         0.0579
     44 H13        22.1342   37.2583   58.6489 H         1 46G         0.0579
     45 H14        21.9595   36.5484   60.2897 H         1 46G         0.0579
     46 H15        17.9048   36.1595   59.8132 H         1 46G         0.0884
     47 H16        17.2181   32.1966   57.6700 H         1 46G         0.0655
     48 H17        18.5263   30.7515   56.1440 H         1 46G         0.0674
@<TRIPOS>BOND
     1    1    2 1  
     2    2    3 1  
     3    2    4 2  
     4    3    6 2  
     5    4    5 1  
     6    5    6 1  
     7    6    7 1  
     8    7    8 1  
     9    7   11 2  
    10    8    9 2  
    11    9   10 1  
    12    9   13 1  
    13   11   12 1  
    14   12   13 1  
    15   12   16 1  
    16   13   14 2  
    17   14   15 1  
    18   15   16 2  
    19   16   17 1  
    20   17   18 1  
    21   17   19 1  
    22   17   20 1  
    23   20   21 ar 
    24   20   31 ar 
    25   21   22 ar 
    26   22   23 ar 
    27   22   29 ar 
    28   23   24 ar 
    29   24   25 1  
    30   24   27 ar 
    31   25   26 1  
    32   27   28 ar 
    33   28   29 ar 
    34   29   30 ar 
    35   30   31 ar 
    36    1   32 1  
    37    1   33 1  
    38    1   34 1  
    39    3   35 1  
    40    8   36 1  
    41   11   37 1  
    42   18   38 1  
    43   18   39 1  
    44   18   40 1  
    45   21   41 1  
    46   23   42 1  
    47   26   43 1  
    48   26   44 1  
    49   26   45 1  
    50   27   46 1  
    51   30   47 1  
    52   31   48 1  
@<TRIPOS>SUBSTRUCTURE
     1 46G         1

