### 
### Created by X-TOOL on Mon Sep 10 21:13:20 2018
### 

@<TRIPOS>MOLECULE
4xmr_ligand
   22    21     1     0     0
SMALL
GAST_HUCK


@<TRIPOS>ATOM
      1 N         -13.3440  -29.2240  -40.4810 N.4       1 ILE         0.2329
      2 CA        -13.0980  -30.6610  -40.4570 C.3       1 ILE         0.0309
      3 C         -12.6380  -31.0790  -41.8380 C.2       1 ILE         0.0847
      4 O         -12.8580  -30.3520  -42.8190 O.co2     1 ILE        -0.5642
      5 CB        -14.3610  -31.4490  -40.0220 C.3       1 ILE         0.0110
      6 CG1       -13.9980  -32.8780  -39.6240 C.3       1 ILE        -0.0466
      7 CG2       -15.4200  -31.4500  -41.1130 C.3       1 ILE        -0.0557
      8 CD1       -15.1390  -33.6040  -38.9750 C.3       1 ILE        -0.0647
      9 OXT       -12.0300  -32.1310  -41.9800 O.co2     1 ILE        -0.5642
     10 H1        -12.5049  -28.7442  -40.7670 H         1 ILE         0.2010
     11 H2        -13.6113  -28.9134  -39.5601 H         1 ILE         0.2010
     12 H3        -14.0858  -29.0209  -41.1326 H         1 ILE         0.2010
     13 H4        -12.2957  -30.8723  -39.7348 H         1 ILE         0.1027
     14 H5        -14.7849  -30.9469  -39.1398 H         1 ILE         0.0371
     15 H6        -13.1552  -32.8437  -38.9179 H         1 ILE         0.0268
     16 H7        -13.6976  -33.4296  -40.5270 H         1 ILE         0.0268
     17 H8        -15.6671  -30.4132  -41.3850 H         1 ILE         0.0235
     18 H9        -16.3240  -31.9582  -40.7461 H         1 ILE         0.0235
     19 H10       -15.0351  -31.9792  -41.9972 H         1 ILE         0.0235
     20 H11       -14.8219  -34.6236  -38.7106 H         1 ILE         0.0230
     21 H12       -15.9871  -33.6534  -39.6738 H         1 ILE         0.0230
     22 H13       -15.4447  -33.0675  -38.0647 H         1 ILE         0.0230
@<TRIPOS>BOND
     1    1    2 1  
     2    2    3 1  
     3    2    5 1  
     4    3    4 ar 
     5    3    9 ar 
     6    5    6 1  
     7    5    7 1  
     8    6    8 1  
     9    1   10 1  
    10    1   11 1  
    11    1   12 1  
    12    2   13 1  
    13    5   14 1  
    14    6   15 1  
    15    6   16 1  
    16    7   17 1  
    17    7   18 1  
    18    7   19 1  
    19    8   20 1  
    20    8   21 1  
    21    8   22 1  
@<TRIPOS>SUBSTRUCTURE
     1 ILE         1

