### 
### Created by X-TOOL on Mon Sep 10 21:13:24 2018
### 

@<TRIPOS>MOLECULE
4xnv_ligand
   54    56     1     0     0
SMALL
GAST_HUCK


@<TRIPOS>ATOM
      1 FAE       -22.5160   34.0540   10.7980 F         1 BUR        -0.1404
      2 CBF       -22.7660   35.3220   10.3670 C.3       1 BUR         0.5436
      3 FAF       -23.5650   35.8930   11.2610 F         1 BUR        -0.1404
      4 FAG       -23.4280   35.2650    9.1090 F         1 BUR        -0.1404
      5 OAW       -21.5360   36.1000   10.2850 O.3       1 BUR        -0.2361
      6 CAZ       -20.5940   35.6690    9.3840 C.ar      1 BUR         0.0850
      7 CAQ       -19.5640   34.8070    9.7910 C.ar      1 BUR        -0.0457
      8 CAO       -18.6000   34.3800    8.8660 C.ar      1 BUR        -0.0493
      9 CAR       -20.6230   36.1300    8.0580 C.ar      1 BUR        -0.0457
     10 CAP       -19.6600   35.6910    7.1410 C.ar      1 BUR        -0.0493
     11 CAY       -18.6270   34.8120    7.5280 C.ar      1 BUR         0.0565
     12 NAT       -17.6330   34.3700    6.7110 N.am      1 BUR        -0.2204
     13 CAX       -17.3440   34.8680    5.4730 C.2       1 BUR         0.3148
     14 OAD       -18.0370   35.7350    4.9310 O.2       1 BUR        -0.3812
     15 NAU       -16.3060   34.2680    4.8190 N.am      1 BUR        -0.2080
     16 CBA       -15.8080   34.7010    3.6250 C.ar      1 BUR         0.1355
     17 CAL       -16.5500   35.3320    2.6060 C.ar      1 BUR        -0.0272
     18 CAJ       -15.9280   35.7680    1.4300 C.ar      1 BUR        -0.0584
     19 CAK       -14.5550   35.5680    1.2670 C.ar      1 BUR        -0.0146
     20 NAS       -13.8230   34.9420    2.3020 N.ar      1 BUR        -0.2828
     21 CBC       -14.4310   34.5030    3.4320 C.ar      1 BUR         0.2264
     22 OAV       -13.7630   33.8670    4.4600 O.3       1 BUR        -0.2176
     23 CBB       -12.5410   33.2550    4.2600 C.ar      1 BUR         0.1488
     24 CAM       -12.3390   32.3740    3.1820 C.ar      1 BUR         0.0040
     25 CAH       -11.1010   31.7660    2.9770 C.ar      1 BUR        -0.0416
     26 CAI       -10.0710   31.9740    3.8900 C.ar      1 BUR        -0.0433
     27 CAN       -10.2820   32.8140    4.9860 C.ar      1 BUR        -0.0475
     28 CBD       -11.5080   33.4680    5.2240 C.ar      1 BUR        -0.0168
     29 CBE       -11.6170   34.3330    6.3890 C.3       1 BUR        -0.0539
     30 CAC       -12.7190   33.8630    7.3560 C.3       1 BUR        -0.0911
     31 CAA       -10.3040   34.3800    7.2020 C.3       1 BUR        -0.0911
     32 CAB       -11.9180   35.7830    5.9790 C.3       1 BUR        -0.0911
     33 H1        -19.5135   34.4711   10.8204 H         1 BUR         0.0506
     34 H2        -17.8177   33.7028    9.1893 H         1 BUR         0.0477
     35 H3        -21.3918   36.8266    7.7438 H         1 BUR         0.0506
     36 H4        -19.7094   36.0334    6.1137 H         1 BUR         0.0477
     37 H5        -17.0663   33.6170    7.0454 H         1 BUR         0.2225
     38 H6        -15.8863   33.4639    5.2401 H         1 BUR         0.2271
     39 H7        -17.6159   35.4816    2.7346 H         1 BUR         0.0582
     40 H8        -16.5060   36.2560    0.6536 H         1 BUR         0.0590
     41 H9        -14.0574   35.8886    0.3589 H         1 BUR         0.0655
     42 H10       -13.1566   32.1650    2.5017 H         1 BUR         0.0637
     43 H11       -10.9414   31.1343    2.1107 H         1 BUR         0.0817
     44 H12        -9.1122   31.4877    3.7515 H         1 BUR         0.0624
     45 H13        -9.4674   32.9698    5.6840 H         1 BUR         0.0795
     46 H14       -12.7649   34.5442    8.2185 H         1 BUR         0.0114
     47 H15       -12.4912   32.8449    7.7046 H         1 BUR         0.0114
     48 H16       -13.6882   33.8642    6.8359 H         1 BUR         0.0114
     49 H17        -9.4816   34.7122    6.5514 H         1 BUR         0.0114
     50 H18       -10.0792   33.3771    7.5939 H         1 BUR         0.0114
     51 H19       -10.4163   35.0842    8.0395 H         1 BUR         0.0114
     52 H20       -12.8485   35.8127    5.3932 H         1 BUR         0.0114
     53 H21       -11.0886   36.1715    5.3697 H         1 BUR         0.0114
     54 H22       -12.0324   36.4028    6.8805 H         1 BUR         0.0114
@<TRIPOS>BOND
     1    1    2 1  
     2    2    3 1  
     3    2    4 1  
     4    2    5 1  
     5    5    6 1  
     6    6    7 ar 
     7    6    9 ar 
     8    7    8 ar 
     9    8   11 ar 
    10    9   10 ar 
    11   10   11 ar 
    12   11   12 1  
    13   12   13 am 
    14   13   14 2  
    15   13   15 am 
    16   15   16 1  
    17   16   17 ar 
    18   16   21 ar 
    19   17   18 ar 
    20   18   19 ar 
    21   19   20 ar 
    22   20   21 ar 
    23   21   22 1  
    24   22   23 1  
    25   23   24 ar 
    26   23   28 ar 
    27   24   25 ar 
    28   25   26 ar 
    29   26   27 ar 
    30   27   28 ar 
    31   28   29 1  
    32   29   30 1  
    33   29   31 1  
    34   29   32 1  
    35    7   33 1  
    36    8   34 1  
    37    9   35 1  
    38   10   36 1  
    39   12   37 1  
    40   15   38 1  
    41   17   39 1  
    42   18   40 1  
    43   19   41 1  
    44   24   42 1  
    45   25   43 1  
    46   26   44 1  
    47   27   45 1  
    48   30   46 1  
    49   30   47 1  
    50   30   48 1  
    51   31   49 1  
    52   31   50 1  
    53   31   51 1  
    54   32   52 1  
    55   32   53 1  
    56   32   54 1  
@<TRIPOS>SUBSTRUCTURE
     1 BUR         1

