### 
### Created by X-TOOL on Mon Sep 10 21:13:27 2018
### 

@<TRIPOS>MOLECULE
4xo8_ligand
   45    45     1     0     0
SMALL
GAST_HUCK


@<TRIPOS>ATOM
      1 O6        -22.2160   -4.3380  -10.7620 O.3       1 KGM        -0.3924
      2 C6        -22.5280   -4.9240  -12.0060 C.3       1 KGM         0.0730
      3 C5        -21.3320   -5.6830  -12.5430 C.3       1 KGM         0.1130
      4 C10       -20.9580   -5.5310  -18.9700 C.3       1 KGM        -0.0530
      5 O5        -20.2300   -4.8260  -12.6590 O.3       1 KGM        -0.3405
      6 C4        -20.9840   -6.8290  -11.6110 C.3       1 KGM         0.1119
      7 O4        -22.0380   -7.7460  -11.5850 O.3       1 KGM        -0.3865
      8 C3        -19.7140   -7.5180  -12.1130 C.3       1 KGM         0.1141
      9 O3        -19.3200   -8.5040  -11.2000 O.3       1 KGM        -0.3864
     10 C2        -18.6020   -6.4950  -12.2690 C.3       1 KGM         0.1341
     11 O2        -18.2590   -5.9540  -11.0180 O.3       1 KGM        -0.3841
     12 C1        -19.0620   -5.3720  -13.1670 C.3       1 KGM         0.1879
     13 O1        -19.2970   -5.9050  -14.4620 O.3       1 KGM        -0.3487
     14 C7        -19.5660   -4.9570  -15.4730 C.3       1 KGM         0.0508
     15 C8        -20.0720   -5.7090  -16.6870 C.3       1 KGM        -0.0294
     16 C9        -20.6800   -4.7590  -17.6970 C.3       1 KGM        -0.0510
     17 C13       -22.1000   -4.5240  -22.4590 C.3       1 KGM        -0.0653
     18 C12       -21.6630   -5.4220  -21.3230 C.3       1 KGM        -0.0559
     19 C11       -21.3670   -4.5980  -20.0880 C.3       1 KGM        -0.0533
     20 H1        -22.9735   -3.8657  -10.4368 H         1 KGM         0.2095
     21 H2        -22.8072   -4.1346  -12.7194 H         1 KGM         0.0584
     22 H3        -23.3715   -5.6185  -11.8789 H         1 KGM         0.0584
     23 H4        -21.5802   -6.0875  -13.5354 H         1 KGM         0.0647
     24 H5        -21.7700   -6.2497  -18.7854 H         1 KGM         0.0265
     25 H6        -20.0488   -6.0736  -19.2681 H         1 KGM         0.0265
     26 H7        -20.8133   -6.4390  -10.5967 H         1 KGM         0.0647
     27 H8        -22.8251   -7.3134  -11.2752 H         1 KGM         0.2100
     28 H9        -19.9163   -7.9856  -13.0879 H         1 KGM         0.0648
     29 H10       -18.5312   -8.9292  -11.5156 H         1 KGM         0.2100
     30 H11       -17.7209   -6.9828  -12.7114 H         1 KGM         0.0671
     31 H12       -17.9627   -6.6503  -10.4436 H         1 KGM         0.2101
     32 H13       -18.2858   -4.5944  -13.2207 H         1 KGM         0.0937
     33 H14       -18.6464   -4.4099  -15.7278 H         1 KGM         0.0561
     34 H15       -20.3312   -4.2468  -15.1266 H         1 KGM         0.0561
     35 H16       -20.8360   -6.4336  -16.3690 H         1 KGM         0.0287
     36 H17       -19.2323   -6.2433  -17.1554 H         1 KGM         0.0287
     37 H18       -21.6190   -4.3457  -17.3002 H         1 KGM         0.0266
     38 H19       -19.9775   -3.9387  -17.9055 H         1 KGM         0.0266
     39 H20       -22.3115   -5.1351  -23.3488 H         1 KGM         0.0230
     40 H21       -21.2982   -3.8069  -22.6889 H         1 KGM         0.0230
     41 H22       -23.0081   -3.9770  -22.1655 H         1 KGM         0.0230
     42 H23       -20.7562   -5.9689  -21.6206 H         1 KGM         0.0263
     43 H24       -22.4661   -6.1390  -21.0972 H         1 KGM         0.0263
     44 H25       -20.5493   -3.8935  -20.3002 H         1 KGM         0.0265
     45 H26       -22.2663   -4.0377  -19.7924 H         1 KGM         0.0265
@<TRIPOS>BOND
     1    2    1 1  
     2    3    2 1  
     3    5    3 1  
     4    3    6 1  
     5    4   16 1  
     6   19    4 1  
     7   12    5 1  
     8    6    7 1  
     9    8    6 1  
    10    8    9 1  
    11   10    8 1  
    12   10   11 1  
    13   12   10 1  
    14   13   12 1  
    15   14   13 1  
    16   15   14 1  
    17   16   15 1  
    18   18   17 1  
    19   18   19 1  
    20    1   20 1  
    21    2   21 1  
    22    2   22 1  
    23    3   23 1  
    24    4   24 1  
    25    4   25 1  
    26    6   26 1  
    27    7   27 1  
    28    8   28 1  
    29    9   29 1  
    30   10   30 1  
    31   11   31 1  
    32   12   32 1  
    33   14   33 1  
    34   14   34 1  
    35   15   35 1  
    36   15   36 1  
    37   16   37 1  
    38   16   38 1  
    39   17   39 1  
    40   17   40 1  
    41   17   41 1  
    42   18   42 1  
    43   18   43 1  
    44   19   44 1  
    45   19   45 1  
@<TRIPOS>SUBSTRUCTURE
     1 KGM         1

