### 
### Created by X-TOOL on Mon Sep 10 21:13:26 2018
### 

@<TRIPOS>MOLECULE
4xoc_ligand
   45    45     1     0     0
SMALL
GAST_HUCK


@<TRIPOS>ATOM
      1 O6        -55.3110   -5.1020    5.3370 O.3       1 KGM        -0.3924
      2 C6        -56.0580   -3.8860    5.3880 C.3       1 KGM         0.0730
      3 C5        -57.0020   -3.7830    4.1990 C.3       1 KGM         0.1130
      4 C10       -58.2710    2.3140    2.8620 C.3       1 KGM        -0.0530
      5 O5        -56.1470   -3.6990    3.0820 O.3       1 KGM        -0.3405
      6 C4        -57.9830   -4.9620    4.0850 C.3       1 KGM         0.1119
      7 O4        -58.9010   -4.9480    5.1500 O.3       1 KGM        -0.3865
      8 C3        -58.7650   -4.8270    2.7540 C.3       1 KGM         0.1141
      9 O3        -59.5830   -5.9650    2.5750 O.3       1 KGM        -0.3864
     10 C2        -57.7780   -4.6990    1.6060 C.3       1 KGM         0.1341
     11 O2        -56.9920   -5.8590    1.4490 O.3       1 KGM        -0.3841
     12 C1        -56.8200   -3.5440    1.8500 C.3       1 KGM         0.1879
     13 O1        -57.6260   -2.3800    1.8270 O.3       1 KGM        -0.3487
     14 C7        -56.8770   -1.1620    1.9940 C.3       1 KGM         0.0508
     15 C8        -57.8220    0.0320    2.0090 C.3       1 KGM        -0.0294
     16 C9        -57.1790    1.2680    2.6560 C.3       1 KGM        -0.0510
     17 C13       -58.9020    5.4790    4.9000 C.3       1 KGM        -0.0653
     18 C12       -59.0270    4.4060    3.8320 C.3       1 KGM        -0.0559
     19 C11       -58.0010    3.2840    3.9910 C.3       1 KGM        -0.0533
     20 H1        -55.9085   -5.8403    5.3543 H         1 KGM         0.2095
     21 H2        -55.3623   -3.0341    5.3712 H         1 KGM         0.0584
     22 H3        -56.6450   -3.8618    6.3179 H         1 KGM         0.0584
     23 H4        -57.5936   -2.8595    4.2829 H         1 KGM         0.0647
     24 H5        -59.2138    1.7897    3.0768 H         1 KGM         0.0265
     25 H6        -58.3758    2.8902    1.9309 H         1 KGM         0.0265
     26 H7        -57.4227   -5.9085    4.0958 H         1 KGM         0.0647
     27 H8        -58.4309   -5.0169    5.9727 H         1 KGM         0.2100
     28 H9        -59.3979   -3.9280    2.7901 H         1 KGM         0.0648
     29 H10       -60.0630   -5.8834    1.7592 H         1 KGM         0.2100
     30 H11       -58.3429   -4.5175    0.6798 H         1 KGM         0.0671
     31 H12       -57.5573   -6.6017    1.2719 H         1 KGM         0.2101
     32 H13       -56.0734   -3.4965    1.0436 H         1 KGM         0.0937
     33 H14       -56.1666   -1.0540    1.1611 H         1 KGM         0.0561
     34 H15       -56.3246   -1.2013    2.9444 H         1 KGM         0.0561
     35 H16       -58.7247   -0.2369    2.5772 H         1 KGM         0.0287
     36 H17       -58.1001    0.2776    0.9735 H         1 KGM         0.0287
     37 H18       -56.7365    0.9944    3.6252 H         1 KGM         0.0266
     38 H19       -56.3964    1.6703    1.9960 H         1 KGM         0.0266
     39 H20       -59.6639    6.2543    4.7317 H         1 KGM         0.0230
     40 H21       -57.9008    5.9318    4.8495 H         1 KGM         0.0230
     41 H22       -59.0508    5.0279    5.8922 H         1 KGM         0.0230
     42 H23       -58.8852    4.8738    2.8466 H         1 KGM         0.0263
     43 H24       -60.0352    3.9699    3.8893 H         1 KGM         0.0263
     44 H25       -56.9798    3.6855    3.9148 H         1 KGM         0.0265
     45 H26       -58.1272    2.7848    4.9631 H         1 KGM         0.0265
@<TRIPOS>BOND
     1    2    1 1  
     2    3    2 1  
     3    5    3 1  
     4    3    6 1  
     5    4   16 1  
     6   19    4 1  
     7   12    5 1  
     8    6    7 1  
     9    8    6 1  
    10    8    9 1  
    11   10    8 1  
    12   10   11 1  
    13   12   10 1  
    14   13   12 1  
    15   14   13 1  
    16   15   14 1  
    17   16   15 1  
    18   18   17 1  
    19   18   19 1  
    20    1   20 1  
    21    2   21 1  
    22    2   22 1  
    23    3   23 1  
    24    4   24 1  
    25    4   25 1  
    26    6   26 1  
    27    7   27 1  
    28    8   28 1  
    29    9   29 1  
    30   10   30 1  
    31   11   31 1  
    32   12   32 1  
    33   14   33 1  
    34   14   34 1  
    35   15   35 1  
    36   15   36 1  
    37   16   37 1  
    38   16   38 1  
    39   17   39 1  
    40   17   40 1  
    41   17   41 1  
    42   18   42 1  
    43   18   43 1  
    44   19   44 1  
    45   19   45 1  
@<TRIPOS>SUBSTRUCTURE
     1 KGM         1

