### 
### Created by X-TOOL on Mon Sep 10 21:13:26 2018
### 

@<TRIPOS>MOLECULE
4xoe_ligand
   45    45     1     0     0
SMALL
GAST_HUCK


@<TRIPOS>ATOM
      1 O6        -11.6130  -55.0510   -5.2910 O.3       1 KGM        -0.3924
      2 C6        -11.7920  -56.3320   -5.8560 C.3       1 KGM         0.0730
      3 C5        -10.4580  -57.0490   -6.0060 C.3       1 KGM         0.1130
      4 C10       -11.0180  -60.5390  -10.5260 C.3       1 KGM        -0.0530
      5 O5         -9.6290  -56.3150   -6.8580 O.3       1 KGM        -0.3405
      6 C4         -9.7900  -57.2220   -4.6470 C.3       1 KGM         0.1119
      7 O4        -10.5360  -58.1220   -3.8780 O.3       1 KGM        -0.3865
      8 C3         -8.3700  -57.7670   -4.8270 C.3       1 KGM         0.1141
      9 O3         -7.7010  -57.7820   -3.5970 O.3       1 KGM        -0.3864
     10 C2         -7.6060  -56.8880   -5.7960 C.3       1 KGM         0.1341
     11 O2         -7.4570  -55.5870   -5.2720 O.3       1 KGM        -0.3841
     12 C1         -8.3590  -56.8120   -7.0980 C.3       1 KGM         0.1879
     13 O1         -8.4440  -58.1210   -7.6400 O.3       1 KGM        -0.3487
     14 C7         -9.1480  -58.1970   -8.8590 C.3       1 KGM         0.0508
     15 C8         -8.9540  -59.5630   -9.4810 C.3       1 KGM        -0.0294
     16 C9         -9.8190  -59.6350  -10.7240 C.3       1 KGM        -0.0510
     17 C13       -14.4120  -60.6910  -12.1780 C.3       1 KGM        -0.0653
     18 C12       -12.9960  -61.1470  -11.8980 C.3       1 KGM        -0.0559
     19 C11       -12.2040  -60.0030  -11.3030 C.3       1 KGM        -0.0533
     20 H1        -12.4567  -54.6226   -5.2068 H         1 KGM         0.2095
     21 H2        -12.2581  -56.2270   -6.8468 H         1 KGM         0.0584
     22 H3        -12.4487  -56.9255   -5.2029 H         1 KGM         0.0584
     23 H4        -10.6335  -58.0425   -6.4443 H         1 KGM         0.0647
     24 H5        -11.2713  -60.5794   -9.4563 H         1 KGM         0.0265
     25 H6        -10.7750  -61.5504  -10.8838 H         1 KGM         0.0265
     26 H7         -9.7457  -56.2493   -4.1352 H         1 KGM         0.0647
     27 H8        -11.4156  -57.7830   -3.7604 H         1 KGM         0.2100
     28 H9         -8.4227  -58.7909   -5.2255 H         1 KGM         0.0648
     29 H10        -6.8222  -58.1214   -3.7199 H         1 KGM         0.2100
     30 H11        -6.6114  -57.3236   -5.9724 H         1 KGM         0.0671
     31 H12        -6.9797  -55.6299   -4.4517 H         1 KGM         0.2101
     32 H13        -7.8299  -56.1514   -7.8006 H         1 KGM         0.0937
     33 H14        -8.7707  -57.4260   -9.5469 H         1 KGM         0.0561
     34 H15       -10.2191  -58.0298   -8.6728 H         1 KGM         0.0561
     35 H16        -9.2571  -60.3446   -8.7688 H         1 KGM         0.0287
     36 H17        -7.8973  -59.7037   -9.7522 H         1 KGM         0.0287
     37 H18       -10.1733  -58.6230  -10.9698 H         1 KGM         0.0266
     38 H19        -9.2139  -60.0239  -11.5562 H         1 KGM         0.0266
     39 H20       -14.9865  -61.5234  -12.6104 H         1 KGM         0.0230
     40 H21       -14.3931  -59.8509  -12.8878 H         1 KGM         0.0230
     41 H22       -14.8854  -60.3674  -11.2393 H         1 KGM         0.0230
     42 H23       -12.5230  -61.4707  -12.8368 H         1 KGM         0.0263
     43 H24       -13.0153  -61.9872  -11.1884 H         1 KGM         0.0263
     44 H25       -11.8440  -59.3503  -12.1119 H         1 KGM         0.0265
     45 H26       -12.8512  -59.4256  -10.6265 H         1 KGM         0.0265
@<TRIPOS>BOND
     1    2    1 1  
     2    3    2 1  
     3    5    3 1  
     4    3    6 1  
     5    4   16 1  
     6   19    4 1  
     7   12    5 1  
     8    6    7 1  
     9    8    6 1  
    10    8    9 1  
    11   10    8 1  
    12   10   11 1  
    13   12   10 1  
    14   13   12 1  
    15   14   13 1  
    16   15   14 1  
    17   16   15 1  
    18   18   17 1  
    19   18   19 1  
    20    1   20 1  
    21    2   21 1  
    22    2   22 1  
    23    3   23 1  
    24    4   24 1  
    25    4   25 1  
    26    6   26 1  
    27    7   27 1  
    28    8   28 1  
    29    9   29 1  
    30   10   30 1  
    31   11   31 1  
    32   12   32 1  
    33   14   33 1  
    34   14   34 1  
    35   15   35 1  
    36   15   36 1  
    37   16   37 1  
    38   16   38 1  
    39   17   39 1  
    40   17   40 1  
    41   17   41 1  
    42   18   42 1  
    43   18   43 1  
    44   19   44 1  
    45   19   45 1  
@<TRIPOS>SUBSTRUCTURE
     1 KGM         1

