### 
### Created by X-TOOL on Mon Sep 10 21:13:25 2018
### 

@<TRIPOS>MOLECULE
4xqu_ligand
   87    89     1     0     0
SMALL
GAST_HUCK


@<TRIPOS>ATOM
      1 C1          5.5980   63.3970  142.9590 C.2       1 SIA         0.1041
      2 C2          5.9330   64.6800  142.2270 C.3       1 SIA         0.2208
      3 C3          5.7300   65.8890  143.1520 C.3       1 SIA         0.0353
      4 C4          6.7930   65.9440  144.2520 C.3       1 SIA         0.0850
      5 C5          8.2130   65.8530  143.6990 C.3       1 SIA         0.0964
      6 C6          8.3600   64.7090  142.6930 C.3       1 SIA         0.1143
      7 C7          9.6800   64.7930  141.9240 C.3       1 SIA         0.1114
      8 C8         10.0020   63.4930  141.1810 C.3       1 SIA         0.1065
      9 C9         11.4390   63.4870  140.6710 C.3       1 SIA         0.0727
     10 C10        10.1590   66.4760  145.0500 C.2       1 SIA         0.1733
     11 C11         9.9220   67.5410  146.0800 C.3       1 SIA         0.0257
     12 N5          9.1330   65.6590  144.8080 N.am      1 SIA        -0.2790
     13 O1A         6.2830   62.3730  142.7390 O.co2     1 SIA        -0.5426
     14 O1B         4.6220   63.3900  143.7420 O.co2     1 SIA        -0.5426
     15 O4          6.6570   67.1560  145.0030 O.3       1 SIA        -0.3893
     16 O6          7.2830   64.6720  141.7400 O.3       1 SIA        -0.3384
     17 O7          9.6210   65.8830  140.9930 O.3       1 SIA        -0.3865
     18 O8          9.8150   62.3630  142.0440 O.3       1 SIA        -0.3869
     19 O9         11.6930   62.2690  139.9600 O.3       1 SIA        -0.3924
     20 O10        11.2290   66.3610  144.4740 O.2       1 SIA        -0.3974
     21 C1          3.8810   66.2630  137.8980 C.3       1 GAL         0.1884
     22 C2          3.8620   65.4250  139.1820 C.3       1 GAL         0.1344
     23 C3          5.0580   65.6980  140.1020 C.3       1 GAL         0.1197
     24 C4          6.3800   65.6910  139.3210 C.3       1 GAL         0.1121
     25 C5          6.2980   66.5310  138.0450 C.3       1 GAL         0.1130
     26 C6          7.5800   66.4310  137.2200 C.3       1 GAL         0.0730
     27 O2          2.6370   65.6220  139.9050 O.3       1 GAL        -0.3841
     28 O3          5.0160   64.6890  141.1230 O.3       1 GAL        -0.3380
     29 O4          6.7510   64.3440  139.0030 O.3       1 GAL        -0.3865
     30 O5          5.1640   66.1400  137.2540 O.3       1 GAL        -0.3405
     31 O6          7.3040   66.6680  135.8340 O.3       1 GAL        -0.3924
     32 C1          0.2580   68.9830  135.7220 C.3       1 NAG         0.1823
     33 C2          1.0000   68.1430  134.7190 C.3       1 NAG         0.1208
     34 C3          1.6360   67.0070  135.4880 C.3       1 NAG         0.1114
     35 C4          2.5730   67.4870  136.5780 C.3       1 NAG         0.1181
     36 C5          1.9660   68.6710  137.3530 C.3       1 NAG         0.1133
     37 C6          2.9770   69.4560  138.1850 C.3       1 NAG         0.0730
     38 C7          0.1610   68.1630  132.5250 C.2       1 NAG         0.1733
     39 C8         -0.0160   69.6500  132.4730 C.3       1 NAG         0.0257
     40 N2          0.0920   67.6380  133.7310 N.am      1 NAG        -0.2766
     41 O1         -0.5410   69.9990  135.1030 O.3       1 NAG        -0.3651
     42 O3          2.3440   66.1430  134.6010 O.3       1 NAG        -0.3867
     43 O4          2.5240   66.3380  137.4450 O.3       1 NAG        -0.3401
     44 O5          1.2770   69.5940  136.5080 O.3       1 NAG        -0.3409
     45 O6          4.2470   68.8000  138.2470 O.3       1 NAG        -0.3924
     46 O7          0.3770   67.4860  131.5400 O.2       1 NAG        -0.3974
     47 H1          4.7367   65.8178  143.6192 H         1 SIA         0.0336
     48 H2          5.7884   66.8099  142.5533 H         1 SIA         0.0336
     49 H3          6.6310   65.0902  144.9263 H         1 SIA         0.0618
     50 H4          8.4555   66.7979  143.1907 H         1 SIA         0.0608
     51 H5          8.3494   63.7664  143.2600 H         1 SIA         0.0646
     52 H6         10.4880   64.9863  142.6449 H         1 SIA         0.0647
     53 H7          9.3203   63.4042  140.3223 H         1 SIA         0.0643
     54 H8         12.1301   63.5639  141.5234 H         1 SIA         0.0584
     55 H9         11.5915   64.3427  139.9969 H         1 SIA         0.0584
     56 H10        10.8313   68.1494  146.1943 H         1 SIA         0.0467
     57 H11         9.6720   67.0710  147.0426 H         1 SIA         0.0467
     58 H12         9.0891   68.1834  145.7583 H         1 SIA         0.0467
     59 H13         8.9901   64.8783  145.4163 H         1 SIA         0.1856
     60 H14         5.7741   67.2157  145.3486 H         1 SIA         0.2099
     61 H15         8.9432   65.7121  140.3496 H         1 SIA         0.2100
     62 H16         9.9820   61.5639  141.5582 H         1 SIA         0.2100
     63 H17        11.5616   61.5302  140.5426 H         1 SIA         0.2095
     64 H18         3.9904   67.2953  138.2618 H         1 SIA         0.0938
     65 H19         3.9114   64.3679  138.8818 H         1 SIA         0.0671
     66 H20         4.9414   66.6876  140.5680 H         1 SIA         0.0650
     67 H21         7.1595   66.1245  139.9647 H         1 SIA         0.0647
     68 H22         6.1650   67.5824  138.3398 H         1 SIA         0.0647
     69 H23         8.0083   65.4246  137.3369 H         1 SIA         0.0584
     70 H24         8.3009   67.1803  137.5789 H         1 SIA         0.0584
     71 H25         1.9003   65.4515  139.3300 H         1 SIA         0.2101
     72 H26         6.7986   63.8327  139.8023 H         1 SIA         0.2100
     73 H27         6.6833   66.0207  135.5207 H         1 SIA         0.2095
     74 H28        -0.3863   68.3462  136.3460 H         1 SIA         0.0932
     75 H29         1.7776   68.7439  134.2248 H         1 SIA         0.0633
     76 H30         0.8290   66.4310  135.9643 H         1 SIA         0.0645
     77 H31         3.5812   67.7231  136.2068 H         1 SIA         0.0650
     78 H32         1.2295   68.2428  138.0489 H         1 SIA         0.0647
     79 H33         2.5852   69.5678  139.2067 H         1 SIA         0.0584
     80 H34         3.1127   70.4498  137.7335 H         1 SIA         0.0584
     81 H35         0.0575   69.9917  131.4300 H         1 SIA         0.0467
     82 H36         0.7684   70.1339  133.0735 H         1 SIA         0.0467
     83 H37        -1.0038   69.9161  132.8772 H         1 SIA         0.0467
     84 H38        -0.5662   66.9173  133.9485 H         1 SIA         0.1857
     85 H39        -0.9397   70.5398  135.7747 H         1 SIA         0.2126
     86 H40         2.6763   65.3966  135.0858 H         1 SIA         0.2100
     87 H41         4.1403   67.9424  138.6415 H         1 SIA         0.2095
@<TRIPOS>BOND
     1    2    1 1  
     2    1   13 ar 
     3    1   14 ar 
     4    2    3 1  
     5    2   16 1  
     6   28    2 1  
     7    3    4 1  
     8    4    5 1  
     9    4   15 1  
    10    6    5 1  
    11    5   12 1  
    12    6    7 1  
    13   16    6 1  
    14    7    8 1  
    15    7   17 1  
    16    8    9 1  
    17    8   18 1  
    18    9   19 1  
    19   10   11 1  
    20   12   10 am 
    21   10   20 2  
    22   21   22 1  
    23   21   30 1  
    24   43   21 1  
    25   22   23 1  
    26   22   27 1  
    27   23   24 1  
    28   23   28 1  
    29   25   24 1  
    30   24   29 1  
    31   25   26 1  
    32   30   25 1  
    33   26   31 1  
    34   33   32 1  
    35   32   41 1  
    36   32   44 1  
    37   33   34 1  
    38   40   33 1  
    39   34   35 1  
    40   34   42 1  
    41   35   36 1  
    42   35   43 1  
    43   36   37 1  
    44   44   36 1  
    45   37   45 1  
    46   38   39 1  
    47   38   40 am 
    48   38   46 2  
    49    3   47 1  
    50    3   48 1  
    51    4   49 1  
    52    5   50 1  
    53    6   51 1  
    54    7   52 1  
    55    8   53 1  
    56    9   54 1  
    57    9   55 1  
    58   11   56 1  
    59   11   57 1  
    60   11   58 1  
    61   12   59 1  
    62   15   60 1  
    63   17   61 1  
    64   18   62 1  
    65   19   63 1  
    66   21   64 1  
    67   22   65 1  
    68   23   66 1  
    69   24   67 1  
    70   25   68 1  
    71   26   69 1  
    72   26   70 1  
    73   27   71 1  
    74   29   72 1  
    75   31   73 1  
    76   32   74 1  
    77   33   75 1  
    78   34   76 1  
    79   35   77 1  
    80   36   78 1  
    81   37   79 1  
    82   37   80 1  
    83   39   81 1  
    84   39   82 1  
    85   39   83 1  
    86   40   84 1  
    87   41   85 1  
    88   42   86 1  
    89   45   87 1  
@<TRIPOS>SUBSTRUCTURE
     1 SIA         1

