### 
### Created by X-TOOL on Mon Sep 10 21:13:23 2018
### 

@<TRIPOS>MOLECULE
4xrq_ligand
   59    62     1     0     0
SMALL
GAST_HUCK


@<TRIPOS>ATOM
      1 O24        31.1810   -0.6890   -0.2870 O.2       1 1B0        -0.3959
      2 C23        29.9940   -0.4930   -0.0820 C.2       1 1B0         0.1811
      3 N4         29.0250   -1.0570   -0.8020 N.am      1 1B0        -0.2627
      4 C5         29.2610   -1.9510   -1.9220 C.3       1 1B0         0.1463
      5 C13        29.3670   -1.1050   -3.1740 C.2       1 1B0         0.2335
      6 N15        30.2220   -1.4220   -4.1550 N.am      1 1B0        -0.2210
      7 C17        31.0420   -2.5510   -4.0110 C.ar      1 1B0         0.0688
      8 C22        30.6540   -3.7770   -4.5560 C.ar      1 1B0        -0.0411
      9 C21        31.4730   -4.8970   -4.4080 C.ar      1 1B0        -0.0755
     10 C20        32.6790   -4.7950   -3.7110 C.ar      1 1B0        -0.0772
     11 C19        33.0670   -3.5700   -3.1660 C.ar      1 1B0        -0.0755
     12 C18        32.2530   -2.4450   -3.3190 C.ar      1 1B0        -0.0411
     13 C16        30.3710   -0.6520   -5.3870 C.3       1 1B0         0.0445
     14 O14        28.6440   -0.1250   -3.2690 O.2       1 1B0        -0.3819
     15 C6         28.0660   -2.9020   -2.0280 C.3       1 1B0         0.0219
     16 C7         28.0420   -3.8810   -0.8700 C.ar      1 1B0        -0.0385
     17 C12        28.7000   -5.1010   -0.9780 C.ar      1 1B0        -0.0601
     18 C11        28.6760   -5.9980    0.0890 C.ar      1 1B0        -0.0686
     19 C10        28.0070   -5.6770    1.2660 C.ar      1 1B0        -0.0687
     20 C9         27.3560   -4.4530    1.3810 C.ar      1 1B0        -0.0686
     21 C8         27.3730   -3.5640    0.3110 C.ar      1 1B0        -0.0601
     22 C25        29.5300    0.4510    1.0090 C.3       1 1B0         0.0481
     23 C1         30.0490    0.1200    2.3830 C.2       1 1B0        -0.0299
     24 C26        31.3190    0.5600    2.9920 C.ar      1 1B0        -0.0298
     25 C31        32.3390    1.3430    2.4650 C.ar      1 1B0        -0.0797
     26 C30        33.4540    1.6080    3.2570 C.ar      1 1B0        -0.0830
     27 C29        33.5300    1.0870    4.5500 C.ar      1 1B0        -0.0802
     28 C28        32.5010    0.2960    5.0610 C.ar      1 1B0        -0.0482
     29 C27        31.3790    0.0250    4.2750 C.ar      1 1B0         0.0561
     30 N3         30.2480   -0.6970    4.5140 N.pl3     1 1B0        -0.2813
     31 C2         29.4050   -0.6910    3.4480 C.2       1 1B0         0.0375
     32 C32        28.0710   -1.3830    3.3610 C.3       1 1B0        -0.0119
     33 H1         28.0775   -0.8522   -0.5562 H         1 1B0         0.1885
     34 H2         30.1881   -2.5236   -1.7716 H         1 1B0         0.0829
     35 H3         29.7165   -3.8585   -5.0940 H         1 1B0         0.0502
     36 H4         31.1729   -5.8473   -4.8345 H         1 1B0         0.0577
     37 H5         33.3131   -5.6663   -3.5934 H         1 1B0         0.0487
     38 H6         34.0019   -3.4914   -2.6229 H         1 1B0         0.0577
     39 H7         32.5591   -1.4922   -2.9024 H         1 1B0         0.0502
     40 H8         29.6755    0.2001   -5.3731 H         1 1B0         0.0550
     41 H9         30.1459   -1.2949   -6.2507 H         1 1B0         0.0550
     42 H10        31.4037   -0.2812   -5.4651 H         1 1B0         0.0550
     43 H11        28.1363   -3.4633   -2.9714 H         1 1B0         0.0474
     44 H12        27.1368   -2.3134   -2.0199 H         1 1B0         0.0474
     45 H13        29.2301   -5.3540   -1.8891 H         1 1B0         0.0557
     46 H14        29.1822   -6.9525    0.0010 H         1 1B0         0.0599
     47 H15        27.9931   -6.3792    2.0917 H         1 1B0         0.0559
     48 H16        26.8391   -4.1937    2.2979 H         1 1B0         0.0599
     49 H17        26.8597   -2.6131    0.3968 H         1 1B0         0.0557
     50 H18        28.4308    0.4249    1.0414 H         1 1B0         0.0555
     51 H19        29.8652    1.4663    0.7505 H         1 1B0         0.0555
     52 H20        32.2685    1.7393    1.4585 H         1 1B0         0.0510
     53 H21        34.2619    2.2182    2.8697 H         1 1B0         0.0500
     54 H22        34.3981    1.2995    5.1635 H         1 1B0         0.0502
     55 H23        32.5720   -0.1070    6.0648 H         1 1B0         0.0531
     56 H24        30.0550   -1.1890    5.3981 H         1 1B0         0.2218
     57 H25        27.6240   -1.1948    2.3737 H         1 1B0         0.0409
     58 H26        27.4046   -0.9946    4.1452 H         1 1B0         0.0409
     59 H27        28.2095   -2.4653    3.5004 H         1 1B0         0.0409
@<TRIPOS>BOND
     1    1    2 2  
     2    2    3 am 
     3    2   22 1  
     4    3    4 1  
     5    4    5 1  
     6    4   15 1  
     7    5    6 am 
     8    5   14 2  
     9    6    7 1  
    10    6   13 1  
    11    7    8 ar 
    12    7   12 ar 
    13    8    9 ar 
    14    9   10 ar 
    15   10   11 ar 
    16   11   12 ar 
    17   15   16 1  
    18   16   17 ar 
    19   16   21 ar 
    20   17   18 ar 
    21   18   19 ar 
    22   19   20 ar 
    23   20   21 ar 
    24   22   23 1  
    25   23   24 1  
    26   23   31 2  
    27   24   25 ar 
    28   24   29 ar 
    29   25   26 ar 
    30   26   27 ar 
    31   27   28 ar 
    32   28   29 ar 
    33   29   30 1  
    34   30   31 1  
    35   31   32 1  
    36    3   33 1  
    37    4   34 1  
    38    8   35 1  
    39    9   36 1  
    40   10   37 1  
    41   11   38 1  
    42   12   39 1  
    43   13   40 1  
    44   13   41 1  
    45   13   42 1  
    46   15   43 1  
    47   15   44 1  
    48   17   45 1  
    49   18   46 1  
    50   19   47 1  
    51   20   48 1  
    52   21   49 1  
    53   22   50 1  
    54   22   51 1  
    55   25   52 1  
    56   26   53 1  
    57   27   54 1  
    58   28   55 1  
    59   30   56 1  
    60   32   57 1  
    61   32   58 1  
    62   32   59 1  
@<TRIPOS>SUBSTRUCTURE
     1 1B0         1

