### 
### Created by X-TOOL on Mon Sep 10 21:13:25 2018
### 

@<TRIPOS>MOLECULE
4xs2_ligand
   58    61     1     0     0
SMALL
GAST_HUCK


@<TRIPOS>ATOM
      1 C01        29.9150    8.8900   -7.9880 C.ar      1 42P         0.1337
      2 N02        29.4050    8.1810   -6.9060 N.ar      1 42P        -0.2372
      3 C03        29.7310    6.8920   -6.7770 C.ar      1 42P         0.1775
      4 N04        30.5020    6.1930   -7.6100 N.ar      1 42P        -0.2476
      5 C05        31.0370    6.8280   -8.7040 C.ar      1 42P         0.1294
      6 C06        30.7670    8.2490   -9.0200 C.ar      1 42P         0.0993
      7 N07        29.5390   10.2120   -8.0230 N.pl3     1 42P        -0.2927
      8 N08        29.2310    6.2080   -5.6990 N.pl3     1 42P        -0.2894
      9 CL9        31.9670    5.6630   -9.6070 Cl        1 42P        -0.0279
     10 C10        31.3580    9.0400  -10.1860 C.2       1 42P         0.1107
     11 C11        28.6350   11.0540   -7.2150 C.3       1 42P         0.0710
     12 C12        28.9140   11.0610   -5.6890 C.3       1 42P         0.1048
     13 C13        29.7560   12.3390   -5.3980 C.3       1 42P         0.0882
     14 C14        29.4430   13.3240   -6.5700 C.3       1 42P         0.0129
     15 C15        28.6020   12.5430   -7.6190 C.3       1 42P        -0.0194
     16 O16        27.7020   11.0410   -4.9490 O.3       1 42P        -0.3869
     17 O17        29.4670   12.8870   -4.0940 O.3       1 42P        -0.3888
     18 C18        30.6630   14.0700   -7.1730 C.3       1 42P         0.0495
     19 O19        30.5540   15.4850   -7.0630 O.3       1 42P        -0.3946
     20 C20        28.1020    6.5040   -4.8460 C.3       1 42P         0.0340
     21 C21        28.1430    5.5810   -3.6260 C.3       1 42P        -0.0086
     22 C22        26.9070    5.7940   -2.7430 C.3       1 42P         0.0492
     23 O23        26.5350    4.5530   -2.1560 O.3       1 42P        -0.3829
     24 C24        25.1550    4.2450   -2.3450 C.3       1 42P         0.0364
     25 S25        32.6080    8.4460  -11.3050 S.3       1 42P        -0.0032
     26 C26        32.7370    9.9930  -12.1260 C.ar      1 42P         0.0521
     27 C27        31.8270   10.9020  -11.4970 C.ar      1 42P         0.0270
     28 N28        31.1170   10.3520  -10.4100 N.2       1 42P        -0.3068
     29 C29        33.5490   10.4020  -13.2340 C.ar      1 42P        -0.0492
     30 C30        33.4490   11.7430  -13.7320 C.ar      1 42P        -0.0712
     31 C31        32.5540   12.6730  -13.1300 C.ar      1 42P        -0.0718
     32 C32        31.7530   12.2550  -12.0190 C.ar      1 42P        -0.0566
     33 H1         29.9912   10.7339   -8.7873 H         1 42P         0.1886
     34 H2         29.7410    5.3460   -5.4587 H         1 42P         0.1886
     35 H3         27.6267   10.6418   -7.3680 H         1 42P         0.0591
     36 H4         29.5004   10.1704   -5.4190 H         1 42P         0.0643
     37 H5         30.8254   12.0825   -5.4236 H         1 42P         0.0623
     38 H6         28.7945   14.1105   -6.1566 H         1 42P         0.0349
     39 H7         27.5651   12.9103   -7.6194 H         1 42P         0.0293
     40 H8         29.0368   12.6711   -8.6212 H         1 42P         0.0293
     41 H9         27.8992   11.0613   -4.0199 H         1 42P         0.2100
     42 H10        29.6773   12.2435   -3.4276 H         1 42P         0.2099
     43 H11        30.7455   13.8056   -8.2376 H         1 42P         0.0561
     44 H12        31.5706   13.7452   -6.6431 H         1 42P         0.0561
     45 H13        31.3228   15.8914   -7.4454 H         1 42P         0.2094
     46 H14        27.1670    6.3394   -5.4015 H         1 42P         0.0529
     47 H15        28.1533    7.5524   -4.5170 H         1 42P         0.0529
     48 H16        29.0477    5.7982   -3.0392 H         1 42P         0.0307
     49 H17        28.1683    4.5350   -3.9653 H         1 42P         0.0307
     50 H18        26.0771    6.1747   -3.3565 H         1 42P         0.0560
     51 H19        27.1409    6.5206   -1.9510 H         1 42P         0.0560
     52 H20        24.9269    3.2785   -1.8718 H         1 42P         0.0523
     53 H21        24.9363    4.1869   -3.4215 H         1 42P         0.0523
     54 H22        24.5376    5.0320   -1.8874 H         1 42P         0.0523
     55 H23        34.2359    9.7005  -13.6936 H         1 42P         0.0566
     56 H24        34.0593   12.0512  -14.5732 H         1 42P         0.0560
     57 H25        32.4799   13.6860  -13.5086 H         1 42P         0.0556
     58 H26        31.0761   12.9647  -11.5572 H         1 42P         0.0566
@<TRIPOS>BOND
     1    1    2 ar 
     2    1    6 ar 
     3    1    7 1  
     4    2    3 ar 
     5    3    4 ar 
     6    3    8 1  
     7    4    5 ar 
     8    5    6 ar 
     9    5    9 1  
    10    6   10 1  
    11    7   11 1  
    12    8   20 1  
    13   10   25 1  
    14   10   28 2  
    15   11   12 1  
    16   11   15 1  
    17   12   13 1  
    18   12   16 1  
    19   13   14 1  
    20   13   17 1  
    21   14   15 1  
    22   14   18 1  
    23   18   19 1  
    24   20   21 1  
    25   21   22 1  
    26   22   23 1  
    27   23   24 1  
    28   25   26 1  
    29   26   27 ar 
    30   26   29 ar 
    31   27   28 1  
    32   27   32 ar 
    33   29   30 ar 
    34   30   31 ar 
    35   31   32 ar 
    36    7   33 1  
    37    8   34 1  
    38   11   35 1  
    39   12   36 1  
    40   13   37 1  
    41   14   38 1  
    42   15   39 1  
    43   15   40 1  
    44   16   41 1  
    45   17   42 1  
    46   18   43 1  
    47   18   44 1  
    48   19   45 1  
    49   20   46 1  
    50   20   47 1  
    51   21   48 1  
    52   21   49 1  
    53   22   50 1  
    54   22   51 1  
    55   24   52 1  
    56   24   53 1  
    57   24   54 1  
    58   29   55 1  
    59   30   56 1  
    60   31   57 1  
    61   32   58 1  
@<TRIPOS>SUBSTRUCTURE
     1 42P         1

