### 
### Created by X-TOOL on Mon Sep 10 21:13:25 2018
### 

@<TRIPOS>MOLECULE
4xsx_ligand
   31    32     1     0     0
SMALL
GAST_HUCK


@<TRIPOS>ATOM
      1 C01        35.6830  -96.3770   -5.5350 C.ar      1 42S        -0.0742
      2 C02        35.4390  -97.4410   -4.7190 C.ar      1 42S        -0.0724
      3 C03        35.2670  -98.6900   -5.2410 C.ar      1 42S        -0.0400
      4 C04        35.3160  -98.9600   -6.5730 C.ar      1 42S         0.0583
      5 C05        35.5710  -97.8780   -7.3980 C.ar      1 42S        -0.0400
      6 C06        35.7450  -96.6110   -6.8810 C.ar      1 42S        -0.0724
      7 N07        35.1480 -100.2340   -7.0930 N.pl3     1 42S        -0.2641
      8 C08        34.4340 -100.6770   -8.1830 C.2       1 42S         0.1604
      9 C09        33.6400  -99.7990   -9.0870 C.ar      1 42S         0.0498
     10 C10        32.5680  -99.0700   -8.6230 C.ar      1 42S        -0.0206
     11 C11        31.8480  -98.2690   -9.4700 C.ar      1 42S         0.0485
     12 C12        32.1590  -98.1660  -10.8120 C.ar      1 42S        -0.0318
     13 C13        33.2300  -98.8970  -11.2880 C.ar      1 42S        -0.0318
     14 C14        33.9670  -99.7080  -10.4400 C.ar      1 42S        -0.0230
     15 C15        30.7050  -97.5020   -8.9210 C.3       1 42S         0.3770
     16 F16        29.5500  -97.8290   -9.4410 F         1 42S        -0.2200
     17 F17        30.7990  -96.2270   -9.1790 F         1 42S        -0.2200
     18 F18        30.5470  -97.5880   -7.6440 F         1 42S        -0.2200
     19 N19        34.2550 -101.8560   -8.7020 N.2       1 42S        -0.1644
     20 O20        34.8270 -102.8910   -8.1390 O.3       1 42S        -0.2768
     21 H          35.8229  -95.3807   -5.1315 H         1 42S         0.0512
     22 H          35.3811  -97.2939   -3.6466 H         1 42S         0.0585
     23 H          35.0814  -99.5107   -4.5576 H         1 42S         0.0528
     24 H          35.6351  -98.0291   -8.4695 H         1 42S         0.0528
     25 H          35.9348  -95.7839   -7.5555 H         1 42S         0.0585
     26 H          35.6416 -100.9753   -6.5755 H         1 42S         0.2085
     27 H          32.2908  -99.1304   -7.5768 H         1 42S         0.0858
     28 H          31.5797  -97.5304  -11.4719 H         1 42S         0.0850
     29 H          33.4969  -98.8355  -12.3368 H         1 42S         0.0697
     30 H          34.8036 -100.2758  -10.8308 H         1 42S         0.0862
     31 H1         35.7693 -102.7701   -8.1400 H         1 42S         0.2683
@<TRIPOS>BOND
     1    1    2 ar 
     2    1    6 ar 
     3    2    3 ar 
     4    3    4 ar 
     5    4    5 ar 
     6    4    7 1  
     7    5    6 ar 
     8    7    8 1  
     9    8    9 1  
    10    8   19 2  
    11    9   10 ar 
    12    9   14 ar 
    13   10   11 ar 
    14   11   12 ar 
    15   11   15 1  
    16   12   13 ar 
    17   13   14 ar 
    18   15   16 1  
    19   15   17 1  
    20   15   18 1  
    21   19   20 1  
    22    1   21 1  
    23    2   22 1  
    24    3   23 1  
    25    5   24 1  
    26    6   25 1  
    27    7   26 1  
    28   10   27 1  
    29   12   28 1  
    30   13   29 1  
    31   14   30 1  
    32   20   31 1  
@<TRIPOS>SUBSTRUCTURE
     1 42S         1

