### 
### Created by X-TOOL on Mon Sep 10 21:13:25 2018
### 

@<TRIPOS>MOLECULE
4xsy_ligand
   47    49     1     0     0
SMALL
GAST_HUCK


@<TRIPOS>ATOM
      1 C01        35.0060  -96.4780   -5.6100 C.ar      1 42T        -0.0686
      2 C02        34.6740  -97.4690   -4.7350 C.ar      1 42T        -0.0682
      3 C03        34.4950  -98.7440   -5.1820 C.ar      1 42T        -0.0555
      4 C04        34.6220  -99.1060   -6.4900 C.ar      1 42T         0.0021
      5 C05        34.9680  -98.0970   -7.3720 C.ar      1 42T        -0.0555
      6 C06        35.1500  -96.8080   -6.9310 C.ar      1 42T        -0.0682
      7 N07        34.4590 -100.4050   -6.9600 N.2       1 42T        -0.3032
      8 C08        33.7750 -100.9100   -8.0430 C.2       1 42T         0.1573
      9 C09        32.9900 -100.0770   -8.9940 C.ar      1 42T         0.0604
     10 C10        31.9400  -99.2970   -8.5650 C.ar      1 42T        -0.0224
     11 C11        31.2290  -98.5450   -9.4650 C.ar      1 42T         0.0422
     12 C12        31.5300  -98.5330  -10.8100 C.ar      1 42T        -0.0066
     13 C13        32.5760  -99.3140  -11.2580 C.ar      1 42T         0.1026
     14 C14        33.3040 -100.0770  -10.3580 C.ar      1 42T         0.0093
     15 C07        30.1090  -97.7090   -8.9830 C.3       1 42T         0.3746
     16 F16        28.9820  -98.3400   -8.8000 F         1 42T        -0.2205
     17 F17        29.7750  -96.8070   -9.8600 F         1 42T        -0.2205
     18 F18        30.3330  -97.0710   -7.8880 F         1 42T        -0.2205
     19 N19        33.6150 -102.1140   -8.5120 N.pl3     1 42T        -0.1683
     20 O20        34.1810 -103.1350   -7.9120 O.3       1 42T        -0.2670
     21 N14        32.9250  -99.3500  -12.4890 N.am      1 42T        -0.2073
     22 C15        32.8950  -98.3410  -13.4390 C.2       1 42T         0.3179
     23 O16        32.4890  -97.1960  -13.2670 O.2       1 42T        -0.3801
     24 N17        33.3690  -98.6360  -14.7630 N.am      1 42T        -0.2124
     25 C18        33.3110  -97.5750  -15.6760 C.ar      1 42T         0.0954
     26 C19        32.1520  -97.0260  -16.2300 C.ar      1 42T         0.0598
     27 CL1        30.5460  -97.5510  -15.9260 Cl        1 42T        -0.0831
     28 C21        32.1800  -95.9580  -17.1270 C.ar      1 42T        -0.0615
     29 C22        33.3780  -95.3800  -17.5090 C.ar      1 42T        -0.0761
     30 C23        34.5640  -95.8890  -16.9770 C.ar      1 42T        -0.0615
     31 C24        34.5180  -96.9490  -16.0870 C.ar      1 42T         0.0598
     32 CL2        36.0390  -97.4970  -15.4940 Cl        1 42T        -0.0831
     33 H1         35.1517  -95.4590   -5.2701 H         1 42T         0.0560
     34 H2         34.5521  -97.2427   -3.6819 H         1 42T         0.0599
     35 H3         34.2382  -99.5103   -4.4596 H         1 42T         0.0563
     36 H4         35.0970  -98.3262   -8.4236 H         1 42T         0.0563
     37 H5         35.4133  -96.0357   -7.6447 H         1 42T         0.0599
     38 H6         31.6747  -99.2771   -7.5142 H         1 42T         0.0826
     39 H7         30.9580  -97.9238  -11.5005 H         1 42T         0.0759
     40 H8         34.1287 -100.6826  -10.7160 H         1 42T         0.0818
     41 H9         33.0433 -102.2655   -9.3553 H         1 42T         0.2293
     42 H10        33.9657 -103.9341   -8.3784 H         1 42T         0.2515
     43 H11        33.2684 -100.2321  -12.8115 H         1 42T         0.2263
     44 H12        33.7171  -99.5387  -15.0159 H         1 42T         0.2272
     45 H13        31.2497  -95.5752  -17.5308 H         1 42T         0.0584
     46 H14        33.3950  -94.5501  -18.2061 H         1 42T         0.0488
     47 H15        35.5170  -95.4563  -17.2594 H         1 42T         0.0584
@<TRIPOS>BOND
     1    1    2 ar 
     2    1    6 ar 
     3    2    3 ar 
     4    3    4 ar 
     5    4    5 ar 
     6    4    7 1  
     7    5    6 ar 
     8    7    8 2  
     9    8    9 1  
    10    8   19 1  
    11    9   10 ar 
    12    9   14 ar 
    13   10   11 ar 
    14   11   12 ar 
    15   11   15 1  
    16   12   13 ar 
    17   13   14 ar 
    18   13   21 1  
    19   15   16 1  
    20   15   17 1  
    21   15   18 1  
    22   19   20 1  
    23   21   22 am 
    24   22   23 2  
    25   22   24 am 
    26   24   25 1  
    27   25   26 ar 
    28   25   31 ar 
    29   26   27 1  
    30   26   28 ar 
    31   28   29 ar 
    32   29   30 ar 
    33   30   31 ar 
    34   31   32 1  
    35    1   33 1  
    36    2   34 1  
    37    3   35 1  
    38    5   36 1  
    39    6   37 1  
    40   10   38 1  
    41   12   39 1  
    42   14   40 1  
    43   19   41 1  
    44   20   42 1  
    45   21   43 1  
    46   24   44 1  
    47   28   45 1  
    48   29   46 1  
    49   30   47 1  
@<TRIPOS>SUBSTRUCTURE
     1 42T         1

