### 
### Created by X-TOOL on Mon Sep 10 21:13:25 2018
### 

@<TRIPOS>MOLECULE
4xsz_ligand
   56    59     1     0     0
SMALL
GAST_HUCK


@<TRIPOS>ATOM
      1 C01        34.9930  -96.7500   -5.7620 C.ar      1 42U         0.1332
      2 F02        35.2530  -95.5820   -5.1860 F         1 42U        -0.1826
      3 C03        34.6430  -97.8740   -5.0060 C.ar      1 42U        -0.0271
      4 C04        34.3760  -99.0780   -5.6440 C.ar      1 42U        -0.0528
      5 C05        34.4330  -99.2640   -7.0250 C.ar      1 42U         0.0076
      6 C06        34.7880  -98.1090   -7.7280 C.ar      1 42U        -0.0528
      7 C07        35.0600  -96.8940   -7.1430 C.ar      1 42U        -0.0271
      8 C08        34.1780 -100.4870   -7.8630 C.2       1 42U         0.0967
      9 C09        33.5930 -100.8410   -9.1740 C.2       1 42U         0.0094
     10 C10        32.9640  -99.9140  -10.2060 C.ar      1 42U        -0.0156
     11 C11        33.1460  -99.9170  -11.5980 C.ar      1 42U        -0.0404
     12 C12        32.5430  -99.0450  -12.4820 C.ar      1 42U        -0.0100
     13 C13        31.6420  -98.0040  -12.1000 C.ar      1 42U         0.0786
     14 N14        31.0720  -97.1570  -13.0450 N.pl3     1 42U        -0.2946
     15 C15        31.4000  -96.9300  -14.4900 C.3       1 42U         0.0736
     16 C16        32.8300  -96.3550  -14.8110 C.3       1 42U        -0.0094
     17 N17        33.4260  -97.0880  -15.9980 N.4       1 42U         0.2442
     18 C18        34.7580  -96.4610  -16.3580 C.3       1 42U         0.0095
     19 C19        34.7090  -95.4750  -17.5690 C.3       1 42U         0.0077
     20 N20        33.4550  -94.7180  -17.6390 N.4       1 42U         0.2345
     21 C21        32.2930  -95.6100  -17.8160 C.3       1 42U         0.0077
     22 C22        32.4530  -96.9800  -17.1480 C.3       1 42U         0.0095
     23 C23        31.4450  -97.9880  -10.6800 C.ar      1 42U         0.0577
     24 C24        32.0830  -98.8950   -9.8220 C.ar      1 42U        -0.0438
     25 C25        30.5030  -96.9090  -10.0720 C.3       1 42U         0.3593
     26 F26        29.3240  -97.3580   -9.6860 F         1 42U        -0.2378
     27 F27        30.9740  -96.2550   -9.0260 F         1 42U        -0.2378
     28 F28        30.2490  -95.9780  -10.9680 F         1 42U        -0.2378
     29 C29        33.7570 -102.2100   -9.2260 C.2       1 42U         0.0084
     30 N30        34.3640 -102.6290   -8.0930 N.2       1 42U        -0.2151
     31 N31        34.6390 -101.6230   -7.2460 N.pl3     1 42U        -0.2133
     32 H1         34.5805  -97.8052   -3.9260 H         1 42U         0.0606
     33 H2         34.1057  -99.9286   -5.0288 H         1 42U         0.0616
     34 H3         34.8534  -98.1753   -8.8080 H         1 42U         0.0616
     35 H4         35.3278  -96.0451   -7.7617 H         1 42U         0.0606
     36 H5         33.8136 -100.6640  -12.0119 H         1 42U         0.0807
     37 H6         32.7681  -99.1575  -13.5364 H         1 42U         0.0610
     38 H7         30.2900  -96.5879  -12.6908 H         1 42U         0.1934
     39 H8         30.6592  -96.2235  -14.8925 H         1 42U         0.0591
     40 H9         31.3054  -97.8955  -15.0085 H         1 42U         0.0591
     41 H10        33.4819  -96.4883  -13.9351 H         1 42U         0.0836
     42 H11        32.7479  -95.2839  -15.0474 H         1 42U         0.0836
     43 H12        33.5670  -98.0586  -15.7655 H         1 42U         0.2038
     44 H13        35.4624  -97.2696  -16.6028 H         1 42U         0.0868
     45 H14        35.1249  -95.9082  -15.4806 H         1 42U         0.0868
     46 H15        34.8216  -96.0539  -18.4976 H         1 42U         0.0867
     47 H16        35.5433  -94.7640  -17.4766 H         1 42U         0.0867
     48 H17        33.5003  -94.0808  -18.4187 H         1 42U         0.2018
     49 H18        33.3397  -94.1958  -16.7846 H         1 42U         0.2018
     50 H19        32.1377  -95.7665  -18.8937 H         1 42U         0.0867
     51 H20        31.4090  -95.1164  -17.3860 H         1 42U         0.0867
     52 H21        31.4639  -97.2800  -16.7715 H         1 42U         0.0868
     53 H22        32.7803  -97.6880  -17.9236 H         1 42U         0.0868
     54 H23        31.8750  -98.7986   -8.7625 H         1 42U         0.0720
     55 H24        33.4466 -102.8515  -10.0494 H         1 42U         0.0681
     56 H25        35.0990 -101.6902   -6.3269 H         1 42U         0.2547
@<TRIPOS>BOND
     1    1    2 1  
     2    1    3 ar 
     3    1    7 ar 
     4    3    4 ar 
     5    4    5 ar 
     6    5    6 ar 
     7    5    8 1  
     8    6    7 ar 
     9    8    9 2  
    10    8   31 1  
    11    9   10 1  
    12    9   29 1  
    13   10   11 ar 
    14   10   24 ar 
    15   11   12 ar 
    16   12   13 ar 
    17   13   14 1  
    18   13   23 ar 
    19   14   15 1  
    20   15   16 1  
    21   16   17 1  
    22   17   18 1  
    23   17   22 1  
    24   18   19 1  
    25   19   20 1  
    26   20   21 1  
    27   21   22 1  
    28   23   24 ar 
    29   23   25 1  
    30   25   26 1  
    31   25   27 1  
    32   25   28 1  
    33   29   30 2  
    34   30   31 1  
    35    3   32 1  
    36    4   33 1  
    37    6   34 1  
    38    7   35 1  
    39   11   36 1  
    40   12   37 1  
    41   14   38 1  
    42   15   39 1  
    43   15   40 1  
    44   16   41 1  
    45   16   42 1  
    46   17   43 1  
    47   18   44 1  
    48   18   45 1  
    49   19   46 1  
    50   19   47 1  
    51   20   48 1  
    52   20   49 1  
    53   21   50 1  
    54   21   51 1  
    55   22   52 1  
    56   22   53 1  
    57   24   54 1  
    58   29   55 1  
    59   31   56 1  
@<TRIPOS>SUBSTRUCTURE
     1 42U         1

