### 
### Created by X-TOOL on Mon Sep 10 21:13:21 2018
### 

@<TRIPOS>MOLECULE
4xt2_ligand
   36    39     1     0     0
SMALL
GAST_HUCK


@<TRIPOS>ATOM
      1 CAJ        15.1330   -0.5890   30.5970 C.ar      1 43L        -0.0477
      2 CAQ        15.9230   -0.3160   31.6910 C.ar      1 43L         0.0064
      3 BRB        16.8470   -1.7580   32.5340 Br        1 43L        -0.0517
      4 CAF        16.0570    0.9590   32.1790 C.ar      1 43L        -0.0591
      5 CAD        15.3750    1.9770   31.5460 C.ar      1 43L        -0.0656
      6 CAH        14.5840    1.7130   30.4390 C.ar      1 43L        -0.0545
      7 CAS        14.4700    0.4040   29.9310 C.ar      1 43L        -0.0046
      8 CAV        13.6040    0.0490   28.7780 C.3       1 43L         0.1309
      9 CAK        12.1620    0.0900   29.0300 C.3       1 43L         0.0233
     10 NAW        13.8100    0.8720   27.6130 N.pl3     1 43L        -0.1083
     11 NAN        15.0460    1.2320   27.0950 N.2       1 43L        -0.0759
     12 NAL        14.7910    1.9160   26.0720 N.2       1 43L        -0.1639
     13 NAM        13.4730    2.0670   25.8010 N.2       1 43L        -0.2190
     14 CAT        12.8210    1.4000   26.7830 C.2       1 43L         0.2605
     15 NAO        11.5050    1.1780   27.0170 N.pl3     1 43L        -0.2573
     16 CAU        11.2050    0.0440   27.9010 C.3       1 43L         0.0828
     17 CAR         9.7690   -0.1500   28.2220 C.ar      1 43L        -0.0146
     18 CAI         9.0310    0.9700   28.4990 C.ar      1 43L        -0.0485
     19 CAP         7.7270    0.8520   28.8250 C.ar      1 43L         0.0064
     20 BRA         6.7600    2.4050   29.1830 Br        1 43L        -0.0517
     21 CAE         7.0750   -0.3330   28.9010 C.ar      1 43L        -0.0591
     22 CAC         7.8030   -1.4840   28.6260 C.ar      1 43L        -0.0657
     23 CAG         9.1360   -1.4070   28.3160 C.ar      1 43L        -0.0553
     24 H1         15.0345   -1.6134   30.2563 H         1 43L         0.0584
     25 H2         16.6831    1.1613   33.0404 H         1 43L         0.0585
     26 H3         15.4583    2.9920   31.9174 H         1 43L         0.0606
     27 H4         14.0470    2.5229   29.9586 H         1 43L         0.0582
     28 H5         13.8655   -0.9858   28.5119 H         1 43L         0.0844
     29 H6         11.9628    1.0242   29.5754 H         1 43L         0.0363
     30 H7         11.9295   -0.7689   29.6767 H         1 43L         0.0363
     31 H8         10.7659    1.7641   26.6034 H         1 43L         0.1911
     32 H9         11.4714   -0.8582   27.3309 H         1 43L         0.0726
     33 H10         9.4936    1.9494   28.4564 H         1 43L         0.0584
     34 H11         6.0251   -0.3814   29.1663 H         1 43L         0.0585
     35 H12         7.3130   -2.4504   28.6568 H         1 43L         0.0606
     36 H13         9.7046   -2.3135   28.1428 H         1 43L         0.0581
@<TRIPOS>BOND
     1    1    2 ar 
     2    1    7 ar 
     3    2    3 1  
     4    2    4 ar 
     5    4    5 ar 
     6    5    6 ar 
     7    6    7 ar 
     8    7    8 1  
     9    8    9 1  
    10    8   10 1  
    11    9   16 1  
    12   10   11 1  
    13   10   14 1  
    14   11   12 2  
    15   12   13 1  
    16   13   14 2  
    17   14   15 1  
    18   15   16 1  
    19   16   17 1  
    20   17   18 ar 
    21   17   23 ar 
    22   18   19 ar 
    23   19   20 1  
    24   19   21 ar 
    25   21   22 ar 
    26   22   23 ar 
    27    1   24 1  
    28    4   25 1  
    29    5   26 1  
    30    6   27 1  
    31    8   28 1  
    32    9   29 1  
    33    9   30 1  
    34   15   31 1  
    35   16   32 1  
    36   18   33 1  
    37   21   34 1  
    38   22   35 1  
    39   23   36 1  
@<TRIPOS>SUBSTRUCTURE
     1 43L         1

