### 
### Created by X-TOOL on Mon Sep 10 21:13:25 2018
### 

@<TRIPOS>MOLECULE
4xt9_ligand
   54    57     1     0     0
SMALL
GAST_HUCK


@<TRIPOS>ATOM
      1 N1         -3.3620   27.1630   12.2080 N.am      1 43V        -0.1895
      2 C4          0.7060   26.1890   14.0580 C.ar      1 43V        -0.0433
      3 C5         -0.2410   26.7240   13.1930 C.ar      1 43V        -0.0561
      4 C6         -0.2300   26.3970   11.8380 C.ar      1 43V        -0.0234
      5 C7         -1.3180   26.9900   10.9210 C.3       1 43V         0.0788
      6 C8         -2.6310   26.3690   11.4300 C.2       1 43V         0.2283
      7 C10        -6.1740   26.9440   14.3600 C.2       1 43V         0.0155
      8 C13        -7.7130   24.4850   15.6390 C.ar      1 43V        -0.0594
      9 C15        -9.5020   22.9600   15.0330 C.ar      1 43V        -0.0662
     10 C17        -8.2280   24.1040   13.3230 C.ar      1 43V        -0.0594
     11 C20        -6.6530   28.8830   17.4440 C.ar      1 43V         0.0387
     12 C21        -8.0280   29.0790   17.4700 C.ar      1 43V        -0.0496
     13 C22        -8.8210   28.5640   16.4450 C.ar      1 43V        -0.0493
     14 C24         0.7340   25.5110   11.3490 C.ar      1 43V        -0.0561
     15 C1          0.7740   23.1770   15.8070 C.3       1 43V        -0.0454
     16 C2          2.2170   23.0390   15.2960 C.3       1 43V         0.0672
     17 S1          2.8650   24.6460   14.7060 S.o2      1 43V        -0.0061
     18 O1          4.1690   24.4300   14.0040 O.2       1 43V        -0.1702
     19 O2          3.0320   25.5240   15.9140 O.2       1 43V        -0.1702
     20 C3          1.6810   25.3230   13.5790 C.ar      1 43V         0.0815
     21 C25         1.6880   24.9800   12.2190 C.ar      1 43V        -0.0433
     22 O3         -2.9150   25.2080   11.1590 O.2       1 43V        -0.3761
     23 C9         -4.4680   26.7460   12.8460 C.2       1 43V         0.2123
     24 N2         -5.0830   27.4890   13.7710 N.2       1 43V        -0.3060
     25 S2         -5.2680   25.2500   12.7370 S.3       1 43V         0.0268
     26 C11        -6.4420   25.6340   13.9040 C.2       1 43V         0.0515
     27 C12        -7.4630   24.7530   14.2890 C.ar      1 43V        -0.0171
     28 C16        -9.2480   23.2170   13.6850 C.ar      1 43V        -0.0661
     29 C14        -8.7300   23.5980   16.0080 C.ar      1 43V        -0.0661
     30 C18        -6.8790   27.6370   15.3550 C.ar      1 43V        -0.0074
     31 C19        -6.1000   28.1680   16.3850 C.ar      1 43V        -0.0428
     32 CL1        -5.6350   29.5220   18.7030 Cl        1 43V        -0.0712
     33 C23        -8.2620   27.8480   15.3880 C.ar      1 43V         0.0450
     34 CL2        -9.3320   27.2550   14.1680 Cl        1 43V        -0.0712
     35 H1         -3.0748   28.1139   12.3231 H         1 43V         0.2436
     36 H2          0.6838   26.4483   15.1103 H         1 43V         0.0619
     37 H3         -0.9953   27.4020   13.5756 H         1 43V         0.0561
     38 H4         -1.1370   26.7114    9.8724 H         1 43V         0.0667
     39 H5         -1.3463   28.0860   11.0096 H         1 43V         0.0667
     40 H6         -7.1152   24.9675   16.4038 H         1 43V         0.0584
     41 H7        -10.2895   22.2730   15.3208 H         1 43V         0.0580
     42 H8         -8.0300   24.2890   12.2734 H         1 43V         0.0584
     43 H9         -8.4832   29.6306   18.2846 H         1 43V         0.0604
     44 H10        -9.8929   28.7237   16.4709 H         1 43V         0.0617
     45 H11         0.7409   25.2377   10.3000 H         1 43V         0.0561
     46 H12         0.4127   22.1977   16.1540 H         1 43V         0.0245
     47 H13         0.1293   23.5379   14.9921 H         1 43V         0.0245
     48 H14         0.7472   23.8941   16.6407 H         1 43V         0.0245
     49 H15         2.2365   22.3175   14.4660 H         1 43V         0.0500
     50 H16         2.8544   22.6736   16.1146 H         1 43V         0.0500
     51 H17         2.4401   24.2972   11.8405 H         1 43V         0.0619
     52 H18        -9.8404   22.7299   12.9189 H         1 43V         0.0605
     53 H19        -8.9206   23.4042   17.0574 H         1 43V         0.0605
     54 H20        -5.0267   28.0183   16.3592 H         1 43V         0.0610
@<TRIPOS>BOND
     1    1    6 am 
     2   23    1 1  
     3    3    2 ar 
     4    2   20 ar 
     5    4    3 ar 
     6    5    4 1  
     7    4   14 ar 
     8    6    5 1  
     9    6   22 2  
    10    7   24 1  
    11    7   26 2  
    12   30    7 1  
    13   27    8 ar 
    14    8   29 ar 
    15   28    9 ar 
    16   29    9 ar 
    17   27   10 ar 
    18   10   28 ar 
    19   11   12 ar 
    20   31   11 ar 
    21   11   32 1  
    22   12   13 ar 
    23   13   33 ar 
    24   14   21 ar 
    25   16   15 1  
    26   17   16 1  
    27   17   18 2  
    28   17   19 2  
    29   20   17 1  
    30   21   20 ar 
    31   24   23 2  
    32   25   23 1  
    33   26   25 1  
    34   26   27 1  
    35   30   31 ar 
    36   30   33 ar 
    37   33   34 1  
    38    1   35 1  
    39    2   36 1  
    40    3   37 1  
    41    5   38 1  
    42    5   39 1  
    43    8   40 1  
    44    9   41 1  
    45   10   42 1  
    46   12   43 1  
    47   13   44 1  
    48   14   45 1  
    49   15   46 1  
    50   15   47 1  
    51   15   48 1  
    52   16   49 1  
    53   16   50 1  
    54   21   51 1  
    55   28   52 1  
    56   29   53 1  
    57   31   54 1  
@<TRIPOS>SUBSTRUCTURE
     1 43V         1

