### 
### Created by X-TOOL on Mon Sep 10 21:13:25 2018
### 

@<TRIPOS>MOLECULE
4xta_ligand
   29    30     1     0     0
SMALL
GAST_HUCK


@<TRIPOS>ATOM
      1 C1         -9.6090    4.9160  -14.6530 C.ar      1 DIF        -0.0583
      2 C2        -10.4920    5.4590  -13.7260 C.ar      1 DIF         0.0613
      3 CL2       -10.1660    7.0320  -13.0520 Cl        1 DIF        -0.0803
      4 C3        -11.6320    4.7580  -13.3470 C.ar      1 DIF         0.0851
      5 C4        -11.8650    3.5010  -13.8990 C.ar      1 DIF         0.0613
      6 CL4       -13.2690    2.5800  -13.4520 Cl        1 DIF        -0.0803
      7 C5        -10.9790    2.9630  -14.8260 C.ar      1 DIF        -0.0583
      8 C6         -9.8490    3.6670  -15.2070 C.ar      1 DIF        -0.0732
      9 N1        -12.5230    5.3300  -12.3830 N.pl3     1 DIF        -0.2767
     10 C7        -14.7230    6.0480  -11.6060 C.ar      1 DIF        -0.0070
     11 C8        -13.8330    5.8380  -12.6610 C.ar      1 DIF         0.0628
     12 C9        -14.2410    6.1230  -13.9560 C.ar      1 DIF        -0.0457
     13 C10       -15.5200    6.6150  -14.1890 C.ar      1 DIF        -0.0790
     14 C11       -16.3990    6.8240  -13.1340 C.ar      1 DIF        -0.0805
     15 C12       -15.9980    6.5440  -11.8370 C.ar      1 DIF        -0.0686
     16 C13       -14.2880    5.7490  -10.1900 C.3       1 DIF         0.0310
     17 C14       -13.4870    6.9420   -9.7360 C.2       1 DIF         0.0444
     18 O1        -14.0790    7.9990   -9.3950 O.co2     1 DIF        -0.5667
     19 O2        -12.2310    6.8820   -9.7190 O.co2     1 DIF        -0.5667
     20 H1         -8.7262    5.4731  -14.9450 H         1 DIF         0.0592
     21 H2        -11.1742    1.9860  -15.2532 H         1 DIF         0.0592
     22 H3         -9.1595    3.2467  -15.9302 H         1 DIF         0.0513
     23 H4        -12.1944    5.3803  -11.4081 H         1 DIF         0.2070
     24 H5        -13.5625    5.9620  -14.7860 H         1 DIF         0.0509
     25 H6        -15.8340    6.8374  -15.2024 H         1 DIF         0.0530
     26 H7        -17.3958    7.2050  -13.3244 H         1 DIF         0.0496
     27 H8        -16.6764    6.7115  -11.0083 H         1 DIF         0.0525
     28 H9        -13.6674    4.8412  -10.1653 H         1 DIF         0.0565
     29 H10       -15.1663    5.6105   -9.5424 H         1 DIF         0.0565
@<TRIPOS>BOND
     1    1    2 ar 
     2    1    8 ar 
     3    2    3 1  
     4    2    4 ar 
     5    4    5 ar 
     6    4    9 1  
     7    5    6 1  
     8    5    7 ar 
     9    7    8 ar 
    10    9   11 1  
    11   11   10 ar 
    12   10   15 ar 
    13   10   16 1  
    14   11   12 ar 
    15   12   13 ar 
    16   13   14 ar 
    17   14   15 ar 
    18   16   17 1  
    19   17   18 ar 
    20   17   19 ar 
    21    1   20 1  
    22    7   21 1  
    23    8   22 1  
    24    9   23 1  
    25   12   24 1  
    26   13   25 1  
    27   14   26 1  
    28   15   27 1  
    29   16   28 1  
    30   16   29 1  
@<TRIPOS>SUBSTRUCTURE
     1 DIF         1

