### 
### Created by X-TOOL on Mon Sep 10 21:13:29 2018
### 

@<TRIPOS>MOLECULE
4xtm_ligand
   30    30     1     0     0
SMALL
GAST_HUCK


@<TRIPOS>ATOM
      1 O          -8.4520  -15.6650  -32.8850 O.3       1 A2G        -0.3410
      2 C1         -7.1100  -15.2120  -33.0200 C.3       1 A2G         0.1823
      3 O1         -6.6590  -15.4590  -34.3540 O.3       1 A2G        -0.3651
      4 C2         -6.2210  -15.9640  -32.0340 C.3       1 A2G         0.1208
      5 N2         -4.8450  -15.5500  -32.1990 N.am      1 A2G        -0.2766
      6 C3         -6.3370  -17.4700  -32.2290 C.3       1 A2G         0.1110
      7 O3         -5.6760  -18.1420  -31.1530 O.3       1 A2G        -0.3867
      8 C4         -7.8060  -17.8990  -32.2750 C.3       1 A2G         0.1116
      9 O4         -8.3770  -17.7930  -30.9670 O.3       1 A2G        -0.3865
     10 C5         -8.5990  -17.0350  -33.2420 C.3       1 A2G         0.1130
     11 C6        -10.0710  -17.4150  -33.2370 C.3       1 A2G         0.0730
     12 O6        -10.7770  -16.6030  -34.1890 O.3       1 A2G        -0.3924
     13 C7         -4.0170  -15.4410  -31.1640 C.2       1 A2G         0.1733
     14 O7         -4.3380  -15.8270  -30.0390 O.2       1 A2G        -0.3974
     15 C8         -2.6770  -14.8150  -31.4680 C.3       1 A2G         0.0257
     16 H1         -7.0623  -14.1334  -32.8094 H         1 A2G         0.0932
     17 H2         -7.2155  -14.9927  -34.9666 H         1 A2G         0.2126
     18 H3         -6.5451  -15.7177  -31.0121 H         1 A2G         0.0633
     19 H4         -4.5070  -15.3400  -33.1164 H         1 A2G         0.1857
     20 H5         -5.8547  -17.7457  -33.1784 H         1 A2G         0.0645
     21 H6         -5.7488  -19.0812  -31.2754 H         1 A2G         0.2100
     22 H7         -7.8593  -18.9459  -32.6084 H         1 A2G         0.0647
     23 H8         -7.9011  -18.3566  -30.3683 H         1 A2G         0.2100
     24 H9         -8.2010  -17.1847  -34.2565 H         1 A2G         0.0647
     25 H10       -10.4891  -17.2505  -32.2329 H         1 A2G         0.0584
     26 H11       -10.1771  -18.4755  -33.5091 H         1 A2G         0.0584
     27 H12       -11.6968  -16.8406  -34.1857 H         1 A2G         0.2095
     28 H13        -2.0746  -14.7735  -30.5485 H         1 A2G         0.0467
     29 H14        -2.8274  -13.7960  -31.8540 H         1 A2G         0.0467
     30 H15        -2.1527  -15.4194  -32.2228 H         1 A2G         0.0467
@<TRIPOS>BOND
     1    1    2 1  
     2    1   10 1  
     3    2    3 1  
     4    2    4 1  
     5    4    5 1  
     6    4    6 1  
     7    5   13 am 
     8    6    7 1  
     9    6    8 1  
    10    8    9 1  
    11    8   10 1  
    12   10   11 1  
    13   11   12 1  
    14   13   14 2  
    15   13   15 1  
    16    2   16 1  
    17    3   17 1  
    18    4   18 1  
    19    5   19 1  
    20    6   20 1  
    21    7   21 1  
    22    8   22 1  
    23    9   23 1  
    24   10   24 1  
    25   11   25 1  
    26   11   26 1  
    27   12   27 1  
    28   15   28 1  
    29   15   29 1  
    30   15   30 1  
@<TRIPOS>SUBSTRUCTURE
     1 A2G         1

