### 
### Created by X-TOOL on Mon Sep 10 21:13:29 2018
### 

@<TRIPOS>MOLECULE
4xtp_ligand
   41    41     1     0     0
SMALL
GAST_HUCK


@<TRIPOS>ATOM
      1 OXT       -19.3050  -27.4830  -37.6970 O.co2     1 TNR        -0.5642
      2 C         -20.5350  -27.6840  -37.7780 C.2       1 TNR         0.0867
      3 O         -21.0450  -28.2440  -38.7700 O.co2     1 TNR        -0.5642
      4 CA        -21.4150  -27.2450  -36.6550 C.3       1 TNR         0.0522
      5 N         -22.7670  -27.7230  -36.8780 N.4       1 TNR         0.2343
      6 CB        -20.9170  -27.8560  -35.3580 C.3       1 TNR         0.1052
      7 O1        -21.6850  -27.3360  -34.2750 O.3       1 TNR        -0.3416
      8 C1        -21.1430  -27.7020  -33.0070 C.3       1 TNR         0.1852
      9 C2        -22.0220  -27.1270  -31.9010 C.3       1 TNR         0.1210
     10 N2        -23.3990  -27.5550  -32.0550 N.am      1 TNR        -0.2766
     11 C7        -24.2020  -27.7410  -31.0120 C.2       1 TNR         0.1733
     12 C8        -25.6370  -27.9350  -31.3630 C.3       1 TNR         0.0257
     13 O7        -23.8060  -27.7540  -29.8590 O.2       1 TNR        -0.3974
     14 C3        -21.9870  -25.6010  -31.9110 C.3       1 TNR         0.1111
     15 O3        -22.6310  -25.0740  -30.7470 O.3       1 TNR        -0.3867
     16 C4        -20.5620  -25.1040  -31.9530 C.3       1 TNR         0.1116
     17 O4        -19.9430  -25.3780  -30.6850 O.3       1 TNR        -0.3865
     18 C5        -19.7670  -25.7880  -33.0610 C.3       1 TNR         0.1130
     19 O5        -19.8080  -27.2040  -32.8760 O.3       1 TNR        -0.3408
     20 C6        -18.3190  -25.3290  -33.0590 C.3       1 TNR         0.0730
     21 O6        -17.5210  -26.2530  -33.8200 O.3       1 TNR        -0.3924
     22 H1        -21.4088  -26.1473  -36.5842 H         1 TNR         0.1048
     23 H2        -23.3584  -27.4249  -36.1181 H         1 TNR         0.2011
     24 H3        -22.7638  -28.7298  -36.9262 H         1 TNR         0.2011
     25 H4        -23.1180  -27.3463  -37.7446 H         1 TNR         0.2011
     26 H5        -19.8566  -27.6016  -35.2137 H         1 TNR         0.0637
     27 H6        -21.0296  -28.9495  -35.3983 H         1 TNR         0.0637
     28 H7        -21.1266  -28.7987  -32.9240 H         1 TNR         0.0935
     29 H8        -21.6425  -27.4864  -30.9331 H         1 TNR         0.0633
     30 H9        -23.7559  -27.7154  -32.9753 H         1 TNR         0.1857
     31 H10       -26.2229  -28.0806  -30.4435 H         1 TNR         0.0467
     32 H11       -25.7404  -28.8203  -32.0077 H         1 TNR         0.0467
     33 H12       -26.0072  -27.0473  -31.8969 H         1 TNR         0.0467
     34 H13       -22.5172  -25.2427  -32.8057 H         1 TNR         0.0645
     35 H14       -22.5991  -24.1248  -30.7712 H         1 TNR         0.2100
     36 H15       -20.5648  -24.0189  -32.1333 H         1 TNR         0.0647
     37 H16       -20.4218  -24.9309  -29.9969 H         1 TNR         0.2100
     38 H17       -20.2202  -25.5357  -34.0310 H         1 TNR         0.0647
     39 H18       -17.9481  -25.2905  -32.0241 H         1 TNR         0.0584
     40 H19       -18.2511  -24.3282  -33.5103 H         1 TNR         0.0584
     41 H20       -17.8419  -26.2855  -34.7135 H         1 TNR         0.2095
@<TRIPOS>BOND
     1    1    2 ar 
     2    2    3 ar 
     3    2    4 1  
     4    4    5 1  
     5    4    6 1  
     6    6    7 1  
     7    7    8 1  
     8    8    9 1  
     9    8   19 1  
    10    9   10 1  
    11    9   14 1  
    12   10   11 am 
    13   11   12 1  
    14   11   13 2  
    15   14   15 1  
    16   14   16 1  
    17   16   17 1  
    18   16   18 1  
    19   18   19 1  
    20   18   20 1  
    21   20   21 1  
    22    4   22 1  
    23    5   23 1  
    24    5   24 1  
    25    5   25 1  
    26    6   26 1  
    27    6   27 1  
    28    8   28 1  
    29    9   29 1  
    30   10   30 1  
    31   12   31 1  
    32   12   32 1  
    33   12   33 1  
    34   14   34 1  
    35   15   35 1  
    36   16   36 1  
    37   17   37 1  
    38   18   38 1  
    39   20   39 1  
    40   20   40 1  
    41   21   41 1  
@<TRIPOS>SUBSTRUCTURE
     1 TNR         1

