### 
### Created by X-TOOL on Mon Sep 10 21:13:23 2018
### 

@<TRIPOS>MOLECULE
4xtv_ligand
   67    71     1     0     0
SMALL
GAST_HUCK


@<TRIPOS>ATOM
      1 CBI        -2.2530   -9.9730   13.7990 C.3       1 44K         0.0775
      2 NAU        -1.0420   -9.2320   13.5260 N.am      1 44K        -0.2668
      3 CBA        -0.1130   -9.4510   14.4520 C.2       1 44K         0.2580
      4 OAC         0.9670   -8.8740   14.5180 O.2       1 44K        -0.4008
      5 NAT        -0.5230  -10.3760   15.3120 N.am      1 44K        -0.2671
      6 CBF        -1.9270  -10.6590   15.1220 C.3       1 44K         0.0750
      7 CAO        -2.6690  -10.0260   16.2820 C.3       1 44K         0.0190
      8 SAY        -3.4200   -8.5770   15.6420 S.3       1 44K        -0.1527
      9 CBH        -3.4480   -9.0420   13.9420 C.3       1 44K         0.0302
     10 CAK        -3.3740   -7.8740   12.9640 C.3       1 44K        -0.0388
     11 CAI        -3.6930   -8.3460   11.5460 C.3       1 44K        -0.0499
     12 CAH        -4.0040   -7.1770   10.6130 C.3       1 44K        -0.0360
     13 CAJ        -4.1370   -7.6200    9.1590 C.3       1 44K         0.0388
     14 CAZ        -4.5300   -6.4400    8.2980 C.2       1 44K         0.1971
     15 OAB        -5.6260   -5.9210    8.4470 O.2       1 44K        -0.3954
     16 NAV        -3.6370   -6.0300    7.3910 N.am      1 44K        -0.1416
     17 SBK        -4.0320   -4.9920    6.2310 S.o2      1 44K         0.1390
     18 OAD        -5.2380   -5.4110    5.5760 O.2       1 44K        -0.1307
     19 OAE        -2.9550   -4.9110    5.2720 O.2       1 44K        -0.1307
     20 NAW        -4.2870   -3.5350    6.8420 N.am      1 44K        -0.2311
     21 CAN        -3.3230   -2.8690    7.6960 C.3       1 44K         0.0311
     22 CBE        -3.6590   -1.3810    7.7000 C.3       1 44K        -0.0213
     23 CAX        -4.8610   -1.1270    8.6040 C.3       1 44K        -0.0181
     24 CAL        -2.5290   -0.5190    8.2490 C.3       1 44K        -0.0459
     25 CAM        -3.1580    0.5520    9.1300 C.3       1 44K        -0.0221
     26 CBG        -4.5930    0.1340    9.4180 C.3       1 44K         0.0718
     27 N9         -4.7100   -0.1670   10.8650 N.pl3     1 44K        -0.2186
     28 C8         -3.6920   -0.2370   11.7330 C.2       1 44K         0.1100
     29 N7         -4.1680   -0.5340   12.9590 N.2       1 44K        -0.2958
     30 C5         -5.5060   -0.6520   12.8520 C.ar      1 44K         0.1044
     31 C4         -5.8380   -0.4240   11.5270 C.ar      1 44K         0.1594
     32 N3         -7.1300   -0.4800   11.1340 N.ar      1 44K        -0.2714
     33 C2         -8.0780   -0.7700   12.0360 C.ar      1 44K         0.0533
     34 N1         -7.7820   -0.9940   13.3240 N.ar      1 44K        -0.2698
     35 C6         -6.5090   -0.9470   13.7640 C.ar      1 44K         0.1298
     36 N6         -6.2180   -1.1770   15.0690 N.pl3     1 44K        -0.3152
     37 H1         -2.4552  -10.7101   13.0079 H         1 44K         0.0587
     38 H2         -0.9182   -8.6290   12.7379 H         1 44K         0.1849
     39 H3          0.0591  -10.8156   15.9961 H         1 44K         0.1849
     40 H4         -2.1325  -11.7386   15.0738 H         1 44K         0.0584
     41 H5         -1.9677   -9.7683   17.0894 H         1 44K         0.0399
     42 H6         -3.4349  -10.7150   16.6675 H         1 44K         0.0399
     43 H7         -4.3765   -9.5936   13.7334 H         1 44K         0.0435
     44 H8         -2.3602   -7.4476   12.9846 H         1 44K         0.0277
     45 H9         -4.1015   -7.1048   13.2622 H         1 44K         0.0277
     46 H10        -4.5658   -9.0145   11.5816 H         1 44K         0.0267
     47 H11        -2.8261   -8.8956   11.1506 H         1 44K         0.0267
     48 H12        -3.1910   -6.4396   10.6857 H         1 44K         0.0290
     49 H13        -4.9496   -6.7127   10.9298 H         1 44K         0.0290
     50 H14        -4.9090   -8.4000    9.0840 H         1 44K         0.0503
     51 H15        -3.1744   -8.0221    8.8102 H         1 44K         0.0503
     52 H16        -2.7006   -6.3781    7.4361 H         1 44K         0.2159
     53 H17        -5.1436   -3.0662    6.6266 H         1 44K         0.1689
     54 H18        -2.3065   -3.0227    7.3048 H         1 44K         0.0479
     55 H19        -3.3872   -3.2705    8.7181 H         1 44K         0.0479
     56 H20        -3.8890   -1.0691    6.6705 H         1 44K         0.0317
     57 H21        -5.0044   -1.9824    9.2806 H         1 44K         0.0298
     58 H22        -5.7640   -0.9887    7.9913 H         1 44K         0.0298
     59 H23        -1.9788   -0.0487    7.4207 H         1 44K         0.0269
     60 H24        -1.8396   -1.1369    8.8431 H         1 44K         0.0269
     61 H25        -3.1480    1.5198    8.6074 H         1 44K         0.0295
     62 H26        -2.5972    0.6383   10.0723 H         1 44K         0.0295
     63 H27        -5.2966    0.9314    9.1369 H         1 44K         0.0650
     64 H28        -2.6431   -0.0786   11.4867 H         1 44K         0.1348
     65 H29        -9.1120   -0.8249   11.7152 H         1 44K         0.0996
     66 H30        -6.9734   -1.3949   15.7344 H         1 44K         0.1820
     67 H31        -5.2417   -1.1337   15.3943 H         1 44K         0.1820
@<TRIPOS>BOND
     1    1    2 1  
     2    1    6 1  
     3    1    9 1  
     4    2    3 am 
     5    3    4 2  
     6    3    5 am 
     7    5    6 1  
     8    6    7 1  
     9    7    8 1  
    10    8    9 1  
    11    9   10 1  
    12   10   11 1  
    13   11   12 1  
    14   12   13 1  
    15   13   14 1  
    16   14   15 2  
    17   14   16 am 
    18   16   17 am 
    19   17   18 2  
    20   17   19 2  
    21   17   20 am 
    22   20   21 1  
    23   21   22 1  
    24   22   23 1  
    25   22   24 1  
    26   23   26 1  
    27   24   25 1  
    28   25   26 1  
    29   26   27 1  
    30   27   28 1  
    31   27   31 1  
    32   28   29 2  
    33   29   30 1  
    34   30   31 ar 
    35   30   35 ar 
    36   31   32 ar 
    37   32   33 ar 
    38   33   34 ar 
    39   34   35 ar 
    40   35   36 1  
    41    1   37 1  
    42    2   38 1  
    43    5   39 1  
    44    6   40 1  
    45    7   41 1  
    46    7   42 1  
    47    9   43 1  
    48   10   44 1  
    49   10   45 1  
    50   11   46 1  
    51   11   47 1  
    52   12   48 1  
    53   12   49 1  
    54   13   50 1  
    55   13   51 1  
    56   16   52 1  
    57   20   53 1  
    58   21   54 1  
    59   21   55 1  
    60   22   56 1  
    61   23   57 1  
    62   23   58 1  
    63   24   59 1  
    64   24   60 1  
    65   25   61 1  
    66   25   62 1  
    67   26   63 1  
    68   28   64 1  
    69   33   65 1  
    70   36   66 1  
    71   36   67 1  
@<TRIPOS>SUBSTRUCTURE
     1 44K         1

