### 
### Created by X-TOOL on Mon Sep 10 21:13:24 2018
### 

@<TRIPOS>MOLECULE
4xtx_ligand
   67    71     1     0     0
SMALL
GAST_HUCK


@<TRIPOS>ATOM
      1 CBI        -2.2700  -10.0400   13.8580 C.3       1 590         0.0775
      2 NAU        -1.1200   -9.1860   13.5940 N.am      1 590        -0.2668
      3 CBA        -0.1730   -9.3130   14.5100 C.2       1 590         0.2580
      4 OAC         0.9180   -8.7670   14.4690 O.2       1 590        -0.4008
      5 NAT        -0.5760  -10.1200   15.4740 N.am      1 590        -0.2671
      6 CBF        -1.9230  -10.6180   15.2460 C.3       1 590         0.0750
      7 CAO        -2.7500   -9.9680   16.3510 C.3       1 590         0.0190
      8 SAY        -3.4840   -8.5630   15.6030 S.3       1 590        -0.1527
      9 CBH        -3.4730   -9.1050   13.9360 C.3       1 590         0.0302
     10 CAK        -3.3830   -7.9070   13.0000 C.3       1 590        -0.0388
     11 CAI        -3.7140   -8.3080   11.5680 C.3       1 590        -0.0499
     12 CAH        -3.8740   -7.0990   10.6560 C.3       1 590        -0.0360
     13 CAJ        -4.3260   -7.5640    9.2780 C.3       1 590         0.0389
     14 CAZ        -4.7070   -6.3970    8.3980 C.2       1 590         0.1976
     15 OAB        -5.8350   -5.9350    8.4530 O.2       1 590        -0.3954
     16 NAV        -3.7630   -5.9240    7.5850 N.am      1 590        -0.1342
     17 SBK        -4.0360   -4.7550    6.6460 S.o2      1 590         0.1858
     18 OAD        -5.1530   -5.0590    5.7960 O.2       1 590        -0.1218
     19 OAE        -2.8780   -4.5320    5.8260 O.2       1 590        -0.1218
     20 OAW        -4.3470   -3.4760    7.4400 O.3       1 590        -0.2161
     21 CAN        -3.3070   -2.6580    7.9790 C.3       1 590         0.1074
     22 CBE        -3.7370   -1.1910    7.9190 C.3       1 590         0.1191
     23 OAX        -4.9470   -0.9590    8.6510 O.3       1 590        -0.3344
     24 CAL        -2.7110   -0.2250    8.4860 C.3       1 590         0.1470
     25 OAL        -1.8150    0.2100    7.4620 O.3       1 590        -0.3834
     26 CAM        -3.5670    0.9260    8.9680 C.3       1 590         0.3004
     27 CBG        -4.8770    0.2600    9.3990 C.3       1 590         0.2341
     28 N9         -5.0040   -0.0790   10.8480 N.pl3     1 590        -0.1892
     29 C8         -4.0280   -0.2460   11.7530 C.2       1 590         0.1124
     30 N7         -4.5690   -0.5550   12.9510 N.2       1 590        -0.2957
     31 C5         -5.9050   -0.6020   12.7910 C.ar      1 590         0.1045
     32 C4         -6.1700   -0.3070   11.4650 C.ar      1 590         0.1613
     33 N3         -7.4540   -0.2860   11.0330 N.ar      1 590        -0.2713
     34 C2         -8.4550   -0.5530   11.8800 C.ar      1 590         0.0533
     35 N1         -8.2220   -0.8390   13.1690 N.ar      1 590        -0.2698
     36 C6         -6.9620   -0.8730   13.6510 C.ar      1 590         0.1298
     37 N6         -6.7410   -1.1680   14.9550 N.pl3     1 590        -0.3152
     38 N5         -0.7190    0.9530   11.0450 N.1       1 590         0.2334
     39 N2         -1.7130    1.2780   10.5470 N.1       1 590         0.1298
     40 N8Q        -2.8940    1.7080    9.9860 N.2       1 590         0.1779
     41 H1         -2.4162  -10.8254   13.1019 H         1 590         0.0587
     42 H2         -1.0533   -8.5717   12.8077 H         1 590         0.1849
     43 H3         -0.0193  -10.3609   16.2690 H         1 590         0.1849
     44 H4         -1.9993  -11.7151   15.2687 H         1 590         0.0584
     45 H5         -2.1053   -9.6667   17.1898 H         1 590         0.0399
     46 H6         -3.5234  -10.6611   16.7135 H         1 590         0.0399
     47 H7         -4.3927   -9.6625   13.7051 H         1 590         0.0435
     48 H8         -2.3614   -7.5006   13.0329 H         1 590         0.0277
     49 H9         -4.0949   -7.1368   13.3317 H         1 590         0.0277
     50 H10        -4.6542   -8.8789   11.5680 H         1 590         0.0267
     51 H11        -2.9014   -8.9397   11.1799 H         1 590         0.0267
     52 H12        -2.9111   -6.5743   10.5691 H         1 590         0.0290
     53 H13        -4.6264   -6.4170   11.0786 H         1 590         0.0290
     54 H14        -5.1976   -8.2254    9.3919 H         1 590         0.0503
     55 H15        -3.5047   -8.1186    8.8006 H         1 590         0.0503
     56 H16        -2.8560   -6.3451    7.5912 H         1 590         0.2165
     57 H17        -2.3881   -2.7961    7.3903 H         1 590         0.0611
     58 H18        -3.1191   -2.9436    9.0245 H         1 590         0.0611
     59 H19        -3.9058   -0.9405    6.8613 H         1 590         0.0649
     60 H20        -2.1442   -0.6786    9.3124 H         1 590         0.0678
     61 H21        -1.1809    0.8125    7.8326 H         1 590         0.2101
     62 H22        -3.7776    1.6025    8.1266 H         1 590         0.1082
     63 H23        -5.7126    0.9224    9.1288 H         1 590         0.1028
     64 H24        -2.9622   -0.1474   11.5522 H         1 590         0.1349
     65 H25        -9.4760   -0.5377   11.5162 H         1 590         0.0996
     66 H26        -7.5354   -1.3666   15.5799 H         1 590         0.1820
     67 H27        -5.7787   -1.1936   15.3213 H         1 590         0.1820
@<TRIPOS>BOND
     1    1    2 1  
     2    1    6 1  
     3    9    1 1  
     4    2    3 am 
     5    3    4 2  
     6    5    3 am 
     7    6    5 1  
     8    7    6 1  
     9    8    7 1  
    10    9    8 1  
    11   10    9 1  
    12   11   10 1  
    13   12   11 1  
    14   13   12 1  
    15   14   13 1  
    16   14   15 2  
    17   16   14 am 
    18   17   16 am 
    19   17   18 2  
    20   17   19 2  
    21   20   17 1  
    22   21   20 1  
    23   22   21 1  
    24   23   22 1  
    25   24   22 1  
    26   27   23 1  
    27   24   25 1  
    28   26   24 1  
    29   26   27 1  
    30   40   26 1  
    31   27   28 1  
    32   28   29 1  
    33   28   32 1  
    34   29   30 2  
    35   31   30 1  
    36   32   31 ar 
    37   31   36 ar 
    38   32   33 ar 
    39   33   34 ar 
    40   34   35 ar 
    41   36   35 ar 
    42   36   37 1  
    43   39   38 3  
    44   39   40 2  
    45    1   41 1  
    46    2   42 1  
    47    5   43 1  
    48    6   44 1  
    49    7   45 1  
    50    7   46 1  
    51    9   47 1  
    52   10   48 1  
    53   10   49 1  
    54   11   50 1  
    55   11   51 1  
    56   12   52 1  
    57   12   53 1  
    58   13   54 1  
    59   13   55 1  
    60   16   56 1  
    61   21   57 1  
    62   21   58 1  
    63   22   59 1  
    64   24   60 1  
    65   25   61 1  
    66   26   62 1  
    67   27   63 1  
    68   29   64 1  
    69   34   65 1  
    70   37   66 1  
    71   37   67 1  
@<TRIPOS>SUBSTRUCTURE
     1 590         1

