### 
### Created by X-TOOL on Mon Sep 10 21:13:23 2018
### 

@<TRIPOS>MOLECULE
4xty_ligand
   66    70     1     0     0
SMALL
GAST_HUCK


@<TRIPOS>ATOM
      1 C4         -5.7380   -0.3080   11.3990 C.ar      1 44L         0.1613
      2 N6         -6.1950   -1.0640   14.9220 N.pl3     1 44L        -0.3152
      3 C5         -5.4140   -0.5450   12.7170 C.ar      1 44L         0.1045
      4 N9         -4.6040   -0.0710   10.7400 N.pl3     1 44L        -0.1916
      5 C8         -3.5680   -0.1900   11.5940 C.2       1 44L         0.1123
      6 CBI        -2.1540   -9.9100   13.7480 C.3       1 44L         0.0775
      7 NAU        -0.9240   -9.1750   13.4970 N.am      1 44L        -0.2668
      8 CBA        -0.0130   -9.3750   14.4560 C.2       1 44L         0.2580
      9 OAC         1.0740   -8.8020   14.5290 O.2       1 44L        -0.4008
     10 NAT        -0.4670  -10.2650   15.3410 N.am      1 44L        -0.2671
     11 CBF        -1.8440  -10.6250   15.0750 C.3       1 44L         0.0750
     12 CAO        -2.7380  -10.0980   16.2050 C.3       1 44L         0.0190
     13 SAY        -3.2630   -8.5160   15.6340 S.3       1 44L        -0.1527
     14 CBH        -3.3670   -8.9920   13.9370 C.3       1 44L         0.0302
     15 CAK        -3.4370   -7.8090   12.9750 C.3       1 44L        -0.0388
     16 CAI        -3.6520   -8.2930   11.5500 C.3       1 44L        -0.0499
     17 CAH        -3.9370   -7.1370   10.5940 C.3       1 44L        -0.0360
     18 CAJ        -4.0890   -7.5860    9.1460 C.3       1 44L         0.0388
     19 CAZ        -4.4620   -6.3970    8.2680 C.2       1 44L         0.1971
     20 OAB        -5.5320   -5.8440    8.3940 O.2       1 44L        -0.3954
     21 NAV        -3.5610   -5.9700    7.3870 N.am      1 44L        -0.1416
     22 SBK        -3.9710   -4.8790    6.2760 S.o2      1 44L         0.1391
     23 OAD        -5.1800   -5.2530    5.5890 O.2       1 44L        -0.1307
     24 OAE        -2.8920   -4.7350    5.3410 O.2       1 44L        -0.1307
     25 NAW        -4.2480   -3.4850    7.0150 N.am      1 44L        -0.2288
     26 CAN        -3.1500   -2.7370    7.6010 C.3       1 44L         0.0570
     27 CBE        -3.5690   -1.2800    7.7480 C.3       1 44L         0.1076
     28 OAX        -4.6710   -1.0850    8.6390 O.3       1 44L        -0.3372
     29 CAL        -2.4710   -0.3980    8.3100 C.3       1 44L         0.1191
     30 OAL        -1.5410   -0.0510    7.2740 O.3       1 44L        -0.3861
     31 CAM        -3.2470    0.7930    8.8290 C.3       1 44L         0.1838
     32 CBG        -4.5670    0.1920    9.2940 C.3       1 44L         0.2061
     33 N7         -4.0620   -0.4710   12.8250 N.2       1 44L        -0.2958
     34 N3         -7.0240   -0.3100   10.9840 N.ar      1 44L        -0.2714
     35 C2         -8.0000   -0.5710   11.8710 C.ar      1 44L         0.0533
     36 N1         -7.7200   -0.8150   13.1590 N.ar      1 44L        -0.2698
     37 C6         -6.4450   -0.8090   13.6140 C.ar      1 44L         0.1298
     38 F1         -3.5620    1.5620    7.7330 F         1 44L        -0.2369
     39 H1         -6.9744   -1.2567   15.5672 H         1 44L         0.1820
     40 H2         -5.2257   -1.0650   15.2704 H         1 44L         0.1820
     41 H3         -2.5150   -0.0794   11.3391 H         1 44L         0.1349
     42 H4         -2.3565  -10.6262   12.9381 H         1 44L         0.0587
     43 H5         -0.7766   -8.5886   12.7005 H         1 44L         0.1849
     44 H6          0.0761  -10.6368   16.0939 H         1 44L         0.1849
     45 H7         -1.9641  -11.7140   14.9771 H         1 44L         0.0584
     46 H8         -2.1696  -10.0061   17.1422 H         1 44L         0.0399
     47 H9         -3.6005  -10.7622   16.3628 H         1 44L         0.0399
     48 H10        -4.2835   -9.5809   13.7846 H         1 44L         0.0435
     49 H11        -2.4946   -7.2440   13.0270 H         1 44L         0.0277
     50 H12        -4.2729   -7.1555   13.2652 H         1 44L         0.0277
     51 H13        -4.5060   -8.9861   11.5347 H         1 44L         0.0267
     52 H14        -2.7468   -8.8189   11.2124 H         1 44L         0.0267
     53 H15        -3.1050   -6.4199   10.6531 H         1 44L         0.0290
     54 H16        -4.8690   -6.6441   10.9078 H         1 44L         0.0290
     55 H17        -4.8795   -8.3482    9.0820 H         1 44L         0.0503
     56 H18        -3.1381   -8.0136    8.7954 H         1 44L         0.0503
     57 H19        -2.6274   -6.3273    7.4149 H         1 44L         0.2159
     58 H20        -5.1805   -3.1286    7.0730 H         1 44L         0.1690
     59 H21        -2.2676   -2.8033    6.9476 H         1 44L         0.0502
     60 H22        -2.9061   -3.1527    8.5898 H         1 44L         0.0502
     61 H23        -3.8475   -0.9166    6.7478 H         1 44L         0.0640
     62 H24        -1.9329   -0.8994    9.1279 H         1 44L         0.0651
     63 H25        -1.9968    0.4177    6.5848 H         1 44L         0.2100
     64 H26        -2.7163    1.3539    9.6124 H         1 44L         0.0735
     65 H27        -5.4001    0.8535    9.0140 H         1 44L         0.0999
     66 H28        -9.0317   -0.5844   11.5387 H         1 44L         0.0996
@<TRIPOS>BOND
     1    1    3 ar 
     2    4    1 1  
     3    1   34 ar 
     4   37    2 1  
     5   33    3 1  
     6    3   37 ar 
     7    4    5 1  
     8   32    4 1  
     9    5   33 2  
    10    6    7 1  
    11    6   11 1  
    12   14    6 1  
    13    7    8 am 
    14    8    9 2  
    15   10    8 am 
    16   11   10 1  
    17   12   11 1  
    18   13   12 1  
    19   14   13 1  
    20   15   14 1  
    21   16   15 1  
    22   17   16 1  
    23   18   17 1  
    24   19   18 1  
    25   19   20 2  
    26   21   19 am 
    27   22   21 am 
    28   22   23 2  
    29   22   24 2  
    30   25   22 am 
    31   26   25 1  
    32   27   26 1  
    33   28   27 1  
    34   27   29 1  
    35   28   32 1  
    36   29   30 1  
    37   29   31 1  
    38   31   32 1  
    39   31   38 1  
    40   34   35 ar 
    41   35   36 ar 
    42   36   37 ar 
    43    2   39 1  
    44    2   40 1  
    45    5   41 1  
    46    6   42 1  
    47    7   43 1  
    48   10   44 1  
    49   11   45 1  
    50   12   46 1  
    51   12   47 1  
    52   14   48 1  
    53   15   49 1  
    54   15   50 1  
    55   16   51 1  
    56   16   52 1  
    57   17   53 1  
    58   17   54 1  
    59   18   55 1  
    60   18   56 1  
    61   21   57 1  
    62   25   58 1  
    63   26   59 1  
    64   26   60 1  
    65   27   61 1  
    66   29   62 1  
    67   30   63 1  
    68   31   64 1  
    69   32   65 1  
    70   35   66 1  
@<TRIPOS>SUBSTRUCTURE
     1 44L         1

