### 
### Created by X-TOOL on Mon Sep 10 21:13:23 2018
### 

@<TRIPOS>MOLECULE
4xtz_ligand
   65    69     1     0     0
SMALL
GAST_HUCK


@<TRIPOS>ATOM
      1 CBI        -2.2120  -10.0300   13.8170 C.3       1 594         0.0775
      2 NAU        -0.9930   -9.2980   13.5280 N.am      1 594        -0.2668
      3 CBA        -0.0610   -9.5090   14.4540 C.2       1 594         0.2580
      4 OAC         1.0300   -8.9580   14.4970 O.2       1 594        -0.4008
      5 NAT        -0.4860  -10.3920   15.3460 N.am      1 594        -0.2671
      6 CBF        -1.8880  -10.6900   15.1590 C.3       1 594         0.0750
      7 CAO        -2.6460  -10.0480   16.3100 C.3       1 594         0.0190
      8 SAY        -3.4360   -8.6370   15.6290 S.3       1 594        -0.1527
      9 CBH        -3.4110   -9.0950   13.9320 C.3       1 594         0.0302
     10 CAK        -3.3010   -7.8960   12.9990 C.3       1 594        -0.0388
     11 CAI        -3.5850   -8.3520   11.5720 C.3       1 594        -0.0499
     12 CAH        -3.9010   -7.1860   10.6430 C.3       1 594        -0.0360
     13 CAJ        -4.1890   -7.6800    9.2280 C.3       1 594         0.0389
     14 CAZ        -4.5930   -6.5120    8.3600 C.2       1 594         0.1976
     15 OAB        -5.6950   -6.0010    8.4820 O.2       1 594        -0.3954
     16 NAV        -3.6870   -6.0750    7.4900 N.am      1 594        -0.1342
     17 SBK        -4.0830   -4.9680    6.4030 S.o2      1 594         0.1858
     18 OAD        -5.2660   -5.3800    5.7000 O.2       1 594        -0.1218
     19 OAE        -3.0050   -4.7910    5.4710 O.2       1 594        -0.1218
     20 OAW        -4.3600   -3.6520    7.1450 O.3       1 594        -0.2161
     21 CAN        -3.2960   -2.8760    7.6950 C.3       1 594         0.1073
     22 CBE        -3.7290   -1.4160    7.7380 C.3       1 594         0.1164
     23 OAX        -4.8720   -1.2110    8.5820 O.3       1 594        -0.3364
     24 CAL        -2.6540   -0.4780    8.2600 C.3       1 594         0.1198
     25 OAL        -1.7840   -0.0730    7.2020 O.3       1 594        -0.3861
     26 CAM        -3.4750    0.6850    8.7800 C.3       1 594         0.1839
     27 F8Q        -2.8140    1.4350    9.7180 F         1 594        -0.2369
     28 CBG        -4.7590    0.0330    9.2900 C.3       1 594         0.2061
     29 N9         -4.7870   -0.2340   10.7560 N.pl3     1 594        -0.1916
     30 C8         -3.7520   -0.3340   11.6080 C.2       1 594         0.1123
     31 N7         -4.2160   -0.5960   12.8510 N.2       1 594        -0.2958
     32 C5         -5.5610   -0.6690   12.7670 C.ar      1 594         0.1045
     33 C4         -5.9080   -0.4460   11.4480 C.ar      1 594         0.1613
     34 N3         -7.2120   -0.4640   11.0840 N.ar      1 594        -0.2714
     35 C2         -8.1600   -0.7040   11.9970 C.ar      1 594         0.0533
     36 N1         -7.8520   -0.9220   13.2820 N.ar      1 594        -0.2698
     37 C6         -6.5650   -0.9130   13.6940 C.ar      1 594         0.1298
     38 N6         -6.2620   -1.1380   14.9950 N.pl3     1 594        -0.3152
     39 H1         -2.4129  -10.7851   13.0428 H         1 594         0.0587
     40 H2         -0.8685   -8.7074   12.7307 H         1 594         0.1849
     41 H3          0.0884  -10.7992   16.0561 H         1 594         0.1849
     42 H4         -2.0825  -11.7722   15.1277 H         1 594         0.0584
     43 H5         -1.9506   -9.7502   17.1086 H         1 594         0.0399
     44 H6         -3.3922  -10.7472   16.7153 H         1 594         0.0399
     45 H7         -4.3333   -9.6394   13.6813 H         1 594         0.0435
     46 H8         -2.2864   -7.4751   13.0569 H         1 594         0.0277
     47 H9         -4.0332   -7.1301   13.2943 H         1 594         0.0277
     48 H10        -4.4454   -9.0372   11.5844 H         1 594         0.0267
     49 H11        -2.7006   -8.8808   11.1872 H         1 594         0.0267
     50 H12        -3.0398   -6.5022   10.6174 H         1 594         0.0290
     51 H13        -4.7831   -6.6506   11.0241 H         1 594         0.0290
     52 H14        -5.0059   -8.4161    9.2557 H         1 594         0.0503
     53 H15        -3.2855   -8.1503    8.8127 H         1 594         0.0503
     54 H16        -2.7558   -6.4388    7.5148 H         1 594         0.2165
     55 H17        -2.3996   -2.9780    7.0657 H         1 594         0.0611
     56 H18        -3.0708   -3.2255    8.7134 H         1 594         0.0611
     57 H19        -3.9865   -1.1189    6.7107 H         1 594         0.0648
     58 H20        -2.0664   -0.9447    9.0643 H         1 594         0.0651
     59 H21        -1.1195    0.5120    7.5464 H         1 594         0.2100
     60 H22        -3.7225    1.3551    7.9435 H         1 594         0.0735
     61 H23        -5.6102    0.6848    9.0438 H         1 594         0.0999
     62 H24        -2.7027   -0.2215   11.3390 H         1 594         0.1349
     63 H25        -9.1995   -0.7224   11.6902 H         1 594         0.0996
     64 H26        -7.0141   -1.3181   15.6753 H         1 594         0.1820
     65 H27        -5.2795   -1.1290   15.3040 H         1 594         0.1820
@<TRIPOS>BOND
     1    1    2 1  
     2    1    6 1  
     3    1    9 1  
     4    2    3 am 
     5    3    4 2  
     6    3    5 am 
     7    5    6 1  
     8    6    7 1  
     9    7    8 1  
    10    8    9 1  
    11    9   10 1  
    12   10   11 1  
    13   11   12 1  
    14   12   13 1  
    15   13   14 1  
    16   14   15 2  
    17   14   16 am 
    18   16   17 am 
    19   17   18 2  
    20   17   19 2  
    21   17   20 1  
    22   20   21 1  
    23   21   22 1  
    24   22   23 1  
    25   22   24 1  
    26   23   28 1  
    27   24   25 1  
    28   24   26 1  
    29   26   27 1  
    30   26   28 1  
    31   28   29 1  
    32   29   30 1  
    33   29   33 1  
    34   30   31 2  
    35   31   32 1  
    36   32   33 ar 
    37   32   37 ar 
    38   33   34 ar 
    39   34   35 ar 
    40   35   36 ar 
    41   36   37 ar 
    42   37   38 1  
    43    1   39 1  
    44    2   40 1  
    45    5   41 1  
    46    6   42 1  
    47    7   43 1  
    48    7   44 1  
    49    9   45 1  
    50   10   46 1  
    51   10   47 1  
    52   11   48 1  
    53   11   49 1  
    54   12   50 1  
    55   12   51 1  
    56   13   52 1  
    57   13   53 1  
    58   16   54 1  
    59   21   55 1  
    60   21   56 1  
    61   22   57 1  
    62   24   58 1  
    63   25   59 1  
    64   26   60 1  
    65   28   61 1  
    66   30   62 1  
    67   35   63 1  
    68   38   64 1  
    69   38   65 1  
@<TRIPOS>SUBSTRUCTURE
     1 594         1

