### 
### Created by X-TOOL on Mon Sep 10 21:13:24 2018
### 

@<TRIPOS>MOLECULE
4xu0_ligand
   69    73     1     0     0
SMALL
GAST_HUCK


@<TRIPOS>ATOM
      1 C2         -8.1300   -0.5920   12.0710 C.ar      1 44N         0.0533
      2 C5         -5.5270   -0.7000   12.8130 C.ar      1 44N         0.1045
      3 C4         -5.8740   -0.4150   11.5050 C.ar      1 44N         0.1613
      4 N3         -7.1810   -0.3610   11.1560 N.ar      1 44N        -0.2714
      5 C8         -3.7160   -0.4080   11.6400 C.2       1 44N         0.1123
      6 N1         -7.8210   -0.8660   13.3430 N.ar      1 44N        -0.2698
      7 C6         -6.5340   -0.9290   13.7440 C.ar      1 44N         0.1298
      8 CBI        -2.2310   -9.9870   13.8270 C.3       1 44N         0.0775
      9 NAU        -1.0030   -9.2810   13.5090 N.am      1 44N        -0.2668
     10 CBA        -0.0720   -9.4700   14.4390 C.2       1 44N         0.2580
     11 OAC         0.9880   -8.8630   14.5090 O.2       1 44N        -0.4008
     12 NAT        -0.4790  -10.3820   15.3120 N.am      1 44N        -0.2671
     13 CBF        -1.8930  -10.6480   15.1660 C.3       1 44N         0.0750
     14 CAO        -2.6230  -10.0170   16.3420 C.3       1 44N         0.0190
     15 SAY        -3.4340   -8.6160   15.6640 S.3       1 44N        -0.1527
     16 CBH        -3.4340   -9.0580   13.9560 C.3       1 44N         0.0302
     17 CAK        -3.3330   -7.8770   12.9980 C.3       1 44N        -0.0388
     18 CAI        -3.7220   -8.3490   11.6020 C.3       1 44N        -0.0499
     19 CAH        -3.9680   -7.1740   10.6670 C.3       1 44N        -0.0360
     20 CAJ        -4.2040   -7.6430    9.2350 C.3       1 44N         0.0389
     21 CAZ        -4.5880   -6.4550    8.3850 C.2       1 44N         0.1976
     22 OAB        -5.6770   -5.9280    8.5200 O.2       1 44N        -0.3954
     23 NAV        -3.6820   -6.0400    7.5070 N.am      1 44N        -0.1342
     24 SBK        -4.0420   -4.9340    6.4100 S.o2      1 44N         0.1858
     25 OAD        -5.2110   -5.3340    5.6800 O.2       1 44N        -0.1218
     26 OAE        -2.9490   -4.8000    5.4880 O.2       1 44N        -0.1218
     27 OAW        -4.3290   -3.5770    7.0640 O.3       1 44N        -0.2161
     28 CAN        -3.3840   -2.8950    7.8830 C.3       1 44N         0.1073
     29 CBE        -3.7700   -1.4220    7.8210 C.3       1 44N         0.1164
     30 OAX        -4.9130   -1.1590    8.6480 O.3       1 44N        -0.3365
     31 CAL        -2.6890   -0.4610    8.2860 C.3       1 44N         0.1172
     32 OAL        -1.8320   -0.1090    7.1980 O.3       1 44N        -0.3861
     33 CAM        -3.5190    0.7280    8.7190 C.3       1 44N         0.1462
     34 OAM        -3.9550    1.3990    7.5320 O.3       1 44N        -0.3806
     35 C8Q        -2.7520    1.7420    9.5640 C.3       1 44N        -0.0282
     36 CBG        -4.7630    0.0870    9.3440 C.3       1 44N         0.2036
     37 N9         -4.7530   -0.2250   10.8030 N.pl3     1 44N        -0.1916
     38 N7         -4.1800   -0.6880   12.8780 N.2       1 44N        -0.2958
     39 N6         -6.2410   -1.2140   15.0380 N.pl3     1 44N        -0.3152
     40 H1         -9.1721   -0.5562   11.7746 H         1 44N         0.0996
     41 H2         -2.6650   -0.3409   11.3628 H         1 44N         0.1349
     42 H3         -2.4495  -10.7449   13.0603 H         1 44N         0.0587
     43 H4         -0.8733   -8.7211   12.6906 H         1 44N         0.1849
     44 H5          0.1140  -10.8271   15.9830 H         1 44N         0.1849
     45 H6         -2.1040  -11.7271   15.1332 H         1 44N         0.0584
     46 H7         -1.9104   -9.7125   17.1226 H         1 44N         0.0399
     47 H8         -3.3542  -10.7203   16.7671 H         1 44N         0.0399
     48 H9         -4.3588   -9.6050   13.7205 H         1 44N         0.0435
     49 H10        -2.3010   -7.4964   12.9863 H         1 44N         0.0277
     50 H11        -4.0151   -7.0773   13.3223 H         1 44N         0.0277
     51 H12        -4.6406   -8.9502   11.6705 H         1 44N         0.0267
     52 H13        -2.9088   -8.9671   11.1937 H         1 44N         0.0267
     53 H14        -3.0904   -6.5111   10.6865 H         1 44N         0.0290
     54 H15        -4.8534   -6.6205   11.0129 H         1 44N         0.0290
     55 H16        -5.0155   -8.3854    9.2191 H         1 44N         0.0503
     56 H17        -3.2836   -8.0973    8.8394 H         1 44N         0.0503
     57 H18        -2.7597   -6.4256    7.5325 H         1 44N         0.2165
     58 H19        -2.3650   -3.0408    7.4954 H         1 44N         0.0611
     59 H20        -3.4385   -3.2623    8.9184 H         1 44N         0.0611
     60 H21        -4.0173   -1.1882    6.7750 H         1 44N         0.0648
     61 H22        -2.0977   -0.8749    9.1161 H         1 44N         0.0651
     62 H23        -2.3440    0.3081    6.5152 H         1 44N         0.2100
     63 H24        -3.1976    1.6843    7.0345 H         1 44N         0.2105
     64 H25        -3.4204    2.5717    9.8374 H         1 44N         0.0260
     65 H26        -1.9010    2.1319    8.9862 H         1 44N         0.0260
     66 H27        -2.3820    1.2531   10.4773 H         1 44N         0.0260
     67 H28        -5.6226    0.7450    9.1489 H         1 44N         0.0999
     68 H29        -7.0006   -1.3807   15.7134 H         1 44N         0.1820
     69 H30        -5.2590   -1.2636   15.3448 H         1 44N         0.1820
@<TRIPOS>BOND
     1    4    1 ar 
     2    1    6 ar 
     3    3    2 ar 
     4    2    7 ar 
     5   38    2 1  
     6    3    4 ar 
     7   37    3 1  
     8   37    5 1  
     9    5   38 2  
    10    7    6 ar 
    11    7   39 1  
    12    8    9 1  
    13    8   13 1  
    14   16    8 1  
    15    9   10 am 
    16   10   11 2  
    17   12   10 am 
    18   13   12 1  
    19   14   13 1  
    20   15   14 1  
    21   16   15 1  
    22   17   16 1  
    23   18   17 1  
    24   19   18 1  
    25   20   19 1  
    26   21   20 1  
    27   21   22 2  
    28   23   21 am 
    29   24   23 am 
    30   24   25 2  
    31   24   26 2  
    32   27   24 1  
    33   28   27 1  
    34   29   28 1  
    35   30   29 1  
    36   31   29 1  
    37   36   30 1  
    38   31   32 1  
    39   33   31 1  
    40   33   34 1  
    41   33   35 1  
    42   36   33 1  
    43   36   37 1  
    44    1   40 1  
    45    5   41 1  
    46    8   42 1  
    47    9   43 1  
    48   12   44 1  
    49   13   45 1  
    50   14   46 1  
    51   14   47 1  
    52   16   48 1  
    53   17   49 1  
    54   17   50 1  
    55   18   51 1  
    56   18   52 1  
    57   19   53 1  
    58   19   54 1  
    59   20   55 1  
    60   20   56 1  
    61   23   57 1  
    62   28   58 1  
    63   28   59 1  
    64   29   60 1  
    65   31   61 1  
    66   32   62 1  
    67   34   63 1  
    68   35   64 1  
    69   35   65 1  
    70   35   66 1  
    71   36   67 1  
    72   39   68 1  
    73   39   69 1  
@<TRIPOS>SUBSTRUCTURE
     1 44N         1

