### 
### Created by X-TOOL on Mon Sep 10 21:13:22 2018
### 

@<TRIPOS>MOLECULE
4xu1_ligand
   67    71     1     0     0
SMALL
GAST_HUCK


@<TRIPOS>ATOM
      1 C4         -6.4090   -1.2410   11.9340 C.ar      1 44O         0.1614
      2 C5         -6.1060   -1.4760   13.2700 C.ar      1 44O         0.1045
      3 C6         -7.1360   -1.7330   14.1630 C.ar      1 44O         0.1298
      4 C8         -4.2490   -1.1200   12.1750 C.2       1 44O         0.1124
      5 N1         -8.3970   -1.7550   13.6950 N.ar      1 44O        -0.2698
      6 N3         -7.6990   -1.2720   11.5140 N.ar      1 44O        -0.2713
      7 CBI        -2.7030  -10.7730   13.9520 C.3       1 44O         0.0775
      8 NAU        -1.4720  -10.0230   13.6850 N.am      1 44O        -0.2668
      9 CBA        -0.5650  -10.2340   14.6390 C.2       1 44O         0.2580
     10 OAC         0.5180   -9.6640   14.6960 O.2       1 44O        -0.4008
     11 NAT        -1.0110  -11.1230   15.5400 N.am      1 44O        -0.2671
     12 CBF        -2.3820  -11.4960   15.2620 C.3       1 44O         0.0750
     13 CAO        -3.2810  -10.9890   16.3910 C.3       1 44O         0.0190
     14 SAY        -3.8610   -9.4020   15.8640 S.3       1 44O        -0.1527
     15 CBH        -3.9380   -9.8840   14.1580 C.3       1 44O         0.0302
     16 CAK        -4.0190   -8.6830   13.2170 C.3       1 44O        -0.0388
     17 CAI        -4.2560   -9.0980   11.7610 C.3       1 44O        -0.0499
     18 CAH        -4.5800   -7.8990   10.8670 C.3       1 44O        -0.0360
     19 CAJ        -4.7830   -8.3380    9.4160 C.3       1 44O         0.0389
     20 CAZ        -5.2250   -7.1640    8.5700 C.2       1 44O         0.1976
     21 OAB        -6.2760   -6.5990    8.8170 O.2       1 44O        -0.3954
     22 NAV        -4.4010   -6.8460    7.5850 N.am      1 44O        -0.1342
     23 SBK        -4.7200   -5.6430    6.5690 S.o2      1 44O         0.1858
     24 OAD        -6.0240   -5.8330    6.0020 O.2       1 44O        -0.1218
     25 OAE        -3.7490   -5.6160    5.5160 O.2       1 44O        -0.1218
     26 OAW        -4.8330   -4.3380    7.3250 O.3       1 44O        -0.2160
     27 CAN        -3.7330   -3.7190    7.9660 C.3       1 44O         0.1098
     28 CBE        -4.2320   -2.2890    8.1010 C.3       1 44O         0.1273
     29 OAX        -4.7390   -2.1140    9.4240 O.3       1 44O        -0.3321
     30 CAL        -3.0840   -1.3400    7.8140 C.3       1 44O        -0.0042
     31 NAS        -3.5070   -0.0100    8.1870 N.4       1 44O         0.2328
     32 CAM        -4.0010    0.2260    9.5280 C.3       1 44O         0.0234
     33 CBG        -5.0960   -0.7850    9.8550 C.3       1 44O         0.2128
     34 N9         -5.2570   -1.0110   11.3020 N.pl3     1 44O        -0.1896
     35 N7         -4.7590   -1.3830   13.3870 N.2       1 44O        -0.2957
     36 C2         -8.6680   -1.5320   12.4010 C.ar      1 44O         0.0533
     37 N6         -6.9050   -1.9890   15.4830 N.pl3     1 44O        -0.3152
     38 H1         -3.1910   -1.0130   11.9405 H         1 44O         0.1349
     39 H2         -2.9022  -11.4859   13.1383 H         1 44O         0.0587
     40 H3         -1.3311   -9.4309   12.8915 H         1 44O         0.1849
     41 H4         -0.4692  -11.4798   16.3010 H         1 44O         0.1849
     42 H5         -2.4891  -12.5852   15.1521 H         1 44O         0.0584
     43 H6         -2.7083  -10.8972   17.3257 H         1 44O         0.0399
     44 H7         -4.1270  -11.6749   16.5452 H         1 44O         0.0399
     45 H8         -4.8415  -10.4894   13.9932 H         1 44O         0.0435
     46 H9         -3.0737   -8.1236   13.2756 H         1 44O         0.0277
     47 H10        -4.8483   -8.0364   13.5397 H         1 44O         0.0277
     48 H11        -5.0983   -9.8045   11.7260 H         1 44O         0.0267
     49 H12        -3.3488   -9.5898   11.3800 H         1 44O         0.0267
     50 H13        -3.7482   -7.1807   10.9127 H         1 44O         0.0290
     51 H14        -5.5003   -7.4179   11.2296 H         1 44O         0.0290
     52 H15        -5.5529   -9.1227    9.3784 H         1 44O         0.0503
     53 H16        -3.8360   -8.7341    9.0207 H         1 44O         0.0503
     54 H17        -3.5564   -7.3688    7.4697 H         1 44O         0.2165
     55 H18        -2.8249   -3.7717    7.3476 H         1 44O         0.0612
     56 H19        -3.5338   -4.1703    8.9492 H         1 44O         0.0612
     57 H20        -5.0395   -2.1068    7.3767 H         1 44O         0.0675
     58 H21        -2.8351   -1.3669    6.7429 H         1 44O         0.0840
     59 H22        -2.2017   -1.6310    8.4029 H         1 44O         0.0840
     60 H23        -4.2437    0.2535    7.5515 H         1 44O         0.2016
     61 H24        -2.7148    0.5989    8.0540 H         1 44O         0.2016
     62 H25        -4.4117    1.2444    9.5930 H         1 44O         0.0869
     63 H26        -3.1755    0.1169   10.2468 H         1 44O         0.0869
     64 H27        -6.0391   -0.4524    9.3969 H         1 44O         0.1025
     65 H28        -9.6979   -1.5630   12.0642 H         1 44O         0.0996
     66 H29        -7.6948   -2.1757   16.1173 H         1 44O         0.1820
     67 H30        -5.9408   -1.9956   15.8453 H         1 44O         0.1820
@<TRIPOS>BOND
     1    1    2 ar 
     2    1    6 ar 
     3   34    1 1  
     4    2    3 ar 
     5   35    2 1  
     6    3    5 ar 
     7    3   37 1  
     8   34    4 1  
     9    4   35 2  
    10   36    5 ar 
    11    6   36 ar 
    12    7    8 1  
    13    7   12 1  
    14   15    7 1  
    15    8    9 am 
    16    9   10 2  
    17   11    9 am 
    18   12   11 1  
    19   13   12 1  
    20   14   13 1  
    21   15   14 1  
    22   16   15 1  
    23   17   16 1  
    24   18   17 1  
    25   19   18 1  
    26   20   19 1  
    27   20   21 2  
    28   22   20 am 
    29   23   22 am 
    30   23   24 2  
    31   23   25 2  
    32   26   23 1  
    33   27   26 1  
    34   28   27 1  
    35   29   28 1  
    36   28   30 1  
    37   33   29 1  
    38   31   30 1  
    39   32   31 1  
    40   33   32 1  
    41   33   34 1  
    42    4   38 1  
    43    7   39 1  
    44    8   40 1  
    45   11   41 1  
    46   12   42 1  
    47   13   43 1  
    48   13   44 1  
    49   15   45 1  
    50   16   46 1  
    51   16   47 1  
    52   17   48 1  
    53   17   49 1  
    54   18   50 1  
    55   18   51 1  
    56   19   52 1  
    57   19   53 1  
    58   22   54 1  
    59   27   55 1  
    60   27   56 1  
    61   28   57 1  
    62   30   58 1  
    63   30   59 1  
    64   31   60 1  
    65   31   61 1  
    66   32   62 1  
    67   32   63 1  
    68   33   64 1  
    69   36   65 1  
    70   37   66 1  
    71   37   67 1  
@<TRIPOS>SUBSTRUCTURE
     1 44O         1

