### 
### Created by X-TOOL on Mon Sep 10 21:13:23 2018
### 

@<TRIPOS>MOLECULE
4xu3_ligand
   61    64     1     0     0
SMALL
GAST_HUCK


@<TRIPOS>ATOM
      1 C2         -7.9830   -0.8360   11.9430 C.ar      1 44R         0.0533
      2 C4         -5.7150   -0.4180   11.5860 C.ar      1 44R         0.1610
      3 C5         -5.4690   -0.6170   12.9330 C.ar      1 44R         0.1045
      4 C6         -6.5280   -0.9260   13.7730 C.ar      1 44R         0.1298
      5 N1         -7.7710   -1.0270   13.2540 N.ar      1 44R        -0.2698
      6 N3         -6.9770   -0.5360   11.1110 N.ar      1 44R        -0.2714
      7 C8         -3.5890   -0.1560   11.9390 C.2       1 44R         0.1119
      8 CBI        -2.1730  -10.0380   13.8600 C.3       1 44R         0.0775
      9 NAU        -0.9670   -9.3290   13.4760 N.am      1 44R        -0.2668
     10 CBA        -0.0140   -9.4500   14.3960 C.2       1 44R         0.2580
     11 OAC         1.0770   -8.9030   14.3530 O.2       1 44R        -0.4008
     12 NAT        -0.4160  -10.2370   15.3830 N.am      1 44R        -0.2671
     13 CBF        -1.8200  -10.5520   15.2570 C.3       1 44R         0.0750
     14 CAO        -2.5620   -9.8080   16.3550 C.3       1 44R         0.0190
     15 SAY        -3.5920   -8.6430   15.5470 S.3       1 44R        -0.1527
     16 CBH        -3.3920   -9.1210   13.8700 C.3       1 44R         0.0302
     17 CAK        -3.2120   -7.9110   12.9660 C.3       1 44R        -0.0388
     18 CAI        -3.5580   -8.2950   11.5330 C.3       1 44R        -0.0499
     19 CAH        -3.6830   -7.0670   10.6420 C.3       1 44R        -0.0360
     20 CAJ        -4.0790   -7.4760    9.2300 C.3       1 44R         0.0388
     21 CAZ        -4.4590   -6.2530    8.4300 C.2       1 44R         0.1971
     22 OAB        -5.5420   -5.7230    8.6110 O.2       1 44R        -0.3954
     23 NAV        -3.5600   -5.8220    7.5460 N.am      1 44R        -0.1416
     24 SBK        -3.9540   -4.7650    6.4070 S.o2      1 44R         0.1391
     25 OAD        -5.3130   -4.9670    5.9900 O.2       1 44R        -0.1307
     26 OAE        -3.0940   -4.9340    5.2690 O.2       1 44R        -0.1307
     27 NAW        -3.7760   -3.2690    6.9390 N.am      1 44R        -0.2291
     28 CAN        -3.0680   -3.0040    8.1730 C.3       1 44R         0.0516
     29 CBE        -3.0370   -1.5120    8.4790 C.3       1 44R         0.0676
     30 OAX        -4.3340   -1.1330    8.9250 O.3       1 44R        -0.3485
     31 CBG        -4.3460    0.1310    9.5830 C.3       1 44R         0.1615
     32 N9         -4.5470   -0.1430   11.0020 N.pl3     1 44R        -0.1973
     33 N7         -4.1470   -0.4490   13.1340 N.2       1 44R        -0.2958
     34 N6         -6.3170   -1.1230   15.0980 N.pl3     1 44R        -0.3152
     35 H1         -8.9889   -0.9263   11.5491 H         1 44R         0.0996
     36 H2         -2.5316    0.0382   11.7653 H         1 44R         0.1349
     37 H3         -2.3665  -10.8770   13.1755 H         1 44R         0.0587
     38 H4         -0.8648   -8.8134   12.6253 H         1 44R         0.1849
     39 H5          0.1747  -10.5692   16.1183 H         1 44R         0.1849
     40 H6         -2.0084  -11.6327   15.3383 H         1 44R         0.0584
     41 H7         -1.8490   -9.2929   17.0155 H         1 44R         0.0399
     42 H8         -3.1698  -10.5084   16.9466 H         1 44R         0.0399
     43 H9         -4.2778   -9.6789   13.5323 H         1 44R         0.0435
     44 H10        -2.1672   -7.5701   13.0126 H         1 44R         0.0277
     45 H11        -3.8773   -7.1011   13.2998 H         1 44R         0.0277
     46 H12        -4.5145   -8.8383   11.5293 H         1 44R         0.0267
     47 H13        -2.7651   -8.9458   11.1358 H         1 44R         0.0267
     48 H14        -2.7169   -6.5421   10.6101 H         1 44R         0.0290
     49 H15        -4.4513   -6.3963   11.0543 H         1 44R         0.0290
     50 H16        -4.9368   -8.1631    9.2760 H         1 44R         0.0503
     51 H17        -3.2306   -7.9806    8.7446 H         1 44R         0.0503
     52 H18        -2.6217   -6.1644    7.5940 H         1 44R         0.2159
     53 H19        -4.1576   -2.5082    6.4140 H         1 44R         0.1690
     54 H20        -2.0359   -3.3732    8.0813 H         1 44R         0.0499
     55 H21        -3.5734   -3.5291    8.9969 H         1 44R         0.0499
     56 H22        -2.7741   -0.9491    7.5713 H         1 44R         0.0577
     57 H23        -2.2959   -1.3065    9.2655 H         1 44R         0.0577
     58 H24        -5.1665    0.7531    9.1961 H         1 44R         0.0930
     59 H25        -3.3883    0.6493    9.4280 H         1 44R         0.0930
     60 H26        -7.1077   -1.3523   15.7169 H         1 44R         0.1820
     61 H27        -5.3660   -1.0433   15.4855 H         1 44R         0.1820
@<TRIPOS>BOND
     1    1    5 ar 
     2    6    1 ar 
     3    2    3 ar 
     4    2    6 ar 
     5   32    2 1  
     6    3    4 ar 
     7   33    3 1  
     8    4    5 ar 
     9    4   34 1  
    10   32    7 1  
    11    7   33 2  
    12    8    9 1  
    13    8   13 1  
    14   16    8 1  
    15    9   10 am 
    16   10   11 2  
    17   12   10 am 
    18   13   12 1  
    19   14   13 1  
    20   15   14 1  
    21   16   15 1  
    22   17   16 1  
    23   18   17 1  
    24   19   18 1  
    25   20   19 1  
    26   21   20 1  
    27   21   22 2  
    28   23   21 am 
    29   24   23 am 
    30   24   25 2  
    31   24   26 2  
    32   27   24 am 
    33   28   27 1  
    34   29   28 1  
    35   30   29 1  
    36   31   30 1  
    37   31   32 1  
    38    1   35 1  
    39    7   36 1  
    40    8   37 1  
    41    9   38 1  
    42   12   39 1  
    43   13   40 1  
    44   14   41 1  
    45   14   42 1  
    46   16   43 1  
    47   17   44 1  
    48   17   45 1  
    49   18   46 1  
    50   18   47 1  
    51   19   48 1  
    52   19   49 1  
    53   20   50 1  
    54   20   51 1  
    55   23   52 1  
    56   27   53 1  
    57   28   54 1  
    58   28   55 1  
    59   29   56 1  
    60   29   57 1  
    61   31   58 1  
    62   31   59 1  
    63   34   60 1  
    64   34   61 1  
@<TRIPOS>SUBSTRUCTURE
     1 44R         1

