### 
### Created by X-TOOL on Mon Sep 10 21:13:23 2018
### 

@<TRIPOS>MOLECULE
4xua_ligand
   45    48     1     0     0
SMALL
GAST_HUCK


@<TRIPOS>ATOM
      1 CAA        72.5370   37.0250    4.0010 C.3       1 43C        -0.0305
      2 CAT        72.4180   38.3070    3.2060 C.2       1 43C         0.0339
      3 CAN        73.1530   38.5950    2.1350 C.2       1 43C         0.0692
      4 NAR        71.5480   39.2940    3.4460 N.2       1 43C        -0.2268
      5 NAS        71.7230   40.1460    2.5730 N.2       1 43C        -0.1019
      6 NAZ        72.6930   39.7800    1.7360 N.pl3     1 43C        -0.1785
      7 CAO        73.0880   40.6780    0.6220 C.3       1 43C         0.1033
      8 CAP        72.7070   40.0420   -0.7140 C.3       1 43C         0.0899
      9 NBA        71.2240   40.1480   -0.8530 N.pl3     1 43C        -0.2340
     10 CAM        70.6380   41.2330   -1.3080 C.2       1 43C         0.1059
     11 NAQ        69.2960   41.0750   -1.3000 N.2       1 43C        -0.3070
     12 CAX        69.0420   39.8310   -0.8140 C.2       1 43C         0.0426
     13 CAV        67.7680   39.3710   -0.7060 C.ar      1 43C        -0.0214
     14 CAG        66.7390   40.2780   -0.6830 C.ar      1 43C        -0.0589
     15 CAE        65.4120   39.9320   -0.6400 C.ar      1 43C        -0.0650
     16 CAD        65.1000   38.5900   -0.5400 C.ar      1 43C        -0.0651
     17 CAF        66.1210   37.6600   -0.5260 C.ar      1 43C        -0.0650
     18 CAH        67.4260   38.0060   -0.6440 C.ar      1 43C        -0.0589
     19 CAY        70.2290   39.2530   -0.5110 C.2       1 43C         0.1011
     20 CAW        70.4410   38.0060   -0.0010 C.ar      1 43C         0.0126
     21 CAK        69.8060   37.6270    1.2070 C.ar      1 43C        -0.0447
     22 CAI        70.0070   36.3650    1.7570 C.ar      1 43C        -0.0303
     23 CAU        70.8340   35.4570    1.1250 C.ar      1 43C         0.0907
     24 CAC        71.0280   34.1100    1.6740 C.1       1 43C         0.0946
     25 NAB        71.1670   33.0910    2.0990 N.1       1 43C        -0.3335
     26 CAJ        71.4510   35.8040   -0.0850 C.ar      1 43C        -0.0303
     27 CAL        71.2520   37.0750   -0.6390 C.ar      1 43C        -0.0447
     28 H1         73.3372   36.4021    3.5746 H         1 43C         0.0345
     29 H2         71.5840   36.4773    3.9584 H         1 43C         0.0345
     30 H3         72.7764   37.2635    5.0478 H         1 43C         0.0345
     31 H4         73.9474   37.9994    1.6877 H         1 43C         0.0898
     32 H5         74.1754   40.8410    0.6521 H         1 43C         0.0676
     33 H6         72.5696   41.6423    0.7286 H         1 43C         0.0676
     34 H7         73.0111   38.9850   -0.7274 H         1 43C         0.0652
     35 H8         73.2009   40.5762   -1.5390 H         1 43C         0.0652
     36 H9         71.1584   42.1291   -1.6428 H         1 43C         0.1288
     37 H10        66.9897   41.3325   -0.6998 H         1 43C         0.0592
     38 H11        64.6346   40.6863   -0.6830 H         1 43C         0.0608
     39 H12        64.0662   38.2707   -0.4733 H         1 43C         0.0589
     40 H13        65.8685   36.6116   -0.4163 H         1 43C         0.0608
     41 H14        68.1952   37.2436   -0.6900 H         1 43C         0.0592
     42 H15        69.1535   38.3310    1.7107 H         1 43C         0.0624
     43 H16        69.5136   36.0938    2.6833 H         1 43C         0.0705
     44 H17        72.0843   35.0862   -0.5937 H         1 43C         0.0705
     45 H18        71.7350   37.3349   -1.5740 H         1 43C         0.0624
@<TRIPOS>BOND
     1    1    2 1  
     2    2    3 2  
     3    2    4 1  
     4    3    6 1  
     5    4    5 2  
     6    5    6 1  
     7    6    7 1  
     8    7    8 1  
     9    8    9 1  
    10    9   10 1  
    11    9   19 1  
    12   10   11 2  
    13   11   12 1  
    14   12   13 1  
    15   12   19 2  
    16   13   14 ar 
    17   13   18 ar 
    18   14   15 ar 
    19   15   16 ar 
    20   16   17 ar 
    21   17   18 ar 
    22   19   20 1  
    23   20   21 ar 
    24   20   27 ar 
    25   21   22 ar 
    26   22   23 ar 
    27   23   24 1  
    28   23   26 ar 
    29   24   25 3  
    30   26   27 ar 
    31    1   28 1  
    32    1   29 1  
    33    1   30 1  
    34    3   31 1  
    35    7   32 1  
    36    7   33 1  
    37    8   34 1  
    38    8   35 1  
    39   10   36 1  
    40   14   37 1  
    41   15   38 1  
    42   16   39 1  
    43   17   40 1  
    44   18   41 1  
    45   21   42 1  
    46   22   43 1  
    47   26   44 1  
    48   27   45 1  
@<TRIPOS>SUBSTRUCTURE
     1 43C         1

