### 
### Created by X-TOOL on Mon Sep 10 21:13:23 2018
### 

@<TRIPOS>MOLECULE
4xuc_ligand
   35    37     1     0     0
SMALL
GAST_HUCK


@<TRIPOS>ATOM
      1 C          -7.9990    4.3670  -23.3790 C.2       1 43G         0.1047
      2 C1         -8.0180    3.5030  -24.4860 C.2       1 43G         0.0388
      3 N          -7.2670    2.3630  -24.5390 N.pl3     1 43G        -0.2667
      4 C2         -6.5110    2.0550  -23.4500 C.2       1 43G         0.0198
      5 C3         -6.4220    2.8530  -22.2960 C.2       1 43G        -0.0422
      6 C4         -7.2080    4.0130  -22.2700 C.3       1 43G         0.1187
      7 O          -7.1850    4.7980  -21.2000 O.3       1 43G        -0.3745
      8 O5         -8.7420    5.5050  -23.3640 O.3       1 43G        -0.3419
      9 C6         -7.3550    1.5440  -25.6070 C.ar      1 43G         0.0641
     10 C7         -7.3520    1.9820  -26.9370 C.ar      1 43G        -0.0330
     11 C8         -7.4900    1.1080  -28.0080 C.ar      1 43G        -0.0305
     12 C9         -7.6540   -0.2500  -27.7270 C.ar      1 43G        -0.0685
     13 C10        -7.7000   -0.7370  -26.4200 C.ar      1 43G        -0.0736
     14 C11        -7.5580    0.1720  -25.3780 C.ar      1 43G        -0.0402
     15 C12        -7.4750    1.6010  -29.4120 C.ar      1 43G        -0.0213
     16 C13        -8.3600    1.0290  -30.3380 C.ar      1 43G        -0.0543
     17 C14        -8.4130    1.4660  -31.6600 C.ar      1 43G        -0.0612
     18 C15        -7.5660    2.4940  -32.0550 C.ar      1 43G        -0.0617
     19 C16        -6.6790    3.0700  -31.1530 C.ar      1 43G        -0.0612
     20 C17        -6.6300    2.6230  -29.8190 C.ar      1 43G        -0.0543
     21 H1         -8.6551    3.7510  -25.3337 H         1 43G         0.0534
     22 H2         -5.9374    1.1296  -23.4741 H         1 43G         0.0833
     23 H3         -5.7742    2.5831  -21.4633 H         1 43G         0.0382
     24 H4         -8.0473    3.4426  -21.8456 H         1 43G         0.0823
     25 H5         -7.7667    5.5364  -21.3378 H         1 43G         0.2144
     26 H6         -9.3641    5.4662  -22.6472 H         1 43G         0.2449
     27 H7         -7.2379    3.0411  -27.1381 H         1 43G         0.0520
     28 H8         -7.7486   -0.9484  -28.5506 H         1 43G         0.0502
     29 H9         -7.8423   -1.7934  -26.2231 H         1 43G         0.0580
     30 H10        -7.6053   -0.1884  -24.3568 H         1 43G         0.0519
     31 H11        -9.0175    0.2289  -30.0178 H         1 43G         0.0624
     32 H12        -9.1006    1.0135  -32.3654 H         1 43G         0.0618
     33 H13        -7.5972    2.8509  -33.0781 H         1 43G         0.0618
     34 H14        -6.0213    3.8678  -31.4786 H         1 43G         0.0618
     35 H15        -5.9383    3.0733  -29.1163 H         1 43G         0.0624
@<TRIPOS>BOND
     1    1    2 2  
     2    1    6 1  
     3    1    8 1  
     4    2    3 1  
     5    3    4 1  
     6    3    9 1  
     7    4    5 2  
     8    5    6 1  
     9    6    7 1  
    10    9   10 ar 
    11    9   14 ar 
    12   10   11 ar 
    13   11   12 ar 
    14   11   15 1  
    15   12   13 ar 
    16   13   14 ar 
    17   15   16 ar 
    18   15   20 ar 
    19   16   17 ar 
    20   17   18 ar 
    21   18   19 ar 
    22   19   20 ar 
    23    2   21 1  
    24    4   22 1  
    25    5   23 1  
    26    6   24 1  
    27    7   25 1  
    28    8   26 1  
    29   10   27 1  
    30   12   28 1  
    31   13   29 1  
    32   14   30 1  
    33   16   31 1  
    34   17   32 1  
    35   18   33 1  
    36   19   34 1  
    37   20   35 1  
@<TRIPOS>SUBSTRUCTURE
     1 43G         1

