### 
### Created by X-TOOL on Mon Sep 10 21:13:24 2018
### 

@<TRIPOS>MOLECULE
4xue_ligand
   37    39     1     0     0
SMALL
GAST_HUCK


@<TRIPOS>ATOM
      1 C12        14.2560   -7.3820   -3.9810 C.ar      1 43J        -0.0479
      2 C13        13.0730   -9.8070   -0.5430 C.ar      1 43J        -0.0175
      3 C18        13.9510  -10.7650   -0.0270 C.ar      1 43J        -0.0540
      4 C14        11.8380   -9.6630    0.1130 C.ar      1 43J        -0.0540
      5 C15        11.4850  -10.4510    1.2160 C.ar      1 43J        -0.0612
      6 C16        12.3880  -11.4060    1.7080 C.ar      1 43J        -0.0617
      7 C11        13.6840   -6.7860   -2.8400 C.ar      1 43J        -0.0588
      8 C9         13.4670   -8.9590   -1.7360 C.ar      1 43J        -0.0154
      9 C1         16.2030  -10.8440   -7.2200 C.2       1 43J         0.1282
     10 C6         14.4240   -8.7770   -3.9890 C.ar      1 43J         0.0231
     11 C4         15.0340   -9.5210   -5.1500 C.2       1 43J         0.1098
     12 N          16.2880   -9.1780   -5.5130 N.2       1 43J        -0.3414
     13 C          16.8690   -9.8290   -6.5420 C.2       1 43J        -0.0181
     14 C2         14.9080  -11.1910   -6.8200 C.3       1 43J         0.2056
     15 N3         14.3430  -10.5020   -5.7820 N.pl3     1 43J        -0.2544
     16 O          14.3310  -12.1760   -7.4950 O.3       1 43J        -0.3533
     17 O5         16.7600  -11.5240   -8.2330 O.3       1 43J        -0.3235
     18 C7         12.9770  -10.8750   -5.4070 C.3       1 43J         0.0248
     19 C8         14.0370   -9.5380   -2.8760 C.ar      1 43J        -0.0400
     20 C10        13.3090   -7.5720   -1.7450 C.ar      1 43J        -0.0526
     21 C17        13.6300  -11.5610    1.0820 C.ar      1 43J        -0.0612
     22 H1         14.5586   -6.7803   -4.8304 H         1 43J         0.0643
     23 H2         14.9163  -10.8974   -0.5021 H         1 43J         0.0623
     24 H3         11.1366   -8.9186   -0.2461 H         1 43J         0.0623
     25 H4         10.5175  -10.3236    1.6880 H         1 43J         0.0618
     26 H5         12.1262  -12.0173    2.5641 H         1 43J         0.0617
     27 H6         13.5336   -5.7129   -2.8102 H         1 43J         0.0621
     28 H7         17.8777   -9.5546   -6.8471 H         1 43J         0.0300
     29 H8         15.3023  -11.9235   -6.1004 H         1 43J         0.1104
     30 H9         14.9263  -12.4901   -8.1655 H         1 43J         0.2161
     31 H10        16.2273  -11.4211   -9.0128 H         1 43J         0.2554
     32 H11        12.6440  -10.2496   -4.5656 H         1 43J         0.0490
     33 H12        12.9548  -11.9334   -5.1083 H         1 43J         0.0490
     34 H13        12.3064  -10.7220   -6.2654 H         1 43J         0.0490
     35 H14        14.1844  -10.6117   -2.8995 H         1 43J         0.0651
     36 H15        12.8815   -7.0878   -0.8745 H         1 43J         0.0635
     37 H16        14.3397  -12.2920    1.4522 H         1 43J         0.0618
@<TRIPOS>BOND
     1    1    7 ar 
     2   10    1 ar 
     3    2    3 ar 
     4    2    4 ar 
     5    8    2 1  
     6    3   21 ar 
     7    4    5 ar 
     8    5    6 ar 
     9   21    6 ar 
    10    7   20 ar 
    11   19    8 ar 
    12    8   20 ar 
    13   13    9 2  
    14    9   14 1  
    15    9   17 1  
    16   11   10 1  
    17   10   19 ar 
    18   12   11 2  
    19   11   15 1  
    20   12   13 1  
    21   14   15 1  
    22   14   16 1  
    23   15   18 1  
    24    1   22 1  
    25    3   23 1  
    26    4   24 1  
    27    5   25 1  
    28    6   26 1  
    29    7   27 1  
    30   13   28 1  
    31   14   29 1  
    32   16   30 1  
    33   17   31 1  
    34   18   32 1  
    35   18   33 1  
    36   18   34 1  
    37   19   35 1  
    38   20   36 1  
    39   21   37 1  
@<TRIPOS>SUBSTRUCTURE
     1 43J         1

