### 
### Created by X-TOOL on Mon Sep 10 21:13:28 2018
### 

@<TRIPOS>MOLECULE
4xuh_ligand
   40    42     1     0     0
SMALL
GAST_HUCK


@<TRIPOS>ATOM
      1 F          17.7320    5.5730   10.2400 F         1 SFI        -0.1881
      2 S          18.5110   17.3670    5.3670 S.3       1 SFI        -0.0951
      3 C1         15.6450   10.2250    9.3510 C.2       1 SFI        -0.0587
      4 O1         12.0650    9.7090    9.3130 O.co2     1 SFI        -0.5670
      5 C2         16.5300    9.0030    9.4030 C.ar      1 SFI        -0.0506
      6 O2         13.5920    8.1750    9.1320 O.co2     1 SFI        -0.5670
      7 C3         16.1400   11.2400    8.6430 C.2       1 SFI        -0.0677
      8 C4         17.7270    9.4070    8.5740 C.ar      1 SFI        -0.0437
      9 C5         17.4050   10.9640    8.0760 C.2       1 SFI        -0.0291
     10 C6         14.2890   10.3070   10.0590 C.3       1 SFI         0.0169
     11 C7         16.5010    7.7480    9.9670 C.ar      1 SFI        -0.0375
     12 C8         18.7640    8.5380    8.3890 C.ar      1 SFI        -0.0709
     13 C9         18.2550   11.6450    7.3190 C.2       1 SFI        -0.0288
     14 C10        15.3790   12.5590    8.4870 C.3       1 SFI        -0.0471
     15 C11        17.5860    6.8490    9.7670 C.ar      1 SFI         0.1224
     16 C12        18.7310    7.2460    8.9730 C.ar      1 SFI        -0.0375
     17 C13        18.1970   13.0510    6.7150 C.ar      1 SFI         0.0007
     18 C14        13.2610    9.3420    9.4630 C.2       1 SFI         0.0416
     19 C15        17.5800   13.3670    5.5220 C.ar      1 SFI        -0.0443
     20 C16        18.9250   13.9390    7.4830 C.ar      1 SFI        -0.0443
     21 C17        17.6580   14.6880    5.1010 C.ar      1 SFI        -0.0367
     22 C18        18.9900   15.2530    7.0390 C.ar      1 SFI        -0.0367
     23 C19        18.3580   15.6210    5.8550 C.ar      1 SFI         0.0277
     24 C20        16.9080   17.9860    4.7800 C.3       1 SFI        -0.0023
     25 H1         13.9043   11.3335    9.9680 H         1 SFI         0.0533
     26 H2         14.4298   10.0610   11.1219 H         1 SFI         0.0533
     27 H3         15.6497    7.4435   10.5650 H         1 SFI         0.0557
     28 H4         19.6178    8.8376    7.7920 H         1 SFI         0.0585
     29 H5         19.1679   11.1006    7.0819 H         1 SFI         0.0966
     30 H6         14.4247   12.4982    9.0307 H         1 SFI         0.0338
     31 H7         15.1823   12.7450    7.4208 H         1 SFI         0.0338
     32 H8         15.9830   13.3816    8.8974 H         1 SFI         0.0338
     33 H9         19.5573    6.5598    8.8262 H         1 SFI         0.0538
     34 H10        17.0574   12.6172    4.9391 H         1 SFI         0.0699
     35 H11        19.4237   13.6238    8.3924 H         1 SFI         0.0699
     36 H12        17.1712   14.9918    4.1813 H         1 SFI         0.0601
     37 H13        19.5336   15.9930    7.6152 H         1 SFI         0.0601
     38 H14        17.0076   19.0415    4.4868 H         1 SFI         0.0370
     39 H15        16.1637   17.8979    5.5852 H         1 SFI         0.0370
     40 H16        16.5816   17.3937    3.9125 H         1 SFI         0.0370
@<TRIPOS>BOND
     1   15    1 1  
     2   23    2 1  
     3    2   24 1  
     4    5    3 1  
     5    7    3 2  
     6    3   10 1  
     7   18    4 ar 
     8    8    5 ar 
     9    5   11 ar 
    10   18    6 ar 
    11    9    7 1  
    12    7   14 1  
    13    9    8 1  
    14    8   12 ar 
    15   13    9 2  
    16   10   18 1  
    17   11   15 ar 
    18   12   16 ar 
    19   17   13 1  
    20   16   15 ar 
    21   19   17 ar 
    22   17   20 ar 
    23   21   19 ar 
    24   20   22 ar 
    25   21   23 ar 
    26   22   23 ar 
    27   10   25 1  
    28   10   26 1  
    29   11   27 1  
    30   12   28 1  
    31   13   29 1  
    32   14   30 1  
    33   14   31 1  
    34   14   32 1  
    35   16   33 1  
    36   19   34 1  
    37   20   35 1  
    38   21   36 1  
    39   22   37 1  
    40   24   38 1  
    41   24   39 1  
    42   24   40 1  
@<TRIPOS>SUBSTRUCTURE
     1 SFI         1

