### 
### Created by X-TOOL on Mon Sep 10 21:13:24 2018
### 

@<TRIPOS>MOLECULE
4xum_ligand
   40    42     1     0     0
SMALL
GAST_HUCK


@<TRIPOS>ATOM
      1 C          21.0970    7.7640   16.1590 C.ar      1 IMN         0.0787
      2 C1         20.0860    7.5080   17.0560 C.ar      1 IMN        -0.0393
      3 C2         19.2950    6.3380   16.9030 C.ar      1 IMN        -0.0562
      4 C3         19.5300    5.4670   15.8690 C.ar      1 IMN         0.0670
      5 C4         20.5350    5.7090   14.9590 C.ar      1 IMN        -0.0504
      6 C5         21.3120    6.8580   15.1180 C.ar      1 IMN        -0.0495
      7 C6         17.2960    4.7570   15.5040 C.3       1 IMN         0.0564
      8 C7         20.0790    8.5330   17.9810 C.2       1 IMN        -0.0396
      9 C8         21.0920    9.4310   17.6270 C.2       1 IMN         0.0648
     10 C9         22.8580    9.6990   15.9310 C.2       1 IMN         0.2697
     11 C10        23.5680    9.2810   14.6600 C.ar      1 IMN         0.0658
     12 C11        24.9470    9.2420   14.5090 C.ar      1 IMN        -0.0401
     13 C12        25.4880    8.8840   13.2670 C.ar      1 IMN        -0.0421
     14 C13        24.6860    8.5970   12.2100 C.ar      1 IMN         0.0451
     15 C14        23.2990    8.6710   12.3560 C.ar      1 IMN        -0.0421
     16 C15        22.7780    9.0470   13.5860 C.ar      1 IMN        -0.0401
     17 C16        21.1450   10.5690   18.5710 C.3       1 IMN        -0.0090
     18 C17        19.0260    8.5580   19.1380 C.3       1 IMN         0.0085
     19 C18        19.0420    7.3780   20.0210 C.2       1 IMN         0.0372
     20 N          21.7330    8.9880   16.5330 N.am      1 IMN        -0.1828
     21 O          18.5990    4.4150   15.9760 O.3       1 IMN        -0.3319
     22 O1         23.1960   10.6970   16.4100 O.2       1 IMN        -0.3512
     23 O2         17.9290    6.8770   20.3490 O.co2     1 IMN        -0.5679
     24 O3         20.1240    6.8980   20.4330 O.co2     1 IMN        -0.5679
     25 CL         25.3440    8.1370   10.6390 Cl        1 IMN        -0.0665
     26 H1         18.4989    6.1315   17.6091 H         1 IMN         0.0397
     27 H2         20.7183    5.0240   14.1391 H         1 IMN         0.0444
     28 H3         22.1090    7.0535   14.4097 H         1 IMN         0.0515
     29 H4         16.6260    3.8920   15.6180 H         1 IMN         0.0572
     30 H5         17.3529    5.0392   14.4424 H         1 IMN         0.0572
     31 H6         16.9049    5.6032   16.0879 H         1 IMN         0.0572
     32 H7         25.5974    9.4854   15.3414 H         1 IMN         0.0670
     33 H8         26.5644    8.8354   13.1483 H         1 IMN         0.0634
     34 H9         22.6425    8.4393   11.5251 H         1 IMN         0.0634
     35 H10        21.7046    9.1568   13.6900 H         1 IMN         0.0670
     36 H11        20.3586   10.4517   19.3312 H         1 IMN         0.0401
     37 H12        20.9867   11.5088   18.0217 H         1 IMN         0.0401
     38 H13        22.1290   10.5926   19.0620 H         1 IMN         0.0401
     39 H14        18.0255    8.6331   18.6871 H         1 IMN         0.0476
     40 H15        19.2180    9.4483   19.7549 H         1 IMN         0.0476
@<TRIPOS>BOND
     1    1    2 ar 
     2    1    6 ar 
     3   20    1 1  
     4    2    3 ar 
     5    8    2 1  
     6    3    4 ar 
     7    5    4 ar 
     8    4   21 1  
     9    6    5 ar 
    10   21    7 1  
    11    9    8 2  
    12    8   18 1  
    13    9   17 1  
    14   20    9 1  
    15   10   11 1  
    16   10   20 am 
    17   10   22 2  
    18   11   12 ar 
    19   11   16 ar 
    20   12   13 ar 
    21   13   14 ar 
    22   14   15 ar 
    23   14   25 1  
    24   15   16 ar 
    25   18   19 1  
    26   19   23 ar 
    27   19   24 ar 
    28    3   26 1  
    29    5   27 1  
    30    6   28 1  
    31    7   29 1  
    32    7   30 1  
    33    7   31 1  
    34   12   32 1  
    35   13   33 1  
    36   15   34 1  
    37   16   35 1  
    38   17   36 1  
    39   17   37 1  
    40   17   38 1  
    41   18   39 1  
    42   18   40 1  
@<TRIPOS>SUBSTRUCTURE
     1 IMN         1

