### 
### Created by X-TOOL on Mon Sep 10 21:13:25 2018
### 

@<TRIPOS>MOLECULE
4xv1_ligand
   58    62     1     0     0
SMALL
GAST_HUCK


@<TRIPOS>ATOM
      1 S1         -4.7630   -3.7700  -20.4290 S.o2      1 904         0.1385
      2 C2          2.2400   -1.6970  -19.5810 C.2       1 904         0.0417
      3 C3          1.4600   -2.0910  -20.7420 C.2       1 904         0.1307
      4 C4          0.0050   -1.8840  -20.7420 C.ar      1 904         0.0791
      5 C5          3.6610   -1.7540  -19.4210 C.ar      1 904         0.0188
      6 N6         -3.0720   -3.9530  -20.5990 N.am      1 904        -0.1754
      7 C8          1.7360   -1.1910  -18.3990 C.2       1 904         0.0542
      8 C10        -2.2370   -2.7900  -20.6710 C.ar      1 904         0.0995
      9 C11        -0.8580   -2.9710  -20.6740 C.ar      1 904         0.1648
     10 C12         3.9510   -1.2780  -18.1520 C.ar      1 904         0.1424
     11 N13         2.7770   -0.9430  -17.5490 N.pl3     1 904        -0.2547
     12 C15         9.4840   -3.1880  -21.8710 C.ar      1 904         0.1068
     13 C16         4.7570   -2.1570  -20.2080 C.ar      1 904        -0.0444
     14 N18         5.1550   -1.1530  -17.5810 N.ar      1 904        -0.2826
     15 N19         9.5310   -2.0580  -21.1360 N.ar      1 904        -0.2642
     16 N20         8.3910   -3.9790  -21.9450 N.ar      1 904        -0.2642
     17 C21        10.7120   -3.5780  -22.6460 C.3       1 904         0.0278
     18 C23         6.0550   -2.0590  -19.6840 C.ar      1 904         0.0024
     19 N24        -4.9130   -3.0280  -18.8960 N.am      1 904        -0.2209
     20 C25        12.0250   -3.7670  -21.9280 C.3       1 904        -0.0323
     21 C28        11.8300   -2.5800  -22.8190 C.3       1 904        -0.0323
     22 C31         7.2420   -2.4580  -20.4490 C.ar      1 904         0.0268
     23 C32        -0.5210   -0.5990  -20.8090 C.ar      1 904         0.1310
     24 O33        -5.3250   -5.1020  -20.3430 O.2       1 904        -0.1299
     25 O34        -5.2720   -2.8650  -21.4330 O.2       1 904        -0.1299
     26 O35         1.9600   -2.6030  -21.7330 O.2       1 904        -0.3914
     27 C36         7.3070   -3.5950  -21.2350 C.ar      1 904         0.0279
     28 C38         8.4160   -1.7280  -20.4490 C.ar      1 904         0.0279
     29 C40         6.1630   -1.5560  -18.3860 C.ar      1 904         0.0046
     30 C42        -2.7540   -1.4960  -20.7400 C.ar      1 904        -0.0438
     31 C44        -1.8940   -0.3990  -20.8090 C.ar      1 904        -0.0421
     32 F46        -0.3590   -4.2080  -20.6090 F         1 904        -0.1907
     33 F47         0.2870    0.4630  -20.8760 F         1 904        -0.1929
     34 C48        -4.3660   -3.6710  -17.6740 C.3       1 904         0.0281
     35 C51        -5.9880   -2.0470  -18.6380 C.3       1 904         0.0198
     36 C55        -4.1540   -2.6850  -16.5440 C.3       1 904        -0.0480
     37 H1         -2.6675   -4.8662  -20.6480 H         1 904         0.2148
     38 H2          0.6832   -1.0182  -18.1804 H         1 904         0.1099
     39 H3          2.6872   -0.5607  -16.5968 H         1 904         0.2362
     40 H4          4.5993   -2.5396  -21.2099 H         1 904         0.0680
     41 H5         10.4318   -4.2471  -23.4729 H         1 904         0.0535
     42 H6         12.7057   -4.5759  -22.2318 H         1 904         0.0299
     43 H7         12.0792   -3.6323  -20.8376 H         1 904         0.0299
     44 H8         11.7410   -1.5743  -22.3825 H         1 904         0.0299
     45 H9         12.3676   -2.5178  -23.7767 H         1 904         0.0299
     46 H10         6.4249   -4.2230  -21.2849 H         1 904         0.0919
     47 H11         8.4437   -0.8230  -19.8530 H         1 904         0.0919
     48 H12         7.1650   -1.4805  -17.9794 H         1 904         0.0763
     49 H13        -3.8270   -1.3422  -20.7400 H         1 904         0.0496
     50 H14        -2.2973    0.6058  -20.8624 H         1 904         0.0539
     51 H15        -3.4004   -4.1357  -17.9222 H         1 904         0.0476
     52 H16        -5.0704   -4.4462  -17.3380 H         1 904         0.0476
     53 H17        -5.9150   -1.6874  -17.6010 H         1 904         0.0442
     54 H18        -6.9662   -2.5260  -18.7919 H         1 904         0.0442
     55 H19        -5.8828   -1.1976  -19.3289 H         1 904         0.0442
     56 H20        -3.7494   -3.2129  -15.6679 H         1 904         0.0245
     57 H21        -5.1143   -2.2183  -16.2796 H         1 904         0.0245
     58 H22        -3.4443   -1.9078  -16.8638 H         1 904         0.0245
@<TRIPOS>BOND
     1    6    1 am 
     2    1   19 am 
     3    1   24 2  
     4    1   25 2  
     5    2    3 1  
     6    5    2 1  
     7    2    7 2  
     8    3    4 1  
     9    3   26 2  
    10    4    9 ar 
    11    4   23 ar 
    12    5   10 ar 
    13   13    5 ar 
    14    8    6 1  
    15   11    7 1  
    16    9    8 ar 
    17    8   30 ar 
    18    9   32 1  
    19   10   11 1  
    20   14   10 ar 
    21   12   15 ar 
    22   16   12 ar 
    23   12   17 1  
    24   18   13 ar 
    25   29   14 ar 
    26   15   28 ar 
    27   27   16 ar 
    28   17   20 1  
    29   17   21 1  
    30   22   18 1  
    31   18   29 ar 
    32   19   34 1  
    33   19   35 1  
    34   21   20 1  
    35   22   27 ar 
    36   22   28 ar 
    37   23   31 ar 
    38   23   33 1  
    39   30   31 ar 
    40   34   36 1  
    41    6   37 1  
    42    7   38 1  
    43   11   39 1  
    44   13   40 1  
    45   17   41 1  
    46   20   42 1  
    47   20   43 1  
    48   21   44 1  
    49   21   45 1  
    50   27   46 1  
    51   28   47 1  
    52   29   48 1  
    53   30   49 1  
    54   31   50 1  
    55   34   51 1  
    56   34   52 1  
    57   35   53 1  
    58   35   54 1  
    59   35   55 1  
    60   36   56 1  
    61   36   57 1  
    62   36   58 1  
@<TRIPOS>SUBSTRUCTURE
     1 904         1

