### 
### Created by X-TOOL on Mon Sep 10 21:13:25 2018
### 

@<TRIPOS>MOLECULE
4xv2_ligand
   55    58     1     0     0
SMALL
GAST_HUCK


@<TRIPOS>ATOM
      1 C1          4.8550   -1.3790  -18.6890 C.ar      1 P06         0.1959
      2 C2          3.1310   -2.1840  -20.0210 C.ar      1 P06         0.1009
      3 N3          4.4530   -1.9240  -19.8650 N.ar      1 P06        -0.2378
      4 C4          2.2080   -1.9280  -19.0200 C.ar      1 P06        -0.0024
      5 N6          4.0120   -1.0880  -17.6720 N.ar      1 P06        -0.2452
      6 C7          2.7080   -1.3710  -17.8650 C.ar      1 P06         0.0239
      7 N9          6.2010   -1.0990  -18.5190 N.pl3     1 P06        -0.3017
      8 C12         2.7720   -2.7900  -21.3100 C.2       1 P06         0.1360
      9 S13         4.0380   -3.4200  -22.2970 S.3       1 P06         0.0313
     10 C14         2.9150   -3.9280  -23.4950 C.2       1 P06         0.0789
     11 N15         1.6650   -3.6530  -23.1940 N.2       1 P06        -0.2455
     12 C16         1.5710   -3.0200  -21.9700 C.2       1 P06         0.1118
     13 C17         3.3580   -4.6250  -24.7820 C.3       1 P06        -0.0352
     14 C18         3.1110   -3.7120  -25.9970 C.3       1 P06        -0.0942
     15 C22         2.5340   -5.9160  -24.9760 C.3       1 P06        -0.0942
     16 C26         4.8410   -5.0350  -24.7300 C.3       1 P06        -0.0942
     17 C30         0.2370   -2.6530  -21.5300 C.ar      1 P06         0.0289
     18 C31        -2.0300   -3.3300  -20.9750 C.ar      1 P06         0.0986
     19 C32        -0.7350   -3.6430  -21.3750 C.ar      1 P06         0.1597
     20 C33        -2.3790   -2.0010  -20.7250 C.ar      1 P06        -0.0451
     21 C35        -0.1220   -1.3180  -21.2870 C.ar      1 P06        -0.0687
     22 C37        -1.4200   -1.0000  -20.8840 C.ar      1 P06        -0.0792
     23 F39        -0.4330   -4.9270  -21.6070 F         1 P06        -0.1925
     24 N40        -2.9390   -4.4300  -20.8410 N.am      1 P06        -0.1872
     25 S42        -4.6350   -4.2090  -20.9450 S.o2      1 P06         0.0902
     26 C43        -5.0650   -3.7710  -19.2800 C.ar      1 P06         0.1799
     27 C44        -5.9130   -2.2500  -17.6010 C.ar      1 P06        -0.0303
     28 C46        -5.5840   -2.5250  -18.9280 C.ar      1 P06         0.1577
     29 C47        -5.7210   -3.2200  -16.6140 C.ar      1 P06        -0.0654
     30 C49        -4.8790   -4.7330  -18.2890 C.ar      1 P06         0.1577
     31 C50        -5.2020   -4.4680  -16.9600 C.ar      1 P06        -0.0303
     32 F52        -4.3800   -5.9350  -18.6060 F         1 P06        -0.1824
     33 F53        -5.7860   -1.5650  -19.8360 F         1 P06        -0.1824
     34 O54        -4.9590   -3.1260  -21.8520 O.2       1 P06        -0.1460
     35 O55        -5.2660   -5.4970  -21.1630 O.2       1 P06        -0.1460
     36 H1          1.1544   -2.1531  -19.1394 H         1 P06         0.0759
     37 H2          2.0130   -1.1468  -17.0639 H         1 P06         0.0915
     38 H3          6.8699   -1.3082  -19.2738 H         1 P06         0.1826
     39 H4          6.5329   -0.6816  -17.6378 H         1 P06         0.1826
     40 H5          3.4342   -4.2265  -26.9140 H         1 P06         0.0092
     41 H6          3.6837   -2.7804  -25.8781 H         1 P06         0.0092
     42 H7          2.0387   -3.4769  -26.0671 H         1 P06         0.0092
     43 H8          2.6946   -6.5858  -24.1183 H         1 P06         0.0092
     44 H9          2.8542   -6.4201  -25.8998 H         1 P06         0.0092
     45 H10         1.4661   -5.6621  -25.0480 H         1 P06         0.0092
     46 H11         5.4644   -4.1393  -24.5920 H         1 P06         0.0092
     47 H12         5.1172   -5.5324  -25.6714 H         1 P06         0.0092
     48 H13         5.0011   -5.7261  -23.8894 H         1 P06         0.0092
     49 H14        -3.3854   -1.7495  -20.4104 H         1 P06         0.0484
     50 H15         0.6121   -0.5304  -21.4129 H         1 P06         0.0482
     51 H16        -1.6853    0.0335  -20.6929 H         1 P06         0.0546
     52 H17        -2.5749   -5.3479  -20.6831 H         1 P06         0.2146
     53 H18        -6.3189   -1.2808  -17.3345 H         1 P06         0.0570
     54 H19        -5.9745   -3.0036  -15.5825 H         1 P06         0.0597
     55 H20        -5.0511   -5.2261  -16.2000 H         1 P06         0.0570
@<TRIPOS>BOND
     1    1    3 ar 
     2    1    5 ar 
     3    1    7 1  
     4    3    2 ar 
     5    2    4 ar 
     6    2    8 1  
     7    4    6 ar 
     8    5    6 ar 
     9    8    9 1  
    10    8   12 2  
    11    9   10 1  
    12   10   11 2  
    13   10   13 1  
    14   11   12 1  
    15   12   17 1  
    16   13   14 1  
    17   13   15 1  
    18   13   16 1  
    19   17   19 ar 
    20   17   21 ar 
    21   19   18 ar 
    22   18   20 ar 
    23   18   24 1  
    24   19   23 1  
    25   20   22 ar 
    26   21   22 ar 
    27   24   25 am 
    28   25   26 1  
    29   25   34 2  
    30   25   35 2  
    31   26   28 ar 
    32   26   30 ar 
    33   28   27 ar 
    34   27   29 ar 
    35   28   33 1  
    36   29   31 ar 
    37   30   31 ar 
    38   30   32 1  
    39    4   36 1  
    40    6   37 1  
    41    7   38 1  
    42    7   39 1  
    43   14   40 1  
    44   14   41 1  
    45   14   42 1  
    46   15   43 1  
    47   15   44 1  
    48   15   45 1  
    49   16   46 1  
    50   16   47 1  
    51   16   48 1  
    52   20   49 1  
    53   21   50 1  
    54   22   51 1  
    55   24   52 1  
    56   27   53 1  
    57   29   54 1  
    58   31   55 1  
@<TRIPOS>SUBSTRUCTURE
     1 P06         1

