### 
### Created by X-TOOL on Mon Sep 10 21:13:25 2018
### 

@<TRIPOS>MOLECULE
4xv3_ligand
   56    58     1     0     0
SMALL
GAST_HUCK


@<TRIPOS>ATOM
      1 C1         -5.2790   -3.6290  -16.5960 C.3       1 P02        -0.0480
      2 C5         -5.6230   -1.8970  -18.6680 C.3       1 P02         0.0198
      3 C9         -4.7080   -4.0590  -17.9330 C.3       1 P02         0.0282
      4 O12        -5.3330   -4.8930  -21.1000 O.2       1 P02        -0.1297
      5 O13        -4.9460   -2.4520  -21.4730 O.2       1 P02        -0.1297
      6 N14        -5.4020   -3.3240  -19.0430 N.am      1 P02        -0.2208
      7 S15        -4.7860   -3.6320  -20.6430 S.o2      1 P02         0.1391
      8 N16         6.5380   -1.5380  -19.1610 N.pl3     1 P02        -0.3017
      9 C19         5.1560   -1.6210  -19.1640 C.ar      1 P02         0.1959
     10 N20         4.5390   -2.1710  -20.2400 N.ar      1 P02        -0.2378
     11 C21         3.1830   -2.2310  -20.2200 C.ar      1 P02         0.1009
     12 C22         2.5530   -2.8440  -21.3920 C.2       1 P02         0.1360
     13 C23         1.2480   -2.8890  -21.8660 C.2       1 P02         0.1118
     14 C24         0.0340   -2.3210  -21.3400 C.ar      1 P02         0.0289
     15 C25        -0.2180   -0.9500  -21.2180 C.ar      1 P02        -0.0687
     16 C27        -1.4560   -0.5280  -20.7250 C.ar      1 P02        -0.0792
     17 C29        -2.4360   -1.4590  -20.3730 C.ar      1 P02        -0.0451
     18 C31        -2.1830   -2.8250  -20.5240 C.ar      1 P02         0.1000
     19 N32        -3.1320   -3.8560  -20.1830 N.am      1 P02        -0.1740
     20 C34        -0.9540   -3.2370  -21.0060 C.ar      1 P02         0.1598
     21 F35        -0.7170   -4.5500  -21.1400 F         1 P02        -0.1925
     22 N36         1.0360   -3.5980  -23.0230 N.2       1 P02        -0.2455
     23 C37         2.1480   -4.1040  -23.4750 C.2       1 P02         0.0789
     24 C38         2.1810   -4.9420  -24.7450 C.3       1 P02        -0.0352
     25 C39         2.7750   -4.1670  -25.9370 C.3       1 P02        -0.0942
     26 C43         0.7270   -5.3300  -25.0990 C.3       1 P02        -0.0942
     27 C47         2.9550   -6.2460  -24.4840 C.3       1 P02        -0.0942
     28 S51         3.5260   -3.7510  -22.4960 S.3       1 P02         0.0313
     29 C52         2.4390   -1.7750  -19.1500 C.ar      1 P02        -0.0024
     30 C54         3.1530   -1.2350  -18.1070 C.ar      1 P02         0.0239
     31 N56         4.4980   -1.1450  -18.0860 N.ar      1 P02        -0.2452
     32 H1         -4.7667   -4.1707  -15.7872 H         1 P02         0.0245
     33 H2         -6.3546   -3.8572  -16.5662 H         1 P02         0.0245
     34 H3         -5.1299   -2.5471  -16.4644 H         1 P02         0.0245
     35 H4         -6.0106   -1.8439  -17.6399 H         1 P02         0.0442
     36 H5         -6.3507   -1.4450  -19.3580 H         1 P02         0.0442
     37 H6         -4.6707   -1.3500  -18.7295 H         1 P02         0.0442
     38 H7         -4.8570   -5.1411  -18.0626 H         1 P02         0.0476
     39 H8         -3.6323   -3.8310  -17.9609 H         1 P02         0.0476
     40 H9          7.0768   -1.8902  -19.9651 H         1 P02         0.1826
     41 H10         7.0273   -1.1240  -18.3547 H         1 P02         0.1826
     42 H11         0.5364   -0.2252  -21.5019 H         1 P02         0.0482
     43 H12        -1.6574    0.5314  -20.6148 H         1 P02         0.0546
     44 H13        -3.3902   -1.1228  -19.9837 H         1 P02         0.0484
     45 H14        -2.8423   -4.6786  -19.6937 H         1 P02         0.2161
     46 H15         2.7779   -4.8114  -26.8285 H         1 P02         0.0092
     47 H16         3.8056   -3.8639  -25.7004 H         1 P02         0.0092
     48 H17         2.1655   -3.2725  -26.1332 H         1 P02         0.0092
     49 H18         0.2814   -5.8856  -24.2607 H         1 P02         0.0092
     50 H19         0.7249   -5.9614  -25.9997 H         1 P02         0.0092
     51 H20         0.1401   -4.4191  -25.2883 H         1 P02         0.0092
     52 H21         3.9981   -6.0083  -24.2281 H         1 P02         0.0092
     53 H22         2.9329   -6.8727  -25.3877 H         1 P02         0.0092
     54 H23         2.4874   -6.7892  -23.6496 H         1 P02         0.0092
     55 H24         1.3570   -1.8390  -19.1335 H         1 P02         0.0759
     56 H25         2.6027   -0.8597  -17.2517 H         1 P02         0.0915
@<TRIPOS>BOND
     1    3    1 1  
     2    6    2 1  
     3    6    3 1  
     4    7    4 2  
     5    7    5 2  
     6    7    6 am 
     7   19    7 am 
     8    9    8 1  
     9   10    9 ar 
    10    9   31 ar 
    11   11   10 ar 
    12   12   11 1  
    13   11   29 ar 
    14   13   12 2  
    15   12   28 1  
    16   14   13 1  
    17   13   22 1  
    18   15   14 ar 
    19   14   20 ar 
    20   16   15 ar 
    21   17   16 ar 
    22   18   17 ar 
    23   18   19 1  
    24   18   20 ar 
    25   20   21 1  
    26   22   23 2  
    27   23   24 1  
    28   23   28 1  
    29   24   25 1  
    30   24   26 1  
    31   24   27 1  
    32   29   30 ar 
    33   30   31 ar 
    34    1   32 1  
    35    1   33 1  
    36    1   34 1  
    37    2   35 1  
    38    2   36 1  
    39    2   37 1  
    40    3   38 1  
    41    3   39 1  
    42    8   40 1  
    43    8   41 1  
    44   15   42 1  
    45   16   43 1  
    46   17   44 1  
    47   19   45 1  
    48   25   46 1  
    49   25   47 1  
    50   25   48 1  
    51   26   49 1  
    52   26   50 1  
    53   26   51 1  
    54   27   52 1  
    55   27   53 1  
    56   27   54 1  
    57   29   55 1  
    58   30   56 1  
@<TRIPOS>SUBSTRUCTURE
     1 P02         1

