### 
### Created by X-TOOL on Mon Sep 10 21:13:24 2018
### 

@<TRIPOS>MOLECULE
4xv9_ligand
   45    48     1     0     0
SMALL
GAST_HUCK


@<TRIPOS>ATOM
      1 F33        77.3440   26.6640   -1.1700 F         1 1OO        -0.2199
      2 C30        76.2940   27.3420   -1.5970 C.3       1 1OO         0.3771
      3 F31        76.5370   28.6320   -1.4370 F         1 1OO        -0.2199
      4 F32        75.2390   27.0440   -0.8600 F         1 1OO        -0.2199
      5 C27        76.0350   27.0720   -3.0610 C.ar      1 1OO         0.0483
      6 C28        74.8110   26.5630   -3.5090 C.ar      1 1OO        -0.0296
      7 C29        74.5910   26.3410   -4.8710 C.ar      1 1OO        -0.0048
      8 C26        77.0260   27.3630   -4.0020 C.ar      1 1OO        -0.0296
      9 C25        76.8030   27.1380   -5.3620 C.ar      1 1OO        -0.0048
     10 C24        75.5880   26.6230   -5.8120 C.ar      1 1OO         0.1417
     11 S21        75.3390   26.3900   -7.3850 S.o2      1 1OO         0.1005
     12 O22        76.0080   27.4320   -8.1110 O.2       1 1OO        -0.1413
     13 O23        73.9350   26.4610   -7.6770 O.2       1 1OO        -0.1413
     14 N20        75.9350   24.9780   -7.8340 N.am      1 1OO        -0.1848
     15 C19        76.1650   24.6140   -9.1220 C.ar      1 1OO         0.0985
     16 C13        76.9850   23.3950   -9.3270 C.ar      1 1OO         0.1647
     17 F17        77.4430   22.6600   -8.2980 F         1 1OO        -0.1907
     18 C34        75.7350   25.3430  -10.2430 C.ar      1 1OO        -0.0438
     19 C18        76.0430   24.9490  -11.5530 C.ar      1 1OO        -0.0421
     20 C12        76.8030   23.8120  -11.8250 C.ar      1 1OO         0.1310
     21 F16        77.0830   23.4490  -13.0880 F         1 1OO        -0.1929
     22 C11        77.2910   22.9790  -10.7050 C.ar      1 1OO         0.0791
     23 C10        78.1280   21.7680  -10.9390 C.2       1 1OO         0.1307
     24 O15        77.6590   20.6410  -10.8990 O.2       1 1OO        -0.3914
     25 C09        79.5540   22.0980  -11.2000 C.2       1 1OO         0.0415
     26 C08        80.2280   23.3420  -11.1230 C.2       1 1OO         0.0539
     27 C05        80.5450   21.0890  -11.6340 C.ar      1 1OO         0.0181
     28 C06        81.7490   21.8720  -11.7640 C.ar      1 1OO         0.1416
     29 N07        81.5490   23.1930  -11.4620 N.pl3     1 1OO        -0.2549
     30 N04        82.9050   21.3100  -12.1420 N.ar      1 1OO        -0.2839
     31 C03        82.9250   19.9980  -12.3980 C.ar      1 1OO         0.0091
     32 C02        81.7790   19.2060  -12.2820 C.ar      1 1OO         0.0516
     33 CL         81.9720   17.4760  -12.6530 Cl        1 1OO        -0.0725
     34 C01        80.5420   19.7320  -11.8910 C.ar      1 1OO        -0.0396
     35 H1         74.0275   26.3392   -2.7941 H         1 1OO         0.0853
     36 H2         73.6375   25.9460   -5.2025 H         1 1OO         0.0718
     37 H3         77.9766   27.7671   -3.6733 H         1 1OO         0.0853
     38 H4         77.5848   27.3667   -6.0772 H         1 1OO         0.0718
     39 H5         76.1540   24.3161   -7.1171 H         1 1OO         0.2137
     40 H6         75.1456   26.2398  -10.0904 H         1 1OO         0.0496
     41 H7         75.6788   25.5472  -12.3804 H         1 1OO         0.0539
     42 H8         79.7629   24.2837  -10.8353 H         1 1OO         0.1098
     43 H9         82.2600   23.9379  -11.4852 H         1 1OO         0.2359
     44 H10        83.8562   19.5353  -12.7042 H         1 1OO         0.0757
     45 H11        79.6511   19.1217  -11.7972 H         1 1OO         0.0675
@<TRIPOS>BOND
     1    1    2 1  
     2    2    3 1  
     3    2    4 1  
     4    2    5 1  
     5    5    6 ar 
     6    5    8 ar 
     7    6    7 ar 
     8    7   10 ar 
     9    8    9 ar 
    10    9   10 ar 
    11   10   11 1  
    12   11   12 2  
    13   11   13 2  
    14   11   14 am 
    15   14   15 1  
    16   15   16 ar 
    17   15   18 ar 
    18   16   17 1  
    19   16   22 ar 
    20   18   19 ar 
    21   19   20 ar 
    22   20   21 1  
    23   20   22 ar 
    24   22   23 1  
    25   23   24 2  
    26   23   25 1  
    27   25   26 2  
    28   25   27 1  
    29   26   29 1  
    30   27   28 ar 
    31   27   34 ar 
    32   28   29 1  
    33   28   30 ar 
    34   30   31 ar 
    35   31   32 ar 
    36   32   33 1  
    37   32   34 ar 
    38    6   35 1  
    39    7   36 1  
    40    8   37 1  
    41    9   38 1  
    42   14   39 1  
    43   18   40 1  
    44   19   41 1  
    45   26   42 1  
    46   29   43 1  
    47   31   44 1  
    48   34   45 1  
@<TRIPOS>SUBSTRUCTURE
     1 1OO         1

