### 
### Created by X-TOOL on Mon Sep 10 21:13:30 2018
### 

@<TRIPOS>MOLECULE
4xwk_ligand
   23    24     1     0     0
SMALL
GAST_HUCK


@<TRIPOS>ATOM
      1 BR2        76.9980   -1.1880   -7.2550 Br        1 4C8        -0.0553
      2 CAF        77.7860   -0.7270   -5.5480 C.ar      1 4C8         0.0511
      3 CAE        77.8020    0.5910   -5.1330 C.ar      1 4C8        -0.0476
      4 CAD        78.3950    0.9410   -3.8460 C.ar      1 4C8         0.0077
      5 BR1        78.4020    2.7460   -3.3070 Br        1 4C8        -0.0578
      6 CAC        78.9400   -0.0370   -3.0410 C.ar      1 4C8        -0.0476
      7 CAB        78.9240   -1.3850   -3.4650 C.ar      1 4C8         0.0511
      8 BR3        79.6920   -2.7750   -2.3350 Br        1 4C8        -0.0553
      9 CAA        78.3450   -1.7340   -4.7280 C.ar      1 4C8         0.1409
     10 OAJ        78.3230   -3.0840   -5.1740 O.3       1 4C8        -0.2480
     11 CAK        79.5970   -3.5300   -5.6520 C.ar      1 4C8         0.1320
     12 CAP        79.8950   -4.8900   -5.6140 C.ar      1 4C8         0.0486
     13 BR4        78.6300   -6.1380   -4.9340 Br        1 4C8        -0.0560
     14 CAO        81.1440   -5.3580   -6.0830 C.ar      1 4C8        -0.0503
     15 CAN        82.0320   -4.4960   -6.5600 C.ar      1 4C8         0.0049
     16 BR5        83.6950   -5.1250   -7.1810 Br        1 4C8        -0.0585
     17 CAM        81.7320   -3.1050   -6.6050 C.ar      1 4C8        -0.0571
     18 CAL        80.5120   -2.6490   -6.1460 C.ar      1 4C8        -0.0222
     19 H1         77.3749    1.3636   -5.7621 H         1 4C8         0.0669
     20 H2         79.3793    0.2274   -2.0859 H         1 4C8         0.0669
     21 H3         81.3748   -6.4167   -6.0529 H         1 4C8         0.0645
     22 H4         82.4600   -2.4050   -6.9989 H         1 4C8         0.0641
     23 H5         80.2821   -1.5902   -6.1786 H         1 4C8         0.0569
@<TRIPOS>BOND
     1    1    2 1  
     2    2    3 ar 
     3    2    9 ar 
     4    3    4 ar 
     5    4    5 1  
     6    4    6 ar 
     7    6    7 ar 
     8    7    8 1  
     9    7    9 ar 
    10    9   10 1  
    11   10   11 1  
    12   11   12 ar 
    13   11   18 ar 
    14   12   13 1  
    15   12   14 ar 
    16   14   15 ar 
    17   15   16 1  
    18   15   17 ar 
    19   17   18 ar 
    20    3   19 1  
    21    6   20 1  
    22   14   21 1  
    23   17   22 1  
    24   18   23 1  
@<TRIPOS>SUBSTRUCTURE
     1 4C8         1

