### 
### Created by X-TOOL on Mon Sep 10 21:13:24 2018
### 

@<TRIPOS>MOLECULE
4xx3_ligand
   58    60     1     0     0
SMALL
GAST_HUCK


@<TRIPOS>ATOM
      1 C27        33.8880   62.7380   50.5650 C.ar      1 70X        -0.0687
      2 C28        34.8920   63.3220   49.8190 C.ar      1 70X        -0.0685
      3 C29        35.7640   62.5310   49.0810 C.ar      1 70X        -0.0584
      4 C26        33.7860   61.3630   50.5570 C.ar      1 70X        -0.0685
      5 C25        34.6610   60.5810   49.8230 C.ar      1 70X        -0.0584
      6 C24        35.6720   61.1490   49.0620 C.ar      1 70X        -0.0210
      7 C23        36.6510   60.2890   48.2840 C.3       1 70X         0.0640
      8 C14        36.4030   61.6600   42.7850 C.ar      1 70X        -0.0156
      9 C15        36.4760   61.1530   44.0770 C.ar      1 70X        -0.0387
     10 C16        37.6880   61.0870   44.7410 C.ar      1 70X         0.0433
     11 C17        38.8260   61.5540   44.1130 C.ar      1 70X        -0.0489
     12 C18        38.7610   62.0510   42.8220 C.ar      1 70X        -0.0628
     13 C19        37.5490   62.0960   42.1560 C.ar      1 70X        -0.0541
     14 C20        37.8210   60.5610   46.1160 C.2       1 70X         0.2051
     15 N1         32.1910   60.1450   43.5780 N.pl3     1 70X        -0.2340
     16 C2         32.6440   58.7770   43.6650 C.3       1 70X         0.1257
     17 C3         33.3840   58.4590   42.3790 C.3       1 70X         0.0844
     18 C4         34.3730   59.4930   41.9030 C.2       1 70X         0.1863
     19 N5         34.1270   60.7760   42.3340 N.am      1 70X        -0.1982
     20 C6         32.8920   61.1170   42.8950 C.cat     1 70X         0.3333
     21 N7         32.4130   62.3090   42.7640 N.pl3     1 70X        -0.2539
     22 O8         35.3070   59.1670   41.1840 O.2       1 70X        -0.3968
     23 C9         35.1230   61.7780   42.0270 C.3       1 70X         0.0704
     24 C10        33.5340   58.5500   44.9060 C.3       1 70X         0.0025
     25 C11        31.3820   57.9320   43.6460 C.3       1 70X        -0.0150
     26 C12        32.9740   59.0560   46.2200 C.3       1 70X        -0.0580
     27 C13        34.0260   57.1100   45.0730 C.3       1 70X        -0.0580
     28 O21        38.9380   60.2670   46.5250 O.2       1 70X        -0.3845
     29 N22        36.6530   60.4840   46.8480 N.am      1 70X        -0.2749
     30 H1         33.1985   63.3440   51.1415 H         1 70X         0.0559
     31 H2         35.0004   64.4005   49.8089 H         1 70X         0.0599
     32 H3         36.5429   63.0118   48.5003 H         1 70X         0.0557
     33 H4         33.0050   60.8849   51.1371 H         1 70X         0.0599
     34 H5         34.5539   59.5025   49.8433 H         1 70X         0.0557
     35 H6         36.4067   59.2349   48.4818 H         1 70X         0.0683
     36 H7         37.6628   60.5070   48.6563 H         1 70X         0.0683
     37 H8         35.5747   60.8059   44.5692 H         1 70X         0.0608
     38 H9         39.7763   61.5314   44.6340 H         1 70X         0.0611
     39 H10        39.6610   62.4053   42.3325 H         1 70X         0.0611
     40 H11        37.5010   62.4736   41.1410 H         1 70X         0.0593
     41 H12        31.3101   60.4053   44.0440 H         1 70X         0.3231
     42 H13        32.6341   58.3228   41.5859 H         1 70X         0.0552
     43 H14        33.9315   57.5172   42.5317 H         1 70X         0.0552
     44 H15        31.5023   62.5469   43.1822 H         1 70X         0.3199
     45 H16        32.9417   63.0219   42.2413 H         1 70X         0.3199
     46 H17        35.3559   61.7077   40.9542 H         1 70X         0.0683
     47 H18        34.6895   62.7653   42.2442 H         1 70X         0.0683
     48 H19        34.4337   59.1541   44.7174 H         1 70X         0.0345
     49 H20        31.6524   56.8677   43.7098 H         1 70X         0.0280
     50 H21        30.8321   58.1151   42.7111 H         1 70X         0.0280
     51 H22        30.7476   58.2011   44.5033 H         1 70X         0.0280
     52 H23        33.6875   58.8419   47.0294 H         1 70X         0.0234
     53 H24        32.0192   58.5519   46.4301 H         1 70X         0.0234
     54 H25        32.8089   60.1416   46.1545 H         1 70X         0.0234
     55 H26        34.4313   56.7478   44.1167 H         1 70X         0.0234
     56 H27        33.1869   56.4693   45.3818 H         1 70X         0.0234
     57 H28        34.8134   57.0782   45.8405 H         1 70X         0.0234
     58 H29        35.7780   60.5656   46.3708 H         1 70X         0.1872
@<TRIPOS>BOND
     1    2    1 ar 
     2    4    1 ar 
     3    3    2 ar 
     4    6    3 ar 
     5    5    4 ar 
     6    6    5 ar 
     7    7    6 1  
     8   29    7 1  
     9    8    9 ar 
    10    8   13 ar 
    11   23    8 1  
    12    9   10 ar 
    13   10   11 ar 
    14   10   14 1  
    15   12   11 ar 
    16   13   12 ar 
    17   14   28 2  
    18   14   29 am 
    19   15   16 1  
    20   20   15 ar 
    21   17   16 1  
    22   16   24 1  
    23   16   25 1  
    24   18   17 1  
    25   19   18 am 
    26   18   22 2  
    27   19   20 ar 
    28   19   23 1  
    29   20   21 ar 
    30   24   26 1  
    31   24   27 1  
    32    1   30 1  
    33    2   31 1  
    34    3   32 1  
    35    4   33 1  
    36    5   34 1  
    37    7   35 1  
    38    7   36 1  
    39    9   37 1  
    40   11   38 1  
    41   12   39 1  
    42   13   40 1  
    43   15   41 1  
    44   17   42 1  
    45   17   43 1  
    46   21   44 1  
    47   21   45 1  
    48   23   46 1  
    49   23   47 1  
    50   24   48 1  
    51   25   49 1  
    52   25   50 1  
    53   25   51 1  
    54   26   52 1  
    55   26   53 1  
    56   26   54 1  
    57   27   55 1  
    58   27   56 1  
    59   27   57 1  
    60   29   58 1  
@<TRIPOS>SUBSTRUCTURE
     1 70X         1

