### 
### Created by X-TOOL on Mon Sep 10 21:13:25 2018
### 

@<TRIPOS>MOLECULE
4xx4_ligand
   62    65     1     0     0
SMALL
GAST_HUCK


@<TRIPOS>ATOM
      1 C25        37.3340   57.0100   46.9510 C.ar      1 70Y        -0.0598
      2 C26        37.5060   55.6450   46.8470 C.ar      1 70Y        -0.0685
      3 C27        38.1970   54.9750   47.8320 C.ar      1 70Y        -0.0687
      4 C28        38.7270   55.6680   48.8980 C.ar      1 70Y        -0.0685
      5 C31        34.0490   57.4610   45.4390 C.3       1 70Y        -0.0580
      6 C29        38.5370   57.0310   48.9990 C.ar      1 70Y        -0.0598
      7 C24        37.8330   57.7250   48.0300 C.ar      1 70Y        -0.0353
      8 C23        36.9930   59.9190   46.9920 C.3       1 70Y         0.0698
      9 C22        37.6340   59.2180   48.1830 C.3       1 70Y         0.0353
     10 C20        39.3020   60.3730   46.9610 C.2       1 70Y         0.2084
     11 C4         34.6250   59.8970   42.2150 C.2       1 70Y         0.1863
     12 C2         32.8470   59.2580   43.9800 C.3       1 70Y         0.1257
     13 C3         33.6260   58.8880   42.7280 C.3       1 70Y         0.0844
     14 C11        31.5410   58.5040   43.8700 C.3       1 70Y        -0.0150
     15 C17        38.8990   62.8500   43.5520 C.ar      1 70Y        -0.0819
     16 C16        38.9870   62.1190   44.7140 C.ar      1 70Y        -0.0479
     17 C15        37.9250   61.3440   45.1440 C.ar      1 70Y         0.0624
     18 C14        36.7460   61.3460   44.4060 C.ar      1 70Y        -0.0385
     19 C12        32.9860   59.3860   46.5720 C.3       1 70Y        -0.0580
     20 N1         32.4980   60.6680   43.9140 N.pl3     1 70Y        -0.2340
     21 N5         34.3910   61.2040   42.6040 N.am      1 70Y        -0.1985
     22 C6         33.1410   61.5690   43.0890 C.cat     1 70Y         0.3333
     23 N7         32.6190   62.6980   42.7400 N.pl3     1 70Y        -0.2539
     24 O8         35.5520   59.5310   41.5050 O.2       1 70Y        -0.3968
     25 C9         35.4170   62.1960   42.3830 C.3       1 70Y         0.0662
     26 C10        33.6230   58.9220   45.2760 C.3       1 70Y         0.0025
     27 C13        36.6390   62.0960   43.2420 C.ar      1 70Y        -0.0349
     28 C18        37.7280   62.8280   42.8190 C.ar      1 70Y        -0.0737
     29 N19        38.0810   60.6130   46.3510 N.am      1 70Y        -0.2190
     30 C21        38.9920   59.8600   48.3270 C.3       1 70Y         0.0581
     31 O30        40.4510   60.4770   46.5320 O.2       1 70Y        -0.3845
     32 H1         36.7960   57.5364   46.1709 H         1 70Y         0.0557
     33 H2         37.1013   55.1053   45.9985 H         1 70Y         0.0599
     34 H3         38.3241   53.9004   47.7683 H         1 70Y         0.0559
     35 H4         39.2937   55.1423   49.6580 H         1 70Y         0.0599
     36 H5         34.5891   57.3405   46.3897 H         1 70Y         0.0234
     37 H6         34.7068   57.1756   44.6049 H         1 70Y         0.0234
     38 H7         33.1573   56.8169   45.4397 H         1 70Y         0.0234
     39 H8         38.9448   57.5658   49.8491 H         1 70Y         0.0557
     40 H9         36.2231   60.6294   47.3276 H         1 70Y         0.0613
     41 H10        36.5421   59.1863   46.3065 H         1 70Y         0.0613
     42 H11        37.0226   59.3988   49.0794 H         1 70Y         0.0511
     43 H12        34.1740   57.9585   42.9416 H         1 70Y         0.0552
     44 H13        32.8960   58.7071   41.9253 H         1 70Y         0.0552
     45 H14        30.9163   58.7227   44.7486 H         1 70Y         0.0280
     46 H15        31.7439   57.4239   43.8241 H         1 70Y         0.0280
     47 H16        31.0126   58.8170   42.9574 H         1 70Y         0.0280
     48 H17        39.7432   63.4397   43.2135 H         1 70Y         0.0561
     49 H18        39.8989   62.1507   45.2993 H         1 70Y         0.0447
     50 H19        35.9015   60.7558   44.7430 H         1 70Y         0.0437
     51 H20        33.6233   59.0928   47.4193 H         1 70Y         0.0234
     52 H21        31.9950   58.9211   46.6805 H         1 70Y         0.0234
     53 H22        32.8779   60.4805   46.5562 H         1 70Y         0.0234
     54 H23        31.7332   61.0116   44.5123 H         1 70Y         0.3231
     55 H24        31.6925   62.9698   43.0987 H         1 70Y         0.3199
     56 H25        33.1293   63.3263   42.1030 H         1 70Y         0.3199
     57 H26        34.9679   63.1853   42.5548 H         1 70Y         0.0680
     58 H27        35.7385   62.1163   41.3341 H         1 70Y         0.0680
     59 H28        34.5581   59.4942   45.1856 H         1 70Y         0.0345
     60 H29        37.6646   63.3949   41.8973 H         1 70Y         0.0431
     61 H30        39.7414   59.1202   48.6450 H         1 70Y         0.0534
     62 H31        38.9585   60.6842   49.0547 H         1 70Y         0.0534
@<TRIPOS>BOND
     1    1    2 ar 
     2    7    1 ar 
     3    2    3 ar 
     4    4    3 ar 
     5    6    4 ar 
     6   26    5 1  
     7    7    6 ar 
     8    9    7 1  
     9    8    9 1  
    10   29    8 1  
    11   30    9 1  
    12   29   10 am 
    13   10   30 1  
    14   10   31 2  
    15   11   13 1  
    16   21   11 am 
    17   11   24 2  
    18   13   12 1  
    19   12   14 1  
    20   20   12 1  
    21   12   26 1  
    22   16   15 ar 
    23   15   28 ar 
    24   17   16 ar 
    25   18   17 ar 
    26   17   29 1  
    27   27   18 ar 
    28   26   19 1  
    29   22   20 ar 
    30   21   22 ar 
    31   25   21 1  
    32   22   23 ar 
    33   25   27 1  
    34   27   28 ar 
    35    1   32 1  
    36    2   33 1  
    37    3   34 1  
    38    4   35 1  
    39    5   36 1  
    40    5   37 1  
    41    5   38 1  
    42    6   39 1  
    43    8   40 1  
    44    8   41 1  
    45    9   42 1  
    46   13   43 1  
    47   13   44 1  
    48   14   45 1  
    49   14   46 1  
    50   14   47 1  
    51   15   48 1  
    52   16   49 1  
    53   18   50 1  
    54   19   51 1  
    55   19   52 1  
    56   19   53 1  
    57   20   54 1  
    58   23   55 1  
    59   23   56 1  
    60   25   57 1  
    61   25   58 1  
    62   26   59 1  
    63   28   60 1  
    64   30   61 1  
    65   30   62 1  
@<TRIPOS>SUBSTRUCTURE
     1 70Y         1

