### 
### Created by X-TOOL on Mon Sep 10 21:13:20 2018
### 

@<TRIPOS>MOLECULE
4xx9_ligand
   44    46     1     0     0
SMALL
GAST_HUCK


@<TRIPOS>ATOM
      1 C01       -13.1870   18.9980  -13.5710 C.ar      1 RF4        -0.0232
      2 C02       -14.2870   18.5730  -14.2270 C.ar      1 RF4        -0.0759
      3 C03       -15.2520   17.7700  -13.5680 C.ar      1 RF4        -0.0862
      4 C04       -15.0810   17.4340  -12.2240 C.ar      1 RF4        -0.0759
      5 C05       -13.9830   17.8640  -11.5550 C.ar      1 RF4        -0.0232
      6 C06       -13.0040   18.6560  -12.2190 C.ar      1 RF4         0.0935
      7 O07       -11.8160   19.1330  -11.5160 O.3       1 RF4        -0.3248
      8 C08       -10.7190   18.2020  -11.3910 C.3       1 RF4         0.0790
      9 C09       -12.1420   19.8570  -14.2910 C.3       1 RF4        -0.0348
     10 C10       -13.7980   17.4650  -10.0600 C.3       1 RF4        -0.0348
     11 C11        -9.5950   18.9320  -10.5530 C.3       1 RF4         0.0437
     12 S12        -8.6700   17.8320   -9.4650 S.3       1 RF4        -0.0333
     13 C13        -9.4880   16.2280   -9.2490 C.2       1 RF4         0.1892
     14 N14        -8.9960   15.0940   -9.7610 N.pl3     1 RF4        -0.2100
     15 C15        -9.8650   14.0850   -9.4160 C.ar      1 RF4         0.0837
     16 C16       -10.9240   14.7020   -8.6830 C.ar      1 RF4         0.0219
     17 N17       -10.6450   16.0380   -8.5980 N.2       1 RF4        -0.3079
     18 C18        -9.8640   12.7200   -9.6660 C.ar      1 RF4        -0.0419
     19 C19       -10.9280   11.9510   -9.1520 C.ar      1 RF4        -0.0766
     20 C20       -11.9980   12.5730   -8.4260 C.ar      1 RF4        -0.0786
     21 C21       -12.0080   13.9270   -8.1850 C.ar      1 RF4        -0.0655
     22 C22        -7.7640   14.9740  -10.4850 C.3       1 RF4         0.1098
     23 C23        -6.6360   14.5710   -9.5070 C.2       1 RF4         0.0641
     24 O24        -5.4280   14.4500   -9.9300 O.co2     1 RF4        -0.5663
     25 O25        -6.8970   14.3380   -8.2600 O.co2     1 RF4        -0.5663
     26 H1        -14.4339   18.8475  -15.2653 H         1 RF4         0.0471
     27 H2        -16.1230   17.4168  -14.1081 H         1 RF4         0.0489
     28 H3        -15.8246   16.8305  -11.7162 H         1 RF4         0.0471
     29 H4        -10.3351   17.9330  -12.3861 H         1 RF4         0.0618
     30 H5        -11.0512   17.2930  -10.8681 H         1 RF4         0.0618
     31 H6        -12.4552   20.0186  -15.3330 H         1 RF4         0.0366
     32 H7        -11.1703   19.3417  -14.2759 H         1 RF4         0.0366
     33 H8        -12.0505   20.8273  -13.7810 H         1 RF4         0.0366
     34 H9        -14.6553   16.8579   -9.7338 H         1 RF4         0.0366
     35 H10       -13.7362   18.3735   -9.4429 H         1 RF4         0.0366
     36 H11       -12.8720   16.8819   -9.9480 H         1 RF4         0.0366
     37 H12       -10.0710   19.7093   -9.9372 H         1 RF4         0.0438
     38 H13        -8.8889   19.4009  -11.2541 H         1 RF4         0.0438
     39 H14        -9.0684   12.2585  -10.2397 H         1 RF4         0.0541
     40 H15       -10.9378   10.8782   -9.3069 H         1 RF4         0.0528
     41 H16       -12.8157   11.9628   -8.0598 H         1 RF4         0.0516
     42 H17       -12.8175   14.3897   -7.6322 H         1 RF4         0.0535
     43 H18        -7.5174   15.9381  -10.9537 H         1 RF4         0.0773
     44 H19        -7.8683   14.2039  -11.2635 H         1 RF4         0.0773
@<TRIPOS>BOND
     1    1    2 ar 
     2    1    6 ar 
     3    1    9 1  
     4    2    3 ar 
     5    3    4 ar 
     6    4    5 ar 
     7    5    6 ar 
     8    5   10 1  
     9    6    7 1  
    10    7    8 1  
    11    8   11 1  
    12   11   12 1  
    13   12   13 1  
    14   13   14 1  
    15   13   17 2  
    16   14   15 1  
    17   14   22 1  
    18   15   16 ar 
    19   15   18 ar 
    20   16   17 1  
    21   16   21 ar 
    22   18   19 ar 
    23   19   20 ar 
    24   20   21 ar 
    25   22   23 1  
    26   23   24 ar 
    27   23   25 ar 
    28    2   26 1  
    29    3   27 1  
    30    4   28 1  
    31    8   29 1  
    32    8   30 1  
    33    9   31 1  
    34    9   32 1  
    35    9   33 1  
    36   10   34 1  
    37   10   35 1  
    38   10   36 1  
    39   11   37 1  
    40   11   38 1  
    41   18   39 1  
    42   19   40 1  
    43   20   41 1  
    44   21   42 1  
    45   22   43 1  
    46   22   44 1  
@<TRIPOS>SUBSTRUCTURE
     1 RF4         1

