### 
### Created by X-TOOL on Mon Sep 10 21:13:23 2018
### 

@<TRIPOS>MOLECULE
4xxs_ligand
   44    47     1     0     0
SMALL
GAST_HUCK


@<TRIPOS>ATOM
      1 C1         19.2790  -38.7140    8.1000 C.ar      1 SI5         0.0288
      2 C2         19.4930  -39.1340    6.7890 C.ar      1 SI5        -0.0378
      3 C3         20.7650  -39.3280    6.2880 C.ar      1 SI5        -0.0006
      4 C4         21.8270  -39.0790    7.1120 C.ar      1 SI5         0.1648
      5 C5         21.6920  -38.6370    8.4060 C.ar      1 SI5         0.0380
      6 C6         20.4120  -38.4850    8.8710 C.ar      1 SI5         0.1645
      7 F1         20.2460  -38.1220   10.1680 F         1 SI5        -0.1563
      8 C7         17.6430  -37.0110    8.9800 C.3       1 SI5         0.0700
      9 O1         16.3720  -36.7290    9.5750 O.3       1 SI5        -0.3754
     10 C8         16.0840  -37.5120   10.7370 C.3       1 SI5         0.0773
     11 C9         16.1160  -39.0080   10.4470 C.3       1 SI5        -0.0222
     12 C10        14.7390  -37.0440   11.1970 C.2       1 SI5        -0.0045
     13 F2         23.0630  -39.3190    6.6400 F         1 SI5        -0.1572
     14 C11        17.8180  -38.5170    8.5920 C.3       1 SI5         0.1234
     15 C12        17.4610  -39.4360    9.8280 C.3       1 SI5        -0.0073
     16 C13        17.5540  -40.9030    9.4140 C.3       1 SI5        -0.0054
     17 S1         16.4190  -41.3010    8.0610 S.3       1 SI5        -0.0881
     18 C14        16.2730  -39.8070    7.1500 C.cat     1 SI5         0.2579
     19 N1         16.8400  -38.6680    7.4760 N.pl3     1 SI5        -0.2844
     20 N2         15.4360  -39.9030    6.1010 N.pl3     1 SI5        -0.2674
     21 C15        14.4110  -36.3400   12.4250 C.2       1 SI5        -0.0009
     22 N3         13.1140  -36.0900   12.4820 N.2       1 SI5        -0.2231
     23 N4         12.5860  -36.6280   11.3030 N.pl3     1 SI5        -0.2187
     24 C16        13.5280  -37.1910   10.5390 C.2       1 SI5         0.0481
     25 C17        11.1540  -36.5520   11.0410 C.3       1 SI5         0.0572
     26 H1         18.6390  -39.3131    6.1458 H         1 SI5         0.0823
     27 H2         20.9172  -39.6681    5.2701 H         1 SI5         0.0665
     28 H3         22.5536  -38.4198    9.0269 H         1 SI5         0.0674
     29 H4         18.4328  -36.7399    9.6960 H         1 SI5         0.0498
     30 H5         17.7471  -36.4008    8.0707 H         1 SI5         0.0498
     31 H6         16.8309  -37.3006   11.5164 H         1 SI5         0.0683
     32 H7         15.3056  -39.2532    9.7448 H         1 SI5         0.0300
     33 H8         15.9648  -39.5576   11.3878 H         1 SI5         0.0300
     34 H9         18.2279  -39.2742   10.5997 H         1 SI5         0.0250
     35 H10        17.3069  -41.5328   10.2813 H         1 SI5         0.0369
     36 H11        18.5829  -41.1152    9.0880 H         1 SI5         0.0369
     37 H12        16.5950  -37.8303    6.9291 H         1 SI5         0.3097
     38 H13        15.2738  -39.0860    5.4951 H         1 SI5         0.3186
     39 H14        14.9574  -40.7935    5.9038 H         1 SI5         0.3186
     40 H15        15.1321  -36.0579   13.1908 H         1 SI5         0.0627
     41 H16        13.3723  -37.6760    9.5765 H         1 SI5         0.0873
     42 H17        10.9328  -37.0253   10.0730 H         1 SI5         0.0599
     43 H18        10.8417  -35.4976   11.0135 H         1 SI5         0.0599
     44 H19        10.6070  -37.0758   11.8387 H         1 SI5         0.0599
@<TRIPOS>BOND
     1    1    2 ar 
     2    1    6 ar 
     3   14    1 1  
     4    2    3 ar 
     5    3    4 ar 
     6    5    4 ar 
     7    4   13 1  
     8    6    5 ar 
     9    6    7 1  
    10    8    9 1  
    11    8   14 1  
    12    9   10 1  
    13   10   11 1  
    14   10   12 1  
    15   11   15 1  
    16   12   21 1  
    17   12   24 2  
    18   14   15 1  
    19   14   19 1  
    20   15   16 1  
    21   16   17 1  
    22   17   18 1  
    23   18   19 ar 
    24   18   20 ar 
    25   21   22 2  
    26   22   23 1  
    27   23   24 1  
    28   23   25 1  
    29    2   26 1  
    30    3   27 1  
    31    5   28 1  
    32    8   29 1  
    33    8   30 1  
    34   10   31 1  
    35   11   32 1  
    36   11   33 1  
    37   15   34 1  
    38   16   35 1  
    39   16   36 1  
    40   19   37 1  
    41   20   38 1  
    42   20   39 1  
    43   21   40 1  
    44   24   41 1  
    45   25   42 1  
    46   25   43 1  
    47   25   44 1  
@<TRIPOS>SUBSTRUCTURE
     1 SI5         1

