### 
### Created by X-TOOL on Mon Sep 10 21:13:24 2018
### 

@<TRIPOS>MOLECULE
4xy2_ligand
   57    61     1     0     0
SMALL
GAST_HUCK


@<TRIPOS>ATOM
      1 C4         15.2960    1.9310   62.2860 C.2       1 490         0.0542
      2 C7         15.7030    2.2380   64.7150 C.3       1 490         0.0572
      3 C8         15.4510    2.1800   59.8260 C.2       1 490        -0.0474
      4 C10        14.4350    1.7330   57.2550 C.2       1 490         0.1863
      5 C17        20.3310    2.9980   58.5470 C.ar      1 490        -0.0316
      6 C20        21.0820    3.5140   57.5000 C.ar      1 490        -0.0629
      7 C21        19.4920    5.2000   58.9650 C.ar      1 490        -0.0316
      8 C22        21.9050    5.3440   55.9950 C.ar      1 490        -0.0232
      9 C24        22.1730    6.5220   53.8830 C.ar      1 490        -0.0749
     10 C26        24.0300    5.4720   54.8200 C.ar      1 490         0.0850
     11 C25        21.3990    6.0950   54.9580 C.ar      1 490        -0.0702
     12 C19        20.2620    5.6890   57.9060 C.ar      1 490        -0.0629
     13 C23        23.5220    6.2130   53.7700 C.ar      1 490        -0.0401
     14 C29        25.2680    4.2770   56.2400 C.2       1 490         0.1053
     15 C18        21.0810    4.8590   57.1390 C.ar      1 490        -0.0322
     16 C3         15.8570    2.4630   61.1640 C.2       1 490        -0.0031
     17 C27        23.2620    5.0480   55.8950 C.ar      1 490         0.0396
     18 C16        19.5160    3.8520   59.2770 C.ar      1 490         0.0949
     19 C2         16.8560    3.3650   61.6360 C.2       1 490         0.0478
     20 C12        14.0940    1.7710   59.6000 C.2       1 490        -0.0819
     21 C11        13.5360    1.5530   58.4130 C.3       1 490         0.0494
     22 C9         16.2430    2.3430   58.7630 C.3       1 490         0.0547
     23 C31        26.4820    5.1470   54.2340 C.3       1 490         0.0464
     24 C14        16.6500    2.3190   56.4030 C.3       1 490         0.0245
     25 C1         17.7470    4.1890   60.8000 C.3       1 490         0.1090
     26 N28        24.0590    4.3320   56.7570 N.2       1 490        -0.3057
     27 N6         16.9400    3.3900   62.9730 N.2       1 490        -0.2223
     28 N5         15.9780    2.5110   63.3160 N.pl3     1 490        -0.2179
     29 N30        25.2890    4.9620   55.0610 N.pl3     1 490        -0.2400
     30 N13        15.7640    2.1050   57.5040 N.am      1 490        -0.2669
     31 O32        13.9560    1.5360   56.1640 O.2       1 490        -0.3945
     32 O15        18.7620    3.2900   60.3230 O.3       1 490        -0.3054
     33 H1         14.4857    1.2060   62.3471 H         1 490         0.0982
     34 H2         16.3858    2.8273   65.3447 H         1 490         0.0598
     35 H3         15.8519    1.1668   64.9157 H         1 490         0.0598
     36 H4         14.6630    2.5131   64.9448 H         1 490         0.0598
     37 H5         20.3803    1.9430   58.7911 H         1 490         0.0547
     38 H6         21.7040    2.8320   56.9316 H         1 490         0.0594
     39 H7         18.8747    5.8781   59.5431 H         1 490         0.0547
     40 H8         21.7061    7.1169   53.1064 H         1 490         0.0544
     41 H9         20.3497    6.3662   54.9798 H         1 490         0.0517
     42 H10        20.2218    6.7469   57.6729 H         1 490         0.0594
     43 H11        24.1270    6.5273   52.9272 H         1 490         0.0541
     44 H12        26.1195    3.7641   56.6847 H         1 490         0.1347
     45 H13        13.4661    1.6265   60.4780 H         1 490         0.0375
     46 H14        13.1627    0.5184   58.3969 H         1 490         0.0607
     47 H15        12.6918    2.2492   58.3004 H         1 490         0.0607
     48 H16        17.1049    1.6745   58.9051 H         1 490         0.0647
     49 H17        16.5834    3.3889   58.7795 H         1 490         0.0647
     50 H18        26.2218    5.7348   53.3414 H         1 490         0.0571
     51 H19        26.8705    4.1651   53.9259 H         1 490         0.0571
     52 H20        27.2504    5.6802   54.8129 H         1 490         0.0571
     53 H21        16.1284    2.0882   55.4624 H         1 490         0.0488
     54 H22        17.5276    1.6639   56.5058 H         1 490         0.0488
     55 H23        16.9758    3.3696   56.3933 H         1 490         0.0488
     56 H24        18.1972    4.9960   61.3967 H         1 490         0.0769
     57 H25        17.1904    4.6234   59.9565 H         1 490         0.0769
@<TRIPOS>BOND
     1   16    1 2  
     2    1   28 1  
     3   28    2 1  
     4   16    3 1  
     5    3   20 2  
     6    3   22 1  
     7   21    4 1  
     8   30    4 am 
     9    4   31 2  
    10    5    6 ar 
    11   18    5 ar 
    12    6   15 ar 
    13    7   12 ar 
    14   18    7 ar 
    15    8   11 ar 
    16   15    8 1  
    17    8   17 ar 
    18   11    9 ar 
    19    9   13 ar 
    20   10   13 ar 
    21   17   10 ar 
    22   10   29 1  
    23   12   15 ar 
    24   26   14 2  
    25   14   29 1  
    26   19   16 1  
    27   17   26 1  
    28   32   18 1  
    29   25   19 1  
    30   19   27 2  
    31   20   21 1  
    32   22   30 1  
    33   29   23 1  
    34   30   24 1  
    35   25   32 1  
    36   27   28 1  
    37    1   33 1  
    38    2   34 1  
    39    2   35 1  
    40    2   36 1  
    41    5   37 1  
    42    6   38 1  
    43    7   39 1  
    44    9   40 1  
    45   11   41 1  
    46   12   42 1  
    47   13   43 1  
    48   14   44 1  
    49   20   45 1  
    50   21   46 1  
    51   21   47 1  
    52   22   48 1  
    53   22   49 1  
    54   23   50 1  
    55   23   51 1  
    56   23   52 1  
    57   24   53 1  
    58   24   54 1  
    59   24   55 1  
    60   25   56 1  
    61   25   57 1  
@<TRIPOS>SUBSTRUCTURE
     1 490         1

