### 
### Created by X-TOOL on Mon Sep 10 21:13:20 2018
### 

@<TRIPOS>MOLECULE
4xy8_ligand
   29    31     1     0     0
SMALL
GAST_HUCK


@<TRIPOS>ATOM
      1 C4         18.2010   28.0270  -19.1670 C.ar      1 43U         0.0060
      2 C5         17.7630   26.7420  -19.4020 C.ar      1 43U        -0.0463
      3 C6         17.7830   25.8280  -18.2940 C.ar      1 43U         0.0356
      4 C11        19.0240   21.7460  -16.7790 C.2       1 43U         0.1066
      5 C7         17.3830   24.4530  -18.4840 C.ar      1 43U         0.0544
      6 C8         17.9430   23.3250  -17.9070 C.ar      1 43U         0.0755
      7 C9         17.4920   22.0820  -18.2710 C.ar      1 43U         0.1513
      8 C10        16.0500   22.9470  -19.7780 C.ar      1 43U         0.1655
      9 N1         15.1160   22.8210  -20.7360 N.pl3     1 43U        -0.3091
     10 N2         16.4580   24.1830  -19.4670 N.ar      1 43U        -0.2694
     11 C3         18.6980   28.4860  -17.9670 C.ar      1 43U        -0.0574
     12 N3         18.1460   21.1210  -17.5670 N.pl3     1 43U        -0.2365
     13 BR         18.0950   29.2630  -20.5790 Br        1 43U        -0.0586
     14 C2         18.7310   27.6200  -16.8820 C.ar      1 43U        -0.0246
     15 C1         18.2990   26.3280  -17.0640 C.ar      1 43U         0.1106
     16 O          18.2480   25.4620  -16.0290 O.3       1 43U        -0.3137
     17 C          18.4460   25.9000  -14.6580 C.3       1 43U         0.0620
     18 N          16.5460   21.8920  -19.2010 N.ar      1 43U        -0.2479
     19 N4         18.9260   23.0630  -16.9420 N.2       1 43U        -0.2996
     20 H1         17.4177   26.4336  -20.3822 H         1 43U         0.0654
     21 H2         19.7185   21.2506  -16.1021 H         1 43U         0.1346
     22 H3         14.7269   23.6600  -21.1894 H         1 43U         0.1808
     23 H4         14.7893   21.8854  -21.0169 H         1 43U         0.1808
     24 H5         19.0567   29.5045  -17.8715 H         1 43U         0.0644
     25 H6         17.9934   20.1043  -17.6295 H         1 43U         0.2388
     26 H7         19.0888   27.9548  -15.9151 H         1 43U         0.0559
     27 H8         18.3628   25.0365  -13.9816 H         1 43U         0.0583
     28 H9         17.6803   26.6453  -14.3969 H         1 43U         0.0583
     29 H10        19.4448   26.3497  -14.5573 H         1 43U         0.0583
@<TRIPOS>BOND
     1    2    1 ar 
     2    1   11 ar 
     3    1   13 1  
     4    3    2 ar 
     5    5    3 1  
     6    3   15 ar 
     7    4   12 1  
     8   19    4 2  
     9    5    6 ar 
    10   10    5 ar 
    11    6    7 ar 
    12    6   19 1  
    13    7   12 1  
    14    7   18 ar 
    15    8    9 1  
    16    8   10 ar 
    17    8   18 ar 
    18   11   14 ar 
    19   14   15 ar 
    20   15   16 1  
    21   16   17 1  
    22    2   20 1  
    23    4   21 1  
    24    9   22 1  
    25    9   23 1  
    26   11   24 1  
    27   12   25 1  
    28   14   26 1  
    29   17   27 1  
    30   17   28 1  
    31   17   29 1  
@<TRIPOS>SUBSTRUCTURE
     1 43U         1

