### 
### Created by X-TOOL on Mon Sep 10 21:13:21 2018
### 

@<TRIPOS>MOLECULE
4xy9_ligand
   29    31     1     0     0
SMALL
GAST_HUCK


@<TRIPOS>ATOM
      1 C4         26.0250   14.3790   -0.6220 C.ar      1 43U         0.0054
      2 C5         27.2840   14.8590   -0.7720 C.ar      1 43U        -0.0471
      3 C6         27.9180   15.4330    0.3820 C.ar      1 43U         0.0365
      4 C11        30.4500   18.7900    2.0050 C.2       1 43U         0.1111
      5 C7         29.3700   15.8580    0.2150 C.ar      1 43U         0.0768
      6 C8         29.9600   16.9730    0.8790 C.ar      1 43U         0.1259
      7 C9         31.3120   17.3060    0.5720 C.ar      1 43U         0.0968
      8 C10        31.4600   15.6120   -0.8830 C.ar      1 43U         0.1629
      9 N1         32.1580   14.9170   -1.8150 N.pl3     1 43U        -0.3106
     10 N2         30.0830   15.1700   -0.6590 N.ar      1 43U        -0.2677
     11 C3         25.2820   14.4020    0.5200 C.ar      1 43U        -0.0578
     12 N3         31.5970   18.4650    1.3010 N.2       1 43U        -0.2866
     13 BR         25.2690   13.5440   -2.2050 Br        1 43U        -0.0587
     14 C2         25.8510   14.9430    1.6740 C.ar      1 43U        -0.0252
     15 C1         27.2000   15.4570    1.5980 C.ar      1 43U         0.1098
     16 O          27.9000   15.8940    2.6630 O.3       1 43U        -0.3141
     17 C          27.1680   15.9750    3.9390 C.3       1 43U         0.0619
     18 N          32.1140   16.6570   -0.2820 N.ar      1 43U        -0.2725
     19 N4         29.4360   17.8990    1.7730 N.pl3     1 43U        -0.2428
     20 H1         27.7934   14.8114   -1.7277 H         1 43U         0.0649
     21 H2         30.3642   19.6519    2.6650 H         1 43U         0.1406
     22 H3         31.7188   14.1215   -2.3000 H         1 43U         0.1794
     23 H4         33.1274   15.1846   -2.0379 H         1 43U         0.1794
     24 H5         24.2718   14.0090    0.5320 H         1 43U         0.0640
     25 H6         25.2952   14.9769    2.6041 H         1 43U         0.0558
     26 H7         27.8429   16.3424    4.7261 H         1 43U         0.0583
     27 H8         26.7954   14.9767    4.2120 H         1 43U         0.0583
     28 H9         26.3193   16.6665    3.8316 H         1 43U         0.0583
     29 H10        28.4878   17.9124    2.1751 H         1 43U         0.2372
@<TRIPOS>BOND
     1    2    1 ar 
     2    1   11 ar 
     3    1   13 1  
     4    3    2 ar 
     5    5    3 1  
     6    3   15 ar 
     7    4   12 2  
     8   19    4 1  
     9    5    6 ar 
    10   10    5 ar 
    11    6    7 ar 
    12    6   19 1  
    13    7   12 1  
    14    7   18 ar 
    15    8    9 1  
    16    8   10 ar 
    17    8   18 ar 
    18   11   14 ar 
    19   14   15 ar 
    20   15   16 1  
    21   16   17 1  
    22    2   20 1  
    23    4   21 1  
    24    9   22 1  
    25    9   23 1  
    26   11   24 1  
    27   14   25 1  
    28   17   26 1  
    29   17   27 1  
    30   17   28 1  
    31   19   29 1  
@<TRIPOS>SUBSTRUCTURE
     1 43U         1

