### 
### Created by X-TOOL on Mon Sep 10 21:13:20 2018
### 

@<TRIPOS>MOLECULE
4xya_ligand
   28    31     1     0     0
SMALL
GAST_HUCK


@<TRIPOS>ATOM
      1 C4         -7.1090   15.9250   -0.0290 C.ar      1 43S         0.0774
      2 C5         -8.4760   15.5060    0.2030 C.ar      1 43S         0.0370
      3 C6         -9.1410   15.5770    1.3940 C.ar      1 43S         0.1409
      4 C11       -10.4650   14.4760   -0.7140 C.ar      1 43S         0.0029
      5 C7         -9.5800   15.7690    3.6160 C.2       1 43S         0.0863
      6 C8        -10.9540   15.4040    2.9680 C.2       1 43S        -0.0450
      7 C9        -10.5150   15.1680    1.5320 C.ar      1 43S        -0.0037
      8 C10       -11.1850   14.6120    0.4500 C.ar      1 43S        -0.0572
      9 C12        -9.1790   14.9060   -0.8850 C.ar      1 43S        -0.0500
     10 N1         -4.3510   16.6740   -0.5120 N.ar      1 43S        -0.2717
     11 N2         -4.8350   18.3530    1.1790 N.2       1 43S        -0.2864
     12 C3         -6.5270   16.9620    0.7150 C.ar      1 43S         0.1267
     13 N3         -7.0140   17.8370    1.7220 N.pl3     1 43S        -0.2425
     14 BR        -11.2860   13.6130   -2.2670 Br        1 43S        -0.0580
     15 O          -8.5790   15.8600    2.5670 O.3       1 43S        -0.2522
     16 N4         -6.4090   15.2580   -0.9870 N.ar      1 43S        -0.2668
     17 C          -5.0540   15.6660   -1.1730 C.ar      1 43S         0.1637
     18 N          -4.3080   14.9580   -2.1400 N.pl3     1 43S        -0.3105
     19 C1         -5.1560   17.2870    0.4010 C.ar      1 43S         0.0976
     20 C2         -5.9440   18.6470    1.9550 C.2       1 43S         0.1113
     21 H1         -9.4020   15.9288    4.6784 H         1 43S         0.1071
     22 H2        -11.9439   15.3376    3.4171 H         1 43S         0.0345
     23 H3        -12.2213   14.3014    0.5192 H         1 43S         0.0612
     24 H4         -8.6927   14.7914   -1.8470 H         1 43S         0.0605
     25 H5         -7.9436   17.8547    2.1652 H         1 43S         0.2373
     26 H6         -3.3248   15.2088   -2.3169 H         1 43S         0.1795
     27 H7         -4.7469   14.1906   -2.6686 H         1 43S         0.1795
     28 H8         -5.9591   19.4538    2.6862 H         1 43S         0.1407
@<TRIPOS>BOND
     1    1    2 1  
     2   12    1 ar 
     3    1   16 ar 
     4    2    3 ar 
     5    2    9 ar 
     6    3    7 ar 
     7    3   15 1  
     8    4    8 ar 
     9    9    4 ar 
    10    4   14 1  
    11    5    6 2  
    12   15    5 1  
    13    7    6 1  
    14    7    8 ar 
    15   10   17 ar 
    16   19   10 ar 
    17   19   11 1  
    18   11   20 2  
    19   12   13 1  
    20   12   19 ar 
    21   13   20 1  
    22   16   17 ar 
    23   17   18 1  
    24    5   21 1  
    25    6   22 1  
    26    8   23 1  
    27    9   24 1  
    28   13   25 1  
    29   18   26 1  
    30   18   27 1  
    31   20   28 1  
@<TRIPOS>SUBSTRUCTURE
     1 43S         1

