### 
### Created by X-TOOL on Mon Sep 10 21:13:24 2018
### 

@<TRIPOS>MOLECULE
4xyc_ligand
   36    40     1     0     0
SMALL
GAST_HUCK


@<TRIPOS>ATOM
      1 O1        157.9920   33.8270    4.5710 O.2       1 2K9        -0.3851
      2 C9        157.9750   34.1350    5.7810 C.2       1 2K9         0.2635
      3 C5        157.7040   35.5590    6.1600 C.2       1 2K9         0.2222
      4 N3        157.4550   36.7020    5.4750 N.2       1 2K9        -0.3149
      5 C10       157.2890   37.7240    6.3640 C.2       1 2K9        -0.0177
      6 C6        157.4420   37.2230    7.6470 C.2       1 2K9         0.0517
      7 N1        157.6850   35.9270    7.4380 N.pl3     1 2K9        -0.2080
      8 C1        157.9120   35.0030    8.3850 C.2       1 2K9         0.1111
      9 N2        158.1990   33.1990    6.7330 N.am      1 2K9        -0.2432
     10 C2        158.1720   33.5990    8.0130 C.2       1 2K9         0.0943
     11 C4        158.3600   32.8990    9.1890 C.ar      1 2K9        -0.0054
     12 C8        158.6340   31.5450    9.3730 C.ar      1 2K9        -0.0669
     13 C12       158.7790   31.0910   10.6870 C.ar      1 2K9        -0.0730
     14 C14       158.6490   31.9820   11.7680 C.ar      1 2K9        -0.0652
     15 C11       158.3820   33.3520   11.5720 C.ar      1 2K9        -0.0192
     16 C7        158.2290   33.7880   10.2510 C.ar      1 2K9        -0.0201
     17 C3        157.9400   35.1690    9.8330 C.3       1 2K9         0.0381
     18 C13       158.1940   34.3140   12.7180 C.ar      1 2K9        -0.0222
     19 C16       157.2950   33.9750   13.7370 C.ar      1 2K9        -0.0556
     20 C18       157.0580   34.8410   14.8110 C.ar      1 2K9        -0.0622
     21 C19       157.7010   36.0750   14.8750 C.ar      1 2K9        -0.0626
     22 C17       158.5810   36.4360   13.8580 C.ar      1 2K9        -0.0622
     23 C15       158.8240   35.5650   12.7870 C.ar      1 2K9        -0.0556
     24 H1        157.0725   38.7601    6.1080 H         1 2K9         0.0473
     25 H2        157.3793   37.7563    8.5944 H         1 2K9         0.0879
     26 H3        158.3779   32.2453    6.4911 H         1 2K9         0.2210
     27 H4        158.7309   30.8703    8.5301 H         1 2K9         0.0563
     28 H5        158.9931   30.0450   10.8745 H         1 2K9         0.0549
     29 H6        158.7571   31.6048   12.7785 H         1 2K9         0.0558
     30 H7        156.9717   35.5174   10.2214 H         1 2K9         0.0640
     31 H8        158.7327   35.8636   10.1477 H         1 2K9         0.0640
     32 H9        156.7737   33.0256   13.6933 H         1 2K9         0.0615
     33 H10       156.3705   34.5498   15.5969 H         1 2K9         0.0615
     34 H11       157.5185   36.7462   15.7065 H         1 2K9         0.0610
     35 H12       159.0814   37.3969   13.8948 H         1 2K9         0.0615
     36 H13       159.5086   35.8626   12.0010 H         1 2K9         0.0615
@<TRIPOS>BOND
     1    1    2 2  
     2    2    3 1  
     3    2    9 am 
     4    3    4 2  
     5    3    7 1  
     6    4    5 1  
     7    5    6 2  
     8    6    7 1  
     9    7    8 1  
    10    8   10 2  
    11    8   17 1  
    12    9   10 1  
    13   10   11 1  
    14   11   12 ar 
    15   11   16 ar 
    16   12   13 ar 
    17   13   14 ar 
    18   14   15 ar 
    19   15   16 ar 
    20   15   18 1  
    21   16   17 1  
    22   18   19 ar 
    23   18   23 ar 
    24   19   20 ar 
    25   20   21 ar 
    26   21   22 ar 
    27   22   23 ar 
    28    5   24 1  
    29    6   25 1  
    30    9   26 1  
    31   12   27 1  
    32   13   28 1  
    33   14   29 1  
    34   17   30 1  
    35   17   31 1  
    36   19   32 1  
    37   20   33 1  
    38   21   34 1  
    39   22   35 1  
    40   23   36 1  
@<TRIPOS>SUBSTRUCTURE
     1 2K9         1

