### 
### Created by X-TOOL on Mon Sep 10 21:13:23 2018
### 

@<TRIPOS>MOLECULE
4xyf_ligand
   55    59     1     0     0
SMALL
GAST_HUCK


@<TRIPOS>ATOM
      1 C21        28.2610   32.2070   60.4780 C.3       1 44X        -0.0268
      2 C19        26.9960   31.9090   59.6670 C.2       1 44X         0.0198
      3 C20        26.2970   30.7660   59.6630 C.2       1 44X        -0.0270
      4 N5         26.4540   32.8140   58.8550 N.2       1 44X        -0.1627
      5 O1         25.3160   32.2250   58.2960 O.3       1 44X        -0.1808
      6 C18        25.2460   30.9750   58.8430 C.2       1 44X         0.1497
      7 C15        24.2400   30.1400   58.4010 C.2       1 44X         0.0571
      8 C16        24.1130   28.8330   58.8540 C.2       1 44X        -0.0144
      9 C17        23.1220   28.0010   58.3460 C.2       1 44X         0.1805
     10 F1         22.9840   26.7310   58.7800 F         1 44X        -0.1836
     11 C14        23.3820   30.6310   57.4080 C.2       1 44X         0.0997
     12 N2         22.3850   29.7920   56.9320 N.pl3     1 44X        -0.1645
     13 C13        22.2550   28.4810   57.3690 C.2       1 44X         0.1875
     14 N3         21.2430   27.9400   56.7030 N.2       1 44X        -0.2882
     15 N4         20.7400   28.7640   55.9120 N.2       1 44X        -0.2736
     16 C11        21.3960   29.9170   55.9870 C.2       1 44X         0.1678
     17 C10        21.1160   31.2100   55.2240 C.3       1 44X         0.0703
     18 C12        20.2910   30.9270   53.9510 C.3       1 44X        -0.0371
     19 C7         20.2940   32.1170   56.1640 C.ar      1 44X        -0.0213
     20 C6         20.8010   33.3120   56.6510 C.ar      1 44X        -0.0502
     21 C4         20.0100   34.1090   57.4950 C.ar      1 44X        -0.0112
     22 C3         20.5010   35.3060   57.9970 C.ar      1 44X        -0.0129
     23 C8         19.0020   31.7290   56.5340 C.ar      1 44X        -0.0523
     24 C9         18.2160   32.5170   57.3770 C.ar      1 44X        -0.0459
     25 C5         18.7150   33.7150   57.8560 C.ar      1 44X         0.0357
     26 N1         17.9710   34.4840   58.6700 N.ar      1 44X        -0.3008
     27 C1         18.4270   35.6360   59.1560 C.ar      1 44X         0.0421
     28 C2         19.7070   36.0800   58.8390 C.ar      1 44X         0.1189
     29 O2         20.2230   37.2530   59.2960 O.3       1 44X        -0.3092
     30 C22        19.7610   37.7980   60.5560 C.3       1 44X         0.0950
     31 C23        20.9740   38.2010   61.3980 C.3       1 44X         0.0752
     32 O3         21.4980   37.0520   62.1190 O.3       1 44X        -0.3803
     33 C24        22.0700   37.4820   63.3780 C.3       1 44X         0.0366
     34 H1         28.5297   31.3237   61.0760 H         1 44X         0.0375
     35 H2         28.0751   33.0601   61.1471 H         1 44X         0.0375
     36 H3         29.0866   32.4511   59.7933 H         1 44X         0.0375
     37 H4         26.5298   29.8537   60.2103 H         1 44X         0.0349
     38 H5         24.7961   28.4567   59.6141 H         1 44X         0.0616
     39 H6         23.4946   31.6426   57.0208 H         1 44X         0.1230
     40 H7         22.0626   31.6989   54.9501 H         1 44X         0.0686
     41 H8         20.8700   30.2806   53.2750 H         1 44X         0.0280
     42 H9         20.0619   31.8759   53.4440 H         1 44X         0.0280
     43 H10        19.3531   30.4226   54.2265 H         1 44X         0.0280
     44 H11        21.8020   33.6294   56.3820 H         1 44X         0.0533
     45 H12        21.4992   35.6372   57.7345 H         1 44X         0.0624
     46 H13        18.6017   30.7947   56.1574 H         1 44X         0.0594
     47 H14        17.2199   32.1917   57.6547 H         1 44X         0.0633
     48 H15        17.7960   36.2333   59.8042 H         1 44X         0.0819
     49 H16        19.1745   37.0385   61.0937 H         1 44X         0.0639
     50 H17        19.1327   38.6810   60.3679 H         1 44X         0.0639
     51 H18        20.6728   38.9746   62.1197 H         1 44X         0.0587
     52 H19        21.7568   38.6012   60.7368 H         1 44X         0.0587
     53 H20        22.4645   36.6090   63.9186 H         1 44X         0.0524
     54 H21        21.2937   37.9696   63.9859 H         1 44X         0.0524
     55 H22        22.8863   38.1938   63.1858 H         1 44X         0.0524
@<TRIPOS>BOND
     1    1    2 1  
     2    2    3 1  
     3    2    4 2  
     4    3    6 2  
     5    4    5 1  
     6    5    6 1  
     7    6    7 1  
     8    7    8 1  
     9    7   11 2  
    10    8    9 2  
    11    9   10 1  
    12    9   13 1  
    13   11   12 1  
    14   12   13 1  
    15   12   16 1  
    16   13   14 2  
    17   14   15 1  
    18   15   16 2  
    19   16   17 1  
    20   17   18 1  
    21   17   19 1  
    22   19   20 ar 
    23   19   23 ar 
    24   20   21 ar 
    25   21   22 ar 
    26   21   25 ar 
    27   22   28 ar 
    28   23   24 ar 
    29   24   25 ar 
    30   25   26 ar 
    31   26   27 ar 
    32   27   28 ar 
    33   28   29 1  
    34   29   30 1  
    35   30   31 1  
    36   31   32 1  
    37   32   33 1  
    38    1   34 1  
    39    1   35 1  
    40    1   36 1  
    41    3   37 1  
    42    8   38 1  
    43   11   39 1  
    44   17   40 1  
    45   18   41 1  
    46   18   42 1  
    47   18   43 1  
    48   20   44 1  
    49   22   45 1  
    50   23   46 1  
    51   24   47 1  
    52   27   48 1  
    53   30   49 1  
    54   30   50 1  
    55   31   51 1  
    56   31   52 1  
    57   33   53 1  
    58   33   54 1  
    59   33   55 1  
@<TRIPOS>SUBSTRUCTURE
     1 44X         1

