### 
### Created by X-TOOL on Mon Sep 10 21:13:24 2018
### 

@<TRIPOS>MOLECULE
4y0a_ligand
   23    23     1     0     0
SMALL
GAST_HUCK


@<TRIPOS>ATOM
      1 O12         3.0520    9.6830   20.0410 O.3       1 SKM        -0.3867
      2 C8          4.1300   10.6260   20.0370 C.3       1 SKM         0.1070
      3 C6          5.2510   10.2410   20.7920 C.3       1 SKM         0.0852
      4 O7          6.2870   11.2570   20.7390 O.3       1 SKM        -0.3890
      5 C5          5.9420    8.8870   20.2880 C.3       1 SKM        -0.0098
      6 C4          6.0080    8.7230   18.7980 C.3       1 SKM         0.0166
      7 C1          6.7120    7.6110   18.1580 C.2       1 SKM         0.0380
      8 O2          6.8570    6.5550   18.8570 O.co2     1 SKM        -0.5687
      9 O3          7.0900    7.6870   16.9380 O.co2     1 SKM        -0.5687
     10 C10         5.3410    9.7610   17.9060 C.3       1 SKM        -0.0098
     11 C9          4.5800   10.8410   18.4240 C.3       1 SKM         0.0852
     12 O11         3.3800   11.0020   17.6020 O.3       1 SKM        -0.3890
     13 H1          2.3382   10.0174   19.5106 H         1 SKM         0.2100
     14 H2          3.7600   11.5785   20.4443 H         1 SKM         0.0645
     15 H3          4.9244   10.1057   21.8336 H         1 SKM         0.0621
     16 H4          5.9478   12.0722   21.0898 H         1 SKM         0.2099
     17 H5          5.3728    8.0403   20.6992 H         1 SKM         0.0311
     18 H6          6.9697    8.8626   20.6794 H         1 SKM         0.0311
     19 H7          5.0837    8.1272   18.8235 H         1 SKM         0.0468
     20 H8          4.6646    9.2027   17.2421 H         1 SKM         0.0311
     21 H9          6.1473   10.2144   17.3108 H         1 SKM         0.0311
     22 H10         5.1875   11.7555   18.3566 H         1 SKM         0.0621
     23 H11         2.8612   11.7230   17.9388 H         1 SKM         0.2099
@<TRIPOS>BOND
     1    1    2 1  
     2    2    3 1  
     3    2   11 1  
     4    3    4 1  
     5    3    5 1  
     6    5    6 1  
     7    6    7 1  
     8    6   10 1  
     9    7    8 ar 
    10    7    9 ar 
    11   10   11 1  
    12   11   12 1  
    13    1   13 1  
    14    2   14 1  
    15    3   15 1  
    16    4   16 1  
    17    5   17 1  
    18    5   18 1  
    19    6   19 1  
    20   10   20 1  
    21   10   21 1  
    22   11   22 1  
    23   12   23 1  
@<TRIPOS>SUBSTRUCTURE
     1 SKM         1

