### 
### Created by X-TOOL on Mon Sep 10 21:13:29 2018
### 

@<TRIPOS>MOLECULE
4y24_ligand
   75    80     1     0     0
SMALL
GAST_HUCK


@<TRIPOS>ATOM
      1 C1         23.1410   -0.7340  -17.7280 C.3       1 TD2         0.1360
      2 C2         23.4480   -2.0810  -17.1170 C.3       1 TD2         0.1267
      3 C3         22.6120   -3.1740  -17.6690 C.3       1 TD2         0.1476
      4 C4         21.1970   -2.9030  -17.7470 C.3       1 TD2         0.1195
      5 C5         20.9320   -1.5700  -18.3710 C.3       1 TD2         0.1122
      6 C6         19.5110   -1.2780  -18.2440 C.3       1 TD2         0.0730
      7 N9         23.2460   -6.4840  -16.8280 N.2       1 TD2        -0.2165
      8 C12        22.5110    7.8200  -13.3790 C.ar      1 TD2        -0.0216
      9 C13        21.4040    8.3880  -12.8320 C.ar      1 TD2        -0.0268
     10 C14        21.4940    9.1290  -11.6190 C.ar      1 TD2         0.1281
     11 C11        23.3000    2.0830  -17.6060 C.3       1 TD2         0.1360
     12 S1         23.9380    0.6040  -16.9330 S.3       1 TD2        -0.0931
     13 O5         21.7150   -0.5080  -17.7610 O.3       1 TD2        -0.3552
     14 O51        24.2880    2.5070  -18.6020 O.3       1 TD2        -0.3552
     15 C51        23.9610    3.7450  -19.2530 C.3       1 TD2         0.1122
     16 C61        25.0440    3.9980  -20.2280 C.3       1 TD2         0.0730
     17 O6         19.1950   -0.0050  -18.5660 O.3       1 TD2        -0.3924
     18 O61        24.6880    3.3880  -21.4190 O.3       1 TD2        -0.3924
     19 C41        23.7900    4.8790  -18.2990 C.3       1 TD2         0.1195
     20 O4         20.7310   -2.9330  -16.4470 O.3       1 TD2        -0.3857
     21 O41        25.0390    5.2110  -17.6940 O.3       1 TD2        -0.3857
     22 C31        22.8910    4.5000  -17.2050 C.3       1 TD2         0.1476
     23 C21        22.9930    3.1390  -16.6090 C.3       1 TD2         0.1267
     24 O2         21.6950    2.7950  -16.1460 O.3       1 TD2        -0.3849
     25 O21        24.7930   -2.3920  -17.2440 O.3       1 TD2        -0.3849
     26 N7         22.5510    5.6030  -16.2890 N.pl3     1 TD2        -0.1587
     27 C8         23.1220    5.9260  -15.0940 C.2       1 TD2         0.0882
     28 C9         22.3960    7.0240  -14.6500 C.2       1 TD2         0.0691
     29 N10        21.4780    7.2340  -15.5800 N.2       1 TD2        -0.2165
     30 N11        21.6170    6.3830  -16.5120 N.2       1 TD2        -0.0900
     31 N71        22.8240   -4.4230  -16.9630 N.pl3     1 TD2        -0.1587
     32 N8         23.0850   -5.5140  -17.6090 N.2       1 TD2        -0.0900
     33 C10        23.1250   -6.0940  -15.5780 C.2       1 TD2         0.0691
     34 C71        22.8440   -4.6850  -15.6810 C.2       1 TD2         0.0882
     35 C15        22.7360    9.2400  -10.9760 C.ar      1 TD2        -0.0325
     36 C16        23.8110    8.6590  -11.5300 C.ar      1 TD2        -0.0678
     37 C17        23.7240    7.9250  -12.7460 C.ar      1 TD2        -0.0640
     38 C22        23.2880   -7.0420  -14.3920 C.ar      1 TD2        -0.0216
     39 C23        23.9170   -8.2720  -14.6320 C.ar      1 TD2        -0.0640
     40 C24        24.1090   -9.2040  -13.6180 C.ar      1 TD2        -0.0678
     41 C25        23.6900   -8.9090  -12.3690 C.ar      1 TD2        -0.0325
     42 C26        23.0920   -7.7090  -12.1240 C.ar      1 TD2         0.1281
     43 C27        22.9030   -6.7580  -13.1520 C.ar      1 TD2        -0.0268
     44 F18        20.4710    9.7000  -11.0380 F         1 TD2        -0.1847
     45 F28        22.6600   -7.4410  -10.8910 F         1 TD2        -0.1847
     46 H1         23.5038   -0.7590  -18.7661 H         1 TD2         0.0741
     47 H2         23.2225   -2.0082  -16.0428 H         1 TD2         0.0663
     48 H3         22.9562   -3.3235  -18.7030 H         1 TD2         0.0746
     49 H4         20.6994   -3.6820  -18.3433 H         1 TD2         0.0655
     50 H5         21.1944   -1.6232  -19.4379 H         1 TD2         0.0646
     51 H6         19.2093   -1.4593  -17.2018 H         1 TD2         0.0584
     52 H7         18.9550   -1.9545  -18.9097 H         1 TD2         0.0584
     53 H8         20.4442    8.2761  -13.3232 H         1 TD2         0.0566
     54 H9         22.3571    1.8494  -18.1221 H         1 TD2         0.0741
     55 H10        23.0125    3.6200  -19.7960 H         1 TD2         0.0646
     56 H11        25.9887    3.5736  -19.8573 H         1 TD2         0.0584
     57 H12        25.1639    5.0805  -20.3825 H         1 TD2         0.0584
     58 H13        19.6620    0.5909  -17.9921 H         1 TD2         0.2095
     59 H14        25.3688    3.5355  -22.0649 H         1 TD2         0.2095
     60 H15        23.3858    5.7493  -18.8367 H         1 TD2         0.0655
     61 H16        20.9080   -3.7859  -16.0679 H         1 TD2         0.2100
     62 H17        24.9148    5.9336  -17.0899 H         1 TD2         0.2100
     63 H18        21.9456    4.3920  -17.7569 H         1 TD2         0.0746
     64 H19        23.7357    3.1361  -15.7976 H         1 TD2         0.0663
     65 H20        21.0880    2.7990  -16.8768 H         1 TD2         0.2101
     66 H21        24.9776   -3.1939  -16.7694 H         1 TD2         0.2101
     67 H22        23.9583    5.4344  -14.5992 H         1 TD2         0.1078
     68 H23        22.6821   -3.9844  -14.8632 H         1 TD2         0.1078
     69 H24        22.8258    9.7875  -10.0447 H         1 TD2         0.0569
     70 H25        24.7724    8.7513  -11.0377 H         1 TD2         0.0596
     71 H26        24.6051    7.4546  -13.1671 H         1 TD2         0.0548
     72 H27        24.2624   -8.5022  -15.6334 H         1 TD2         0.0548
     73 H28        24.5881  -10.1536  -13.8274 H         1 TD2         0.0596
     74 H29        23.8285   -9.6229  -11.5651 H         1 TD2         0.0569
     75 H30        22.4458   -5.8005  -12.9301 H         1 TD2         0.0566
@<TRIPOS>BOND
     1    2    1 1  
     2    1   12 1  
     3    1   13 1  
     4    3    2 1  
     5    2   25 1  
     6    3    4 1  
     7   31    3 1  
     8    4    5 1  
     9    4   20 1  
    10    5    6 1  
    11    5   13 1  
    12    6   17 1  
    13   32    7 2  
    14    7   33 1  
    15    8    9 ar 
    16   28    8 1  
    17    8   37 ar 
    18    9   10 ar 
    19   10   35 ar 
    20   10   44 1  
    21   12   11 1  
    22   11   14 1  
    23   11   23 1  
    24   14   15 1  
    25   15   16 1  
    26   15   19 1  
    27   16   18 1  
    28   19   21 1  
    29   22   19 1  
    30   23   22 1  
    31   22   26 1  
    32   23   24 1  
    33   26   27 1  
    34   26   30 1  
    35   27   28 2  
    36   29   28 1  
    37   30   29 2  
    38   31   32 1  
    39   31   34 1  
    40   33   34 2  
    41   33   38 1  
    42   35   36 ar 
    43   36   37 ar 
    44   38   39 ar 
    45   38   43 ar 
    46   39   40 ar 
    47   40   41 ar 
    48   41   42 ar 
    49   42   43 ar 
    50   42   45 1  
    51    1   46 1  
    52    2   47 1  
    53    3   48 1  
    54    4   49 1  
    55    5   50 1  
    56    6   51 1  
    57    6   52 1  
    58    9   53 1  
    59   11   54 1  
    60   15   55 1  
    61   16   56 1  
    62   16   57 1  
    63   17   58 1  
    64   18   59 1  
    65   19   60 1  
    66   20   61 1  
    67   21   62 1  
    68   22   63 1  
    69   23   64 1  
    70   24   65 1  
    71   25   66 1  
    72   27   67 1  
    73   34   68 1  
    74   35   69 1  
    75   36   70 1  
    76   37   71 1  
    77   39   72 1  
    78   40   73 1  
    79   41   74 1  
    80   43   75 1  
@<TRIPOS>SUBSTRUCTURE
     1 TD2         1

