### 
### Created by X-TOOL on Mon Sep 10 21:13:23 2018
### 

@<TRIPOS>MOLECULE
4y29_ligand
   45    49     1     0     0
SMALL
GAST_HUCK


@<TRIPOS>ATOM
      1 C1          2.9130   -4.0920   24.6990 C.ar      1 CTI        -0.0317
      2 C2          3.5210   -3.2160   23.7770 C.ar      1 CTI        -0.0099
      3 C3          2.8090   -2.0140   23.4410 C.ar      1 CTI        -0.0470
      4 C4          1.5650   -1.7060   23.9850 C.ar      1 CTI        -0.0365
      5 C5          4.7900   -3.4880   23.1800 C.ar      1 CTI         0.0523
      6 C6          5.2470   -2.5040   22.2910 C.ar      1 CTI        -0.0182
      7 C7          4.5290   -1.3550   21.9860 C.ar      1 CTI        -0.0793
      8 C8          3.2980   -1.0700   22.5510 C.ar      1 CTI        -0.0814
      9 N9          5.5740   -4.5800   23.4080 N.pl3     1 CTI        -0.3002
     10 C10         6.4600   -2.6150   21.6400 C.ar      1 CTI        -0.0437
     11 C11         7.2910   -3.7210   21.8850 C.ar      1 CTI         0.0040
     12 C12         6.8430   -4.7500   22.7500 C.3       1 CTI         0.0571
     13 C13         5.1720   -5.6650   24.3570 C.3       1 CTI         0.0190
     14 C14         8.8130   -2.6920   20.3630 C.ar      1 CTI         0.1115
     15 C15         7.9820   -1.5870   20.1550 C.ar      1 CTI        -0.0494
     16 C16         6.7540   -1.5520   20.7880 C.ar      1 CTI        -0.0839
     17 C17         8.5290   -3.7870   21.2400 C.ar      1 CTI         0.1207
     18 O18         9.3540   -4.9940   21.4320 O.3       1 CTI        -0.3298
     19 C19        10.8130   -5.2580   21.5340 C.3       1 CTI         0.0550
     20 O20         9.9690   -2.6680   19.6310 O.3       1 CTI        -0.3277
     21 C21         9.9000   -1.3340   18.9720 C.3       1 CTI         0.0564
     22 C22         1.7110   -3.7470   25.1960 C.ar      1 CTI         0.1261
     23 C23         1.0590   -2.6030   24.8410 C.ar      1 CTI         0.1261
     24 O24         0.9560   -4.4580   26.1080 O.3       1 CTI        -0.2890
     25 C25        -0.4540   -3.9090   25.9270 C.3       1 CTI         0.1887
     26 O26        -0.1520   -2.5010   25.4950 O.3       1 CTI        -0.2871
     27 H1          3.3982   -5.0141   24.9981 H         1 CTI         0.0493
     28 H2          1.0372   -0.7940   23.7307 H         1 CTI         0.0462
     29 H3          4.9501   -0.6523   21.2761 H         1 CTI         0.0526
     30 H4          2.7505   -0.1653   22.3126 H         1 CTI         0.0437
     31 H5          6.7808   -5.6728   22.1545 H         1 CTI         0.0655
     32 H6          7.6040   -4.8707   23.5350 H         1 CTI         0.0655
     33 H7          4.1917   -5.4248   24.7945 H         1 CTI         0.0485
     34 H8          5.9209   -5.7473   25.1584 H         1 CTI         0.0485
     35 H9          5.1077   -6.6204   23.8157 H         1 CTI         0.0485
     36 H10         8.2947   -0.7738   19.5100 H         1 CTI         0.0456
     37 H11         6.0548   -0.7389   20.6298 H         1 CTI         0.0460
     38 H12        10.9814   -6.3354   21.6787 H         1 CTI         0.0569
     39 H13        11.2270   -4.7041   22.3894 H         1 CTI         0.0569
     40 H14        11.3105   -4.9301   20.6094 H         1 CTI         0.0569
     41 H15        10.7902   -1.1897   18.3421 H         1 CTI         0.0572
     42 H16         9.8627   -0.5472   19.7398 H         1 CTI         0.0572
     43 H17         8.9962   -1.2799   18.3473 H         1 CTI         0.0572
     44 H18        -1.0215   -3.9309   26.8691 H         1 CTI         0.0977
     45 H19        -1.0074   -4.4605   25.1527 H         1 CTI         0.0977
@<TRIPOS>BOND
     1    2    1 ar 
     2    1   22 ar 
     3    2    3 ar 
     4    5    2 ar 
     5    3    4 ar 
     6    8    3 ar 
     7    4   23 ar 
     8    6    5 ar 
     9    9    5 1  
    10    6    7 ar 
    11   10    6 1  
    12    7    8 ar 
    13   12    9 1  
    14    9   13 1  
    15   11   10 ar 
    16   10   16 ar 
    17   11   12 1  
    18   17   11 ar 
    19   14   15 ar 
    20   14   17 ar 
    21   14   20 1  
    22   15   16 ar 
    23   17   18 1  
    24   18   19 1  
    25   20   21 1  
    26   22   23 ar 
    27   22   24 1  
    28   23   26 1  
    29   24   25 1  
    30   25   26 1  
    31    1   27 1  
    32    4   28 1  
    33    7   29 1  
    34    8   30 1  
    35   12   31 1  
    36   12   32 1  
    37   13   33 1  
    38   13   34 1  
    39   13   35 1  
    40   15   36 1  
    41   16   37 1  
    42   19   38 1  
    43   19   39 1  
    44   19   40 1  
    45   21   41 1  
    46   21   42 1  
    47   21   43 1  
    48   25   44 1  
    49   25   45 1  
@<TRIPOS>SUBSTRUCTURE
     1 CTI         1

