### 
### Created by X-TOOL on Mon Sep 10 21:13:21 2018
### 

@<TRIPOS>MOLECULE
4y2b_ligand
   43    45     1     0     0
SMALL
GAST_HUCK


@<TRIPOS>ATOM
      1 C1        -45.6810   25.0970   -0.6960 C.2       1 EPK         0.2084
      2 C2        -46.0270   26.2260   -1.3900 C.2       1 EPK         0.1728
      3 C3        -43.6650   26.8250   -1.4480 C.cat     1 EPK         0.1546
      4 N1        -43.3200   25.6250   -0.7300 N.pl3     1 EPK        -0.2749
      5 N2        -45.0390   27.1110   -1.7960 N.pl3     1 EPK        -0.2720
      6 C4        -44.3350   24.7630   -0.3840 C.3       1 EPK         0.2300
      7 C5        -47.4490   26.3640   -1.6310 C.2       1 EPK         0.0974
      8 S1        -47.1480   24.2310   -0.3050 S.3       1 EPK         0.0916
      9 C6        -48.2050   25.3340   -1.1010 C.2       1 EPK         0.0907
     10 N3        -42.6890   27.7630   -1.8830 N.pl3     1 EPK        -0.3389
     11 O1        -43.9990   23.6280    0.3080 O.3       1 EPK        -0.3393
     12 C7        -48.0410   27.4590   -2.4100 C.ar      1 EPK         0.0236
     13 N4        -48.2760   29.6560   -3.3950 N.ar      1 EPK        -0.2959
     14 C8        -41.9370   25.2830   -0.3840 C.3       1 EPK         0.0241
     15 C9        -47.5160   28.7450   -2.5170 C.ar      1 EPK         0.0198
     16 C10       -43.1930   28.9960   -2.4960 C.3       1 EPK         0.0231
     17 C11       -49.3460   29.2270   -4.0410 C.ar      1 EPK         0.0111
     18 C12       -49.2200   26.9790   -3.1260 C.ar      1 EPK        -0.0342
     19 C13       -41.3210   24.5580   -1.5650 C.3       1 EPK        -0.0450
     20 C14       -43.4670   29.9290   -1.3470 C.3       1 EPK        -0.0429
     21 C15       -42.0800   29.5570   -3.3330 C.3       1 EPK        -0.0429
     22 C16       -49.8800   27.8440   -3.8800 C.ar      1 EPK        -0.0338
     23 H1        -45.2794   27.9553   -2.3348 H         1 EPK         0.2119
     24 H2        -44.2395   24.2264   -1.3395 H         1 EPK         0.1312
     25 H3        -49.2871   25.2367   -1.1746 H         1 EPK         0.1473
     26 H4        -41.6803   27.5856   -1.7732 H         1 EPK         0.1680
     27 H5        -43.3961   23.1088   -0.2111 H         1 EPK         0.2200
     28 H6        -41.9247   24.6306    0.5015 H         1 EPK         0.0518
     29 H7        -41.3681   26.2002   -0.1717 H         1 EPK         0.0518
     30 H8        -46.6174   29.0532   -1.9949 H         1 EPK         0.0832
     31 H9        -44.0959   28.8190   -3.0988 H         1 EPK         0.0545
     32 H10       -49.8554   29.9069   -4.7142 H         1 EPK         0.0821
     33 H11       -49.5441   25.9479   -3.0427 H         1 EPK         0.0738
     34 H12       -40.2805   24.2904   -1.3288 H         1 EPK         0.0249
     35 H13       -41.3395   25.2137   -2.4480 H         1 EPK         0.0249
     36 H14       -41.8961   23.6441   -1.7748 H         1 EPK         0.0249
     37 H15       -43.8516   30.8842   -1.7340 H         1 EPK         0.0252
     38 H16       -42.5357   30.1076   -0.7896 H         1 EPK         0.0252
     39 H17       -44.2140   29.4771   -0.6778 H         1 EPK         0.0252
     40 H18       -42.4161   30.4874   -3.8140 H         1 EPK         0.0252
     41 H19       -41.7978   28.8263   -4.1053 H         1 EPK         0.0252
     42 H20       -41.2107   29.7684   -2.6931 H         1 EPK         0.0252
     43 H21       -50.7986   27.5502   -4.3750 H         1 EPK         0.0709
@<TRIPOS>BOND
     1    2    1 2  
     2    1    6 1  
     3    1    8 1  
     4    5    2 1  
     5    2    7 1  
     6    3    4 ar 
     7    3    5 ar 
     8    3   10 ar 
     9    4    6 1  
    10    4   14 1  
    11    6   11 1  
    12    7    9 2  
    13    7   12 1  
    14    8    9 1  
    15   10   16 1  
    16   12   15 ar 
    17   12   18 ar 
    18   15   13 ar 
    19   13   17 ar 
    20   14   19 1  
    21   16   20 1  
    22   16   21 1  
    23   17   22 ar 
    24   18   22 ar 
    25    5   23 1  
    26    6   24 1  
    27    9   25 1  
    28   10   26 1  
    29   11   27 1  
    30   14   28 1  
    31   14   29 1  
    32   15   30 1  
    33   16   31 1  
    34   17   32 1  
    35   18   33 1  
    36   19   34 1  
    37   19   35 1  
    38   19   36 1  
    39   20   37 1  
    40   20   38 1  
    41   20   39 1  
    42   21   40 1  
    43   21   41 1  
    44   21   42 1  
    45   22   43 1  
@<TRIPOS>SUBSTRUCTURE
     1 EPK         1

