### 
### Created by X-TOOL on Mon Sep 10 21:13:24 2018
### 

@<TRIPOS>MOLECULE
4y2j_ligand
   34    35     1     0     0
SMALL
GAST_HUCK


@<TRIPOS>ATOM
      1 C16       -16.9500  -13.0250   70.0960 C.ar      1 49G        -0.0687
      2 C14       -16.8970  -13.3380   68.7360 C.ar      1 49G        -0.0686
      3 C15       -17.5810  -11.8720   70.5220 C.ar      1 49G        -0.0686
      4 C12       -17.4820  -12.4930   67.8060 C.ar      1 49G        -0.0602
      5 C13       -18.1880  -11.0670   69.5620 C.ar      1 49G        -0.0602
      6 C4        -18.6640   -6.8450   63.0680 C.2       1 49G        -0.0415
      7 C5        -18.3620   -6.5390   61.7600 C.2       1 49G         0.0448
      8 C9        -18.1460  -11.3460   68.2050 C.ar      1 49G        -0.0380
      9 C3        -17.4580   -7.2410   63.6790 C.2       1 49G         0.0500
     10 C8        -16.2380   -6.5800   60.4290 C.3       1 49G         0.0568
     11 C11       -18.7990  -10.4140   67.2010 C.3       1 49G         0.0212
     12 C7        -17.2340   -7.6700   65.0910 C.3       1 49G         0.0030
     13 C10       -17.9130   -9.2220   66.7910 C.3       1 49G        -0.0228
     14 N1        -16.4560   -7.1570   62.7930 N.2       1 49G        -0.2238
     15 N2        -17.0280   -6.7440   61.6430 N.pl3     1 49G        -0.2199
     16 N6        -18.0190   -8.8790   65.3630 N.4       1 49G         0.2394
     17 H1        -16.4940  -13.6897   70.8208 H         1 49G         0.0559
     18 H2        -16.3980  -14.2425   68.4075 H         1 49G         0.0599
     19 H3        -17.6027  -11.6024   71.5717 H         1 49G         0.0599
     20 H4        -17.4186  -12.7339   66.7510 H         1 49G         0.0557
     21 H5        -18.7182  -10.1807   69.8911 H         1 49G         0.0557
     22 H6        -19.6445   -6.7913   63.5387 H         1 49G         0.0316
     23 H7        -19.0492   -6.2036   60.9846 H         1 49G         0.0976
     24 H8        -15.1853   -6.8178   60.6417 H         1 49G         0.0598
     25 H9        -16.3154   -5.5401   60.0788 H         1 49G         0.0598
     26 H10       -16.6170   -7.2583   59.6504 H         1 49G         0.0598
     27 H11       -19.7257  -10.0208   67.6445 H         1 49G         0.0478
     28 H12       -19.0416  -10.9926   66.2975 H         1 49G         0.0478
     29 H13       -17.5491   -6.8666   65.7731 H         1 49G         0.0963
     30 H14       -16.1660   -7.8836   65.2447 H         1 49G         0.0963
     31 H15       -16.8653   -9.4738   67.0123 H         1 49G         0.0838
     32 H16       -18.2124   -8.3449   67.3835 H         1 49G         0.0838
     33 H17       -17.6649   -9.6417   64.8071 H         1 49G         0.2028
     34 H18       -18.9850   -8.7123   65.1283 H         1 49G         0.2028
@<TRIPOS>BOND
     1    2    1 ar 
     2    3    1 ar 
     3    4    2 ar 
     4    5    3 ar 
     5    8    4 ar 
     6    8    5 ar 
     7    6    7 2  
     8    9    6 1  
     9    7   15 1  
    10   11    8 1  
    11   12    9 1  
    12    9   14 2  
    13   15   10 1  
    14   13   11 1  
    15   16   12 1  
    16   13   16 1  
    17   14   15 1  
    18    1   17 1  
    19    2   18 1  
    20    3   19 1  
    21    4   20 1  
    22    5   21 1  
    23    6   22 1  
    24    7   23 1  
    25   10   24 1  
    26   10   25 1  
    27   10   26 1  
    28   11   27 1  
    29   11   28 1  
    30   12   29 1  
    31   12   30 1  
    32   13   31 1  
    33   13   32 1  
    34   16   33 1  
    35   16   34 1  
@<TRIPOS>SUBSTRUCTURE
     1 49G         1

