### 
### Created by X-TOOL on Mon Sep 10 21:13:24 2018
### 

@<TRIPOS>MOLECULE
4y2p_ligand
   30    31     1     0     0
SMALL
GAST_HUCK


@<TRIPOS>ATOM
      1 C10       -17.0790  -10.9270   71.5790 C.ar      1 3C5         0.0079
      2 C01       -17.5430   -8.5610   66.7620 C.3       1 3C5        -0.0435
      3 N02       -18.7180   -9.2320   66.1940 N.4       1 3C5         0.2369
      4 C03       -19.4100  -10.0020   67.2520 C.3       1 3C5         0.0000
      5 C04       -18.5460  -10.9050   68.1060 C.ar      1 3C5         0.0027
      6 C09       -18.2260  -10.5250   69.3990 C.ar      1 3C5        -0.0462
      7 C08       -17.4290  -11.3300   70.2200 C.ar      1 3C5        -0.0173
      8 C07       -16.9570  -12.5310   69.7180 C.ar      1 3C5        -0.0592
      9 C06       -17.2630  -12.9260   68.4250 C.ar      1 3C5        -0.0667
     10 C05       -18.0480  -12.0950   67.6280 C.ar      1 3C5        -0.0543
     11 C15       -16.7260   -9.6190   71.8970 C.ar      1 3C5         0.0186
     12 N14       -16.2950   -9.2170   73.1140 N.ar      1 3C5        -0.2963
     13 C13       -16.2400  -10.1500   74.0780 C.ar      1 3C5         0.0108
     14 C12       -16.6150  -11.4630   73.8750 C.ar      1 3C5        -0.0338
     15 C11       -17.0140  -11.8420   72.6070 C.ar      1 3C5        -0.0351
     16 H1        -17.0305   -7.9896   65.9741 H         1 3C5         0.0777
     17 H2        -16.8553   -9.3133   67.1755 H         1 3C5         0.0777
     18 H3        -17.8624   -7.8770   67.5621 H         1 3C5         0.0777
     19 H4        -18.4248   -9.8583   65.4607 H         1 3C5         0.2025
     20 H5        -19.3477   -8.5422   65.8149 H         1 3C5         0.2025
     21 H6        -20.1702  -10.6303   66.7649 H         1 3C5         0.0979
     22 H7        -19.9034   -9.2816   67.9210 H         1 3C5         0.0979
     23 H8        -18.6013   -9.5834   69.7831 H         1 3C5         0.0570
     24 H9        -16.3419  -13.1688   70.3425 H         1 3C5         0.0575
     25 H10       -16.8961  -13.8699   68.0385 H         1 3C5         0.0603
     26 H11       -18.2710  -12.3926   66.6098 H         1 3C5         0.0567
     27 H12       -16.8017   -8.8713   71.1157 H         1 3C5         0.0831
     28 H13       -15.8851   -9.8591   75.0601 H         1 3C5         0.0820
     29 H14       -16.5970  -12.1785   74.6892 H         1 3C5         0.0709
     30 H15       -17.2800  -12.8758   72.4184 H         1 3C5         0.0741
@<TRIPOS>BOND
     1    7    1 1  
     2    1   11 ar 
     3    1   15 ar 
     4    3    2 1  
     5    4    3 1  
     6    5    4 1  
     7    6    5 ar 
     8    5   10 ar 
     9    6    7 ar 
    10    7    8 ar 
    11    8    9 ar 
    12    9   10 ar 
    13   11   12 ar 
    14   12   13 ar 
    15   13   14 ar 
    16   14   15 ar 
    17    2   16 1  
    18    2   17 1  
    19    2   18 1  
    20    3   19 1  
    21    3   20 1  
    22    4   21 1  
    23    4   22 1  
    24    6   23 1  
    25    8   24 1  
    26    9   25 1  
    27   10   26 1  
    28   11   27 1  
    29   13   28 1  
    30   14   29 1  
    31   15   30 1  
@<TRIPOS>SUBSTRUCTURE
     1 3C5         1

