### 
### Created by X-TOOL on Mon Sep 10 21:13:24 2018
### 

@<TRIPOS>MOLECULE
4y2q_ligand
   29    30     1     0     0
SMALL
GAST_HUCK


@<TRIPOS>ATOM
      1 C10       -16.8450  -11.4190   72.3960 C.ar      1 49N        -0.0188
      2 C5        -17.1450  -12.3570   71.4340 C.ar      1 49N        -0.0246
      3 C9        -16.7580  -10.1090   71.9750 C.ar      1 49N         0.0250
      4 C2        -17.3500  -11.9530   70.1290 C.ar      1 49N         0.0916
      5 C1        -17.2650  -10.6050   69.7830 C.ar      1 49N         0.1532
      6 C14       -18.8250  -10.3340   66.4660 C.3       1 49N        -0.0110
      7 C15       -16.8010   -8.9010   66.4800 C.3       1 49N        -0.0110
      8 C7        -18.8850  -10.2520   67.9870 C.3       1 49N         0.0787
      9 C8        -16.8680   -8.9550   68.0140 C.3       1 49N         0.0787
     10 C6        -17.6850  -13.0210   69.1390 C.3       1 49N         0.3718
     11 N4        -16.9630   -9.6900   70.7150 N.ar      1 49N        -0.2476
     12 N16       -18.0960   -9.1880   65.8510 N.4       1 49N         0.2301
     13 N3        -17.4910  -10.2070   68.4170 N.pl3     1 49N        -0.2627
     14 F11       -17.2170  -14.2040   69.5560 F         1 49N        -0.2303
     15 F12       -19.0010  -13.2020   68.9220 F         1 49N        -0.2303
     16 F13       -17.2170  -12.8450   67.8820 F         1 49N        -0.2303
     17 H1        -16.6853  -11.6963   73.4317 H         1 49N         0.0686
     18 H2        -17.2198  -13.4055   71.6988 H         1 49N         0.0915
     19 H3        -16.5050   -9.3602   72.7169 H         1 49N         0.1014
     20 H4        -19.8529  -10.3467   66.0744 H         1 49N         0.0836
     21 H5        -18.3139  -11.2665   66.1847 H         1 49N         0.0836
     22 H6        -16.0676   -9.6435   66.1324 H         1 49N         0.0836
     23 H7        -16.4764   -7.8949   66.1761 H         1 49N         0.0836
     24 H8        -19.3896  -11.1367   68.4025 H         1 49N         0.0597
     25 H9        -19.4173   -9.3433   68.3047 H         1 49N         0.0597
     26 H10       -17.4644   -8.1094   68.3872 H         1 49N         0.0597
     27 H11       -15.8512   -8.8984   68.4299 H         1 49N         0.0597
     28 H12       -18.6747   -8.3662   65.9267 H         1 49N         0.2015
     29 H13       -17.9367   -9.3984   64.8782 H         1 49N         0.2015
@<TRIPOS>BOND
     1    2    1 ar 
     2    3    1 ar 
     3    4    2 ar 
     4   11    3 ar 
     5    5    4 ar 
     6    4   10 1  
     7    5   11 ar 
     8   13    5 1  
     9    8    6 1  
    10    6   12 1  
    11    7    9 1  
    12   12    7 1  
    13    8   13 1  
    14    9   13 1  
    15   10   14 1  
    16   10   15 1  
    17   10   16 1  
    18    1   17 1  
    19    2   18 1  
    20    3   19 1  
    21    6   20 1  
    22    6   21 1  
    23    7   22 1  
    24    7   23 1  
    25    8   24 1  
    26    8   25 1  
    27    9   26 1  
    28    9   27 1  
    29   12   28 1  
    30   12   29 1  
@<TRIPOS>SUBSTRUCTURE
     1 49N         1

