### 
### Created by X-TOOL on Mon Sep 10 21:13:24 2018
### 

@<TRIPOS>MOLECULE
4y2s_ligand
   23    24     1     0     0
SMALL
GAST_HUCK


@<TRIPOS>ATOM
      1 C16       -17.5180   -8.9490   68.2100 C.ar      1 49P        -0.0351
      2 C15       -17.8540  -10.2710   68.0150 C.ar      1 49P        -0.0377
      3 C14       -16.9740   -8.5340   69.4150 C.ar      1 49P         0.0031
      4 C9        -17.1120  -10.7740   70.2660 C.ar      1 49P         0.0038
      5 C6        -15.7710   -8.8770   73.7520 C.2       1 49P         0.0276
      6 C3        -15.5810   -7.7500   71.8240 C.2       1 49P         0.0848
      7 C8        -17.6400  -11.1700   69.0390 C.ar      1 49P         0.0436
      8 C7        -16.7790   -9.4380   70.4430 C.ar      1 49P         0.1361
      9 C5        -15.2570   -7.6840   73.1660 C.2       1 49P         0.0968
     10 C4        -18.0090  -12.5830   68.8020 C.3       1 49P         0.3751
     11 N2        -16.3740   -9.6440   72.8320 N.2       1 49P        -0.2090
     12 N1        -16.2530   -8.9520   71.6680 N.pl3     1 49P        -0.1680
     13 O13       -14.5780   -6.6740   73.7590 O.3       1 49P        -0.3553
     14 F10       -17.9240  -12.9620   67.5180 F         1 49P        -0.2204
     15 F11       -17.2470  -13.4650   69.5050 F         1 49P        -0.2204
     16 F12       -19.3030  -12.8250   69.0790 F         1 49P        -0.2204
     17 H1        -17.6802   -8.2292   67.4159 H         1 49P         0.0683
     18 H2        -18.2791  -10.5988   67.0733 H         1 49P         0.0800
     19 H3        -16.6996   -7.4944   69.5526 H         1 49P         0.0832
     20 H4        -16.9646  -11.4926   71.0641 H         1 49P         0.0808
     21 H5        -15.6854   -9.1320   74.8073 H         1 49P         0.0646
     22 H6        -15.3561   -7.0142   71.0533 H         1 49P         0.0834
     23 H7        -14.4810   -6.8602   74.6855 H         1 49P         0.2350
@<TRIPOS>BOND
     1    1    2 ar 
     2    3    1 ar 
     3    7    2 ar 
     4    8    3 ar 
     5    4    7 ar 
     6    8    4 ar 
     7    9    5 1  
     8    5   11 2  
     9    6    9 2  
    10   12    6 1  
    11    7   10 1  
    12    8   12 1  
    13    9   13 1  
    14   10   14 1  
    15   10   15 1  
    16   10   16 1  
    17   11   12 1  
    18    1   17 1  
    19    2   18 1  
    20    3   19 1  
    21    4   20 1  
    22    5   21 1  
    23    6   22 1  
    24   13   23 1  
@<TRIPOS>SUBSTRUCTURE
     1 49P         1

