### 
### Created by X-TOOL on Mon Sep 10 21:13:24 2018
### 

@<TRIPOS>MOLECULE
4y2t_ligand
   36    37     1     0     0
SMALL
GAST_HUCK


@<TRIPOS>ATOM
      1 C17       -11.0720   -5.0160   55.6690 C.ar      1 49Q        -0.0687
      2 C14       -12.0730   -5.9700   55.6690 C.ar      1 49Q        -0.0685
      3 C15       -10.6950   -4.4060   56.8480 C.ar      1 49Q        -0.0685
      4 C11       -12.6820   -6.3000   56.8590 C.ar      1 49Q        -0.0578
      5 C12       -11.2940   -4.7460   58.0410 C.ar      1 49Q        -0.0578
      6 C5        -17.4420   -6.5310   60.5770 C.ar      1 49Q        -0.0687
      7 C6        -16.1710   -4.9470   61.8840 C.ar      1 49Q        -0.0687
      8 C2        -16.3960   -6.5310   59.6780 C.ar      1 49Q        -0.0394
      9 C3        -15.1200   -4.9370   60.9870 C.ar      1 49Q        -0.0394
     10 C8        -17.3090   -5.7250   61.6810 C.ar      1 49Q        -0.0536
     11 C9        -12.2870   -5.7010   58.0420 C.ar      1 49Q        -0.0131
     12 C1        -15.2700   -5.7580   59.8900 C.ar      1 49Q         0.0868
     13 C10       -18.4220   -5.7280   62.6400 C.3       1 49Q        -0.0222
     14 C7        -12.9830   -6.0700   59.3090 C.3       1 49Q         0.1028
     15 C13       -17.9760   -6.6220   63.7730 C.3       1 49Q        -0.0214
     16 C16       -18.1750   -8.0900   63.5230 C.3       1 49Q         0.0458
     17 O18       -17.8150   -8.6960   64.7660 O.3       1 49Q        -0.3949
     18 O4        -14.3390   -5.8620   58.8920 O.3       1 49Q        -0.3099
     19 H1        -10.5821   -4.7466   54.7403 H         1 49Q         0.0559
     20 H2        -12.3739   -6.4511   54.7454 H         1 49Q         0.0599
     21 H3         -9.9181   -3.6501   56.8352 H         1 49Q         0.0599
     22 H4        -13.4781   -7.0357   56.8691 H         1 49Q         0.0557
     23 H5        -10.9886   -4.2692   58.9653 H         1 49Q         0.0557
     24 H6        -18.3263   -7.1379   60.4198 H         1 49Q         0.0530
     25 H7        -16.1082   -4.3304   62.7733 H         1 49Q         0.0530
     26 H8        -16.4581   -7.1484   58.7892 H         1 49Q         0.0525
     27 H9        -14.2376   -4.3252   61.1359 H         1 49Q         0.0525
     28 H10       -19.3329   -6.1279   62.1706 H         1 49Q         0.0406
     29 H11       -18.6156   -4.7094   63.0074 H         1 49Q         0.0406
     30 H12       -12.7019   -5.4081   60.1414 H         1 49Q         0.0776
     31 H13       -12.7951   -7.1160   59.5927 H         1 49Q         0.0776
     32 H14       -18.5455   -6.3464   64.6729 H         1 49Q         0.0307
     33 H15       -16.9046   -6.4455   63.9487 H         1 49Q         0.0307
     34 H16       -17.5216   -8.4420   62.7111 H         1 49Q         0.0558
     35 H17       -19.2234   -8.3065   63.2700 H         1 49Q         0.0558
     36 H18       -17.9125   -9.6385   64.6975 H         1 49Q         0.2094
@<TRIPOS>BOND
     1    2    1 ar 
     2    3    1 ar 
     3    4    2 ar 
     4    5    3 ar 
     5   11    4 ar 
     6   11    5 ar 
     7    8    6 ar 
     8    6   10 ar 
     9    9    7 ar 
    10    7   10 ar 
    11   12    8 ar 
    12   12    9 ar 
    13   10   13 1  
    14   14   11 1  
    15   18   12 1  
    16   13   15 1  
    17   14   18 1  
    18   15   16 1  
    19   16   17 1  
    20    1   19 1  
    21    2   20 1  
    22    3   21 1  
    23    4   22 1  
    24    5   23 1  
    25    6   24 1  
    26    7   25 1  
    27    8   26 1  
    28    9   27 1  
    29   13   28 1  
    30   13   29 1  
    31   14   30 1  
    32   14   31 1  
    33   15   32 1  
    34   15   33 1  
    35   16   34 1  
    36   16   35 1  
    37   17   36 1  
@<TRIPOS>SUBSTRUCTURE
     1 49Q         1

