### 
### Created by X-TOOL on Mon Sep 10 21:13:23 2018
### 

@<TRIPOS>MOLECULE
4y2u_ligand
   38    39     1     0     0
SMALL
GAST_HUCK


@<TRIPOS>ATOM
      1 C17       -16.1220  -13.3570   68.3650 C.ar      1 49R        -0.0819
      2 C18       -17.3550  -13.7330   68.8330 C.ar      1 49R        -0.0807
      3 C12       -15.9650  -12.0950   67.8440 C.ar      1 49R        -0.0717
      4 C13       -18.4160  -12.8620   68.7750 C.ar      1 49R        -0.0509
      5 C5        -17.0260  -11.2170   67.7760 C.ar      1 49R        -0.0225
      6 C4        -18.2550  -11.6100   68.2450 C.ar      1 49R         0.0403
      7 C1        -17.3140   -8.3010   64.5450 C.2       1 49R         0.3204
      8 C8        -16.8230   -9.8540   67.1850 C.3       1 49R         0.0022
      9 C11       -19.2980  -10.1820   66.8490 C.3       1 49R         0.0469
     10 C9        -18.1410   -9.2180   66.7780 C.3       1 49R         0.0706
     11 C14       -18.0240   -5.3980   62.4510 C.3       1 49R        -0.0320
     12 C15       -15.8690   -6.4700   62.0500 C.3       1 49R        -0.0320
     13 C16       -17.8710   -7.7220   61.6610 C.3       1 49R        -0.0320
     14 C10       -17.2690   -6.6970   62.5790 C.3       1 49R         0.0905
     15 N2        -19.3320  -10.7380   68.1810 N.pl3     1 49R        -0.3235
     16 N3        -18.2010   -8.3770   65.5900 N.am      1 49R        -0.2559
     17 O7        -16.6440   -9.2560   64.1930 O.2       1 49R        -0.3775
     18 O6        -17.2860   -7.0140   64.0080 O.3       1 49R        -0.2581
     19 H1        -15.2846  -14.0442   68.4054 H         1 49R         0.0487
     20 H2        -17.4934  -14.7235   69.2512 H         1 49R         0.0525
     21 H3        -14.9918  -11.7850   67.4808 H         1 49R         0.0519
     22 H4        -19.3857  -13.1677   69.1509 H         1 49R         0.0493
     23 H5        -16.1802   -9.9424   66.2968 H         1 49R         0.0422
     24 H6        -16.3320   -9.2113   67.9305 H         1 49R         0.0422
     25 H7        -19.1598  -10.9866   66.1118 H         1 49R         0.0532
     26 H8        -20.2392   -9.6520   66.6413 H         1 49R         0.0532
     27 H9        -18.3303   -8.5051   67.5940 H         1 49R         0.0594
     28 H10       -18.0532   -5.0935   61.3944 H         1 49R         0.0260
     29 H11       -17.5189   -4.6204   63.0428 H         1 49R         0.0260
     30 H12       -19.0507   -5.5325   62.8223 H         1 49R         0.0260
     31 H13       -15.2911   -7.4026   62.1300 H         1 49R         0.0260
     32 H14       -15.3774   -5.6823   62.6398 H         1 49R         0.0260
     33 H15       -15.9211   -6.1603   60.9958 H         1 49R         0.0260
     34 H16       -18.8995   -7.9431   61.9825 H         1 49R         0.0260
     35 H17       -17.2702   -8.6428   61.6952 H         1 49R         0.0260
     36 H18       -17.8843   -7.3308   60.6330 H         1 49R         0.0260
     37 H19       -20.0122  -10.5310   68.9262 H         1 49R         0.1735
     38 H20       -18.9958   -7.7734   65.5272 H         1 49R         0.1873
@<TRIPOS>BOND
     1    1    2 ar 
     2    3    1 ar 
     3    4    2 ar 
     4    5    3 ar 
     5    6    4 ar 
     6    5    6 ar 
     7    8    5 1  
     8   15    6 1  
     9    7   16 am 
    10    7   17 2  
    11   18    7 1  
    12   10    8 1  
    13   10    9 1  
    14    9   15 1  
    15   16   10 1  
    16   14   11 1  
    17   14   12 1  
    18   14   13 1  
    19   14   18 1  
    20    1   19 1  
    21    2   20 1  
    22    3   21 1  
    23    4   22 1  
    24    8   23 1  
    25    8   24 1  
    26    9   25 1  
    27    9   26 1  
    28   10   27 1  
    29   11   28 1  
    30   11   29 1  
    31   11   30 1  
    32   12   31 1  
    33   12   32 1  
    34   12   33 1  
    35   13   34 1  
    36   13   35 1  
    37   13   36 1  
    38   15   37 1  
    39   16   38 1  
@<TRIPOS>SUBSTRUCTURE
     1 49R         1

