### 
### Created by X-TOOL on Mon Sep 10 21:13:24 2018
### 

@<TRIPOS>MOLECULE
4y2v_ligand
   21    22     1     0     0
SMALL
GAST_HUCK


@<TRIPOS>ATOM
      1 C5        -16.5320  -11.0690   71.6130 C.2       1 4A5         0.0597
      2 C4        -16.7110  -11.1200   70.2450 C.2       1 4A5         0.0278
      3 C1        -16.3710   -9.8110   69.8240 C.2       1 4A5         0.0183
      4 C10       -15.3490   -7.7490   73.0160 C.2       1 4A5         0.0673
      5 C8        -16.7300   -7.8820   68.2420 C.3       1 4A5        -0.0391
      6 C9        -17.7000   -8.9460   67.8110 C.3       1 4A5        -0.0391
      7 C6        -16.3890   -9.3140   68.4010 C.3       1 4A5        -0.0039
      8 C7        -15.7770   -9.1990   73.1740 C.3       1 4A5         0.1210
      9 N3        -16.0090   -8.9900   70.8050 N.2       1 4A5        -0.2244
     10 N2        -16.1130   -9.7850   71.8850 N.pl3     1 4A5        -0.1998
     11 O12       -14.8350   -7.2430   72.0370 O.co2     1 4A5        -0.5661
     12 O13       -15.6170   -6.9930   74.1110 O.co2     1 4A5        -0.5661
     13 BR1       -17.2800  -12.5460   69.0860 Br        1 4A5        -0.0813
     14 H1        -16.6892  -11.8754   72.3279 H         1 4A5         0.1035
     15 H2        -16.9458   -7.2655   69.1271 H         1 4A5         0.0289
     16 H3        -16.2102   -7.2723   67.4883 H         1 4A5         0.0289
     17 H4        -17.8911   -9.1176   66.7414 H         1 4A5         0.0289
     18 H5        -18.6267   -9.1108   68.3802 H         1 4A5         0.0289
     19 H6        -15.6094   -9.7980   67.7944 H         1 4A5         0.0450
     20 H7        -16.6580   -9.2449   73.8310 H         1 4A5         0.0808
     21 H8        -14.9527   -9.7706   73.6255 H         1 4A5         0.0808
@<TRIPOS>BOND
     1    1    2 2  
     2   10    1 1  
     3    2    3 1  
     4    2   13 1  
     5    3    7 1  
     6    3    9 2  
     7    8    4 1  
     8    4   11 ar 
     9    4   12 ar 
    10    6    5 1  
    11    7    5 1  
    12    7    6 1  
    13    8   10 1  
    14    9   10 1  
    15    1   14 1  
    16    5   15 1  
    17    5   16 1  
    18    6   17 1  
    19    6   18 1  
    20    7   19 1  
    21    8   20 1  
    22    8   21 1  
@<TRIPOS>SUBSTRUCTURE
     1 4A5         1

