### 
### Created by X-TOOL on Mon Sep 10 21:13:25 2018
### 

@<TRIPOS>MOLECULE
4y2x_ligand
   49    52     1     0     0
SMALL
GAST_HUCK


@<TRIPOS>ATOM
      1 C20       -18.6860   -5.2800   61.9900 C.ar      1 4A0        -0.0795
      2 C21       -18.4920   -6.1470   60.9380 C.ar      1 4A0        -0.0776
      3 C17       -18.1950   -5.5540   63.2380 C.ar      1 4A0        -0.0637
      4 C18       -17.8020   -7.3230   61.1330 C.ar      1 4A0        -0.0397
      5 C5        -17.4960   -6.7150   63.4490 C.ar      1 4A0         0.0302
      6 C9        -17.3160   -7.5880   62.3910 C.ar      1 4A0         0.0943
      7 C10       -17.8330  -11.8980   70.5770 C.3       1 4A0        -0.0473
      8 C11       -15.7060  -11.9590   69.3480 C.3       1 4A0        -0.0473
      9 C12       -17.5980  -13.4800   68.7220 C.3       1 4A0        -0.0473
     10 C6        -17.1900   -9.9940   69.0360 C.3       1 4A0        -0.0443
     11 C8        -19.0080  -11.4820   68.4100 C.3       1 4A0        -0.0443
     12 C7        -16.8970  -11.6710   67.1670 C.3       1 4A0        -0.0443
     13 C2        -16.6930  -11.0400   70.0400 C.3       1 4A0        -0.0400
     14 C4        -18.5590  -12.5450   69.4110 C.3       1 4A0        -0.0400
     15 C3        -16.4090  -12.6830   68.1960 C.3       1 4A0        -0.0400
     16 C1        -17.8300  -10.7010   67.8490 C.3       1 4A0        -0.0237
     17 C16       -16.9670   -7.0160   64.8110 C.3       1 4A0        -0.0014
     18 C15       -18.2940   -9.7360   66.7860 C.3       1 4A0        -0.0069
     19 C19       -17.4540   -8.4850   66.5790 C.3       1 4A0        -0.0320
     20 N13       -17.5060   -8.3060   65.1520 N.4       1 4A0         0.2376
     21 O14       -16.6170   -8.7630   62.5840 O.3       1 4A0        -0.3367
     22 H1        -19.2387   -4.3619   61.8266 H         1 4A0         0.0505
     23 H2        -18.8823   -5.9040   59.9563 H         1 4A0         0.0531
     24 H3        -18.3574   -4.8585   64.0535 H         1 4A0         0.0528
     25 H4        -17.6467   -8.0198   60.3173 H         1 4A0         0.0521
     26 H5        -18.5340  -11.2670   71.1430 H         1 4A0         0.0271
     27 H6        -17.4272  -12.6787   71.2372 H         1 4A0         0.0271
     28 H7        -15.3251  -12.6980   70.0682 H         1 4A0         0.0271
     29 H8        -14.8678  -11.3667   68.9524 H         1 4A0         0.0271
     30 H9        -18.1069  -13.9774   67.8832 H         1 4A0         0.0271
     31 H10       -17.2451  -14.2371   69.4377 H         1 4A0         0.0271
     32 H11       -16.3417   -9.3863   68.6881 H         1 4A0         0.0273
     33 H12       -17.9329   -9.3434   69.5205 H         1 4A0         0.0273
     34 H13       -19.6905  -10.7828   68.9153 H         1 4A0         0.0273
     35 H14       -19.5360  -11.9747   67.5803 H         1 4A0         0.0273
     36 H15       -17.4310  -12.1925   66.3590 H         1 4A0         0.0273
     37 H16       -16.0385  -11.1262   66.7473 H         1 4A0         0.0273
     38 H17       -16.1998  -10.5262   70.8783 H         1 4A0         0.0301
     39 H18       -19.4334  -13.1023   69.7783 H         1 4A0         0.0301
     40 H19       -15.6968  -13.3711   67.7172 H         1 4A0         0.0301
     41 H20       -17.3029   -6.2556   65.5314 H         1 4A0         0.0955
     42 H21       -15.8676   -7.0490   64.7986 H         1 4A0         0.0955
     43 H22       -19.3114   -9.4130   67.0515 H         1 4A0         0.0322
     44 H23       -18.3198  -10.2808   65.8308 H         1 4A0         0.0322
     45 H24       -16.4205   -8.6390   66.9226 H         1 4A0         0.0814
     46 H25       -17.8902   -7.6222   67.1037 H         1 4A0         0.0814
     47 H26       -16.9628   -9.0266   64.7029 H         1 4A0         0.2025
     48 H27       -18.4630   -8.3634   64.8408 H         1 4A0         0.2025
     49 H28       -15.7344   -8.5615   62.8719 H         1 4A0         0.2456
@<TRIPOS>BOND
     1    1    2 ar 
     2    3    1 ar 
     3    4    2 ar 
     4    5    3 ar 
     5    6    4 ar 
     6    5    6 ar 
     7   17    5 1  
     8    6   21 1  
     9   13    7 1  
    10   14    7 1  
    11   13    8 1  
    12   15    8 1  
    13   14    9 1  
    14   15    9 1  
    15   10   13 1  
    16   16   10 1  
    17   11   14 1  
    18   16   11 1  
    19   12   15 1  
    20   16   12 1  
    21   18   16 1  
    22   20   17 1  
    23   19   18 1  
    24   19   20 1  
    25    1   22 1  
    26    2   23 1  
    27    3   24 1  
    28    4   25 1  
    29    7   26 1  
    30    7   27 1  
    31    8   28 1  
    32    8   29 1  
    33    9   30 1  
    34    9   31 1  
    35   10   32 1  
    36   10   33 1  
    37   11   34 1  
    38   11   35 1  
    39   12   36 1  
    40   12   37 1  
    41   13   38 1  
    42   14   39 1  
    43   15   40 1  
    44   17   41 1  
    45   17   42 1  
    46   18   43 1  
    47   18   44 1  
    48   19   45 1  
    49   19   46 1  
    50   20   47 1  
    51   20   48 1  
    52   21   49 1  
@<TRIPOS>SUBSTRUCTURE
     1 4A0         1

