### 
### Created by X-TOOL on Mon Sep 10 21:13:24 2018
### 

@<TRIPOS>MOLECULE
4y2y_ligand
   34    35     1     0     0
SMALL
GAST_HUCK


@<TRIPOS>ATOM
      1 C16       -17.2030  -13.4440   68.5860 C.ar      1 49Z        -0.0726
      2 C17       -17.1350  -13.0410   69.9040 C.ar      1 49Z        -0.0706
      3 C14       -17.7260  -12.6300   67.6080 C.ar      1 49Z        -0.0618
      4 C13       -17.5980  -11.8020   70.2790 C.ar      1 49Z        -0.0349
      5 C4        -16.5140   -6.9280   61.4350 C.2       1 49Z        -0.0953
      6 C5        -16.2420   -7.4590   62.7050 C.2       1 49Z        -0.0901
      7 C7        -18.1980  -11.3830   67.9590 C.ar      1 49Z        -0.0042
      8 C6        -18.1300  -10.9950   69.2890 C.ar      1 49Z         0.1333
      9 C3        -17.6850   -6.2200   61.4240 C.2       1 49Z        -0.0007
     10 C2        -17.1950   -7.1810   63.6630 C.2       1 49Z         0.0464
     11 C11       -18.3020   -5.5330   60.2950 C.3       1 49Z        -0.0254
     12 C12       -18.7720  -10.4720   66.9230 C.3       1 49Z         0.0220
     13 C10       -17.2210   -7.5790   65.0860 C.3       1 49Z         0.0062
     14 C15       -17.8160   -9.3240   66.6390 C.3       1 49Z        -0.0232
     15 N9        -17.9230   -8.8420   65.2650 N.4       1 49Z         0.2408
     16 F8        -18.5850   -9.7820   69.6470 F         1 49Z        -0.1891
     17 S1        -18.4310   -6.2060   62.9730 S.3       1 49Z        -0.0355
     18 H1        -16.8350  -14.4268   68.3144 H         1 49Z         0.0565
     19 H2        -16.7135  -13.7061   70.6490 H         1 49Z         0.0549
     20 H3        -17.7664  -12.9638   66.5775 H         1 49Z         0.0546
     21 H4        -17.5482  -11.4704   71.3098 H         1 49Z         0.0585
     22 H5        -15.8724   -7.0627   60.5654 H         1 49Z         0.0243
     23 H6        -15.3488   -8.0446   62.9177 H         1 49Z         0.0245
     24 H7        -19.2397   -5.0598   60.6218 H         1 49Z         0.0393
     25 H8        -18.5163   -6.2588   59.4967 H         1 49Z         0.0393
     26 H9        -17.6154   -4.7622   59.9151 H         1 49Z         0.0393
     27 H10       -19.7278  -10.0664   67.2863 H         1 49Z         0.0470
     28 H11       -18.9430  -11.0391   65.9961 H         1 49Z         0.0470
     29 H12       -17.7325   -6.7982   65.6680 H         1 49Z         0.0981
     30 H13       -16.1878   -7.6881   65.4474 H         1 49Z         0.0981
     31 H14       -16.7864   -9.6694   66.8137 H         1 49Z         0.0837
     32 H15       -18.0457   -8.4945   67.3239 H         1 49Z         0.0837
     33 H16       -17.5239   -9.5292   64.6449 H         1 49Z         0.2029
     34 H17       -18.8965   -8.7105   65.0390 H         1 49Z         0.2029
@<TRIPOS>BOND
     1    1    2 ar 
     2    3    1 ar 
     3    4    2 ar 
     4    7    3 ar 
     5    8    4 ar 
     6    6    5 1  
     7    9    5 2  
     8   10    6 2  
     9    7    8 ar 
    10   12    7 1  
    11    8   16 1  
    12    9   11 1  
    13   17    9 1  
    14   13   10 1  
    15   10   17 1  
    16   14   12 1  
    17   15   13 1  
    18   14   15 1  
    19    1   18 1  
    20    2   19 1  
    21    3   20 1  
    22    4   21 1  
    23    5   22 1  
    24    6   23 1  
    25   11   24 1  
    26   11   25 1  
    27   11   26 1  
    28   12   27 1  
    29   12   28 1  
    30   13   29 1  
    31   13   30 1  
    32   14   31 1  
    33   14   32 1  
    34   15   33 1  
    35   15   34 1  
@<TRIPOS>SUBSTRUCTURE
     1 49Z         1

