### 
### Created by X-TOOL on Mon Sep 10 21:13:25 2018
### 

@<TRIPOS>MOLECULE
4y38_ligand
   27    27     1     0     0
SMALL
GAST_HUCK


@<TRIPOS>ATOM
      1 N           2.1700    4.8060    9.0620 N.4       1 0A9         0.2405
      2 CA          0.7500    4.3720    9.0230 C.3       1 0A9         0.0857
      3 C          -0.2500    5.5090    8.8730 C.2       1 0A9         0.2845
      4 CB          0.3690    3.6680   10.3470 C.3       1 0A9         0.0429
      5 CG         -0.9480    2.9320   10.3640 C.ar      1 0A9        -0.0352
      6 CD1        -1.0330    1.6160    9.9360 C.ar      1 0A9        -0.0600
      7 CD2        -2.0880    3.5240   10.8910 C.ar      1 0A9        -0.0600
      8 CE1        -2.2150    0.9060   10.0460 C.ar      1 0A9        -0.0686
      9 CE2        -3.2700    2.8130   11.0060 C.ar      1 0A9        -0.0686
     10 CZ         -3.3340    1.5020   10.5870 C.ar      1 0A9        -0.0687
     11 O          -0.1370    6.5840    9.3930 O.2       1 0A9        -0.3639
     12 CM         -2.1940    6.2260    7.7560 C.3       1 0A9         0.0660
     13 OXT        -1.2540    5.1730    8.0710 O.3       1 0A9        -0.2758
     14 H1          2.7654    3.9988    9.1624 H         1 0A9         0.2018
     15 H2          2.3104    5.4264    9.8440 H         1 0A9         0.2018
     16 H3          2.3979    5.2872    8.2061 H         1 0A9         0.2018
     17 H4          0.6295    3.6749    8.1807 H         1 0A9         0.1139
     18 H5          0.3333    4.4348   11.1349 H         1 0A9         0.0509
     19 H6          1.1611    2.9407   10.5787 H         1 0A9         0.0509
     20 H7         -0.1599    1.1362    9.5087 H         1 0A9         0.0557
     21 H8         -2.0518    4.5572   11.2169 H         1 0A9         0.0557
     22 H9         -2.2615   -0.1222    9.7057 H         1 0A9         0.0599
     23 H10        -4.1481    3.2891   11.4270 H         1 0A9         0.0599
     24 H11        -4.2579    0.9431   10.6821 H         1 0A9         0.0559
     25 H12        -2.9756    5.8324    7.0896 H         1 0A9         0.0577
     26 H13        -1.6662    7.0509    7.2550 H         1 0A9         0.0577
     27 H14        -2.6552    6.5955    8.6838 H         1 0A9         0.0577
@<TRIPOS>BOND
     1    1    2 1  
     2    2    3 1  
     3    2    4 1  
     4    3   11 2  
     5    3   13 1  
     6    4    5 1  
     7    5    6 ar 
     8    5    7 ar 
     9    6    8 ar 
    10    7    9 ar 
    11    8   10 ar 
    12    9   10 ar 
    13   13   12 1  
    14    1   14 1  
    15    1   15 1  
    16    1   16 1  
    17    2   17 1  
    18    4   18 1  
    19    4   19 1  
    20    6   20 1  
    21    7   21 1  
    22    8   22 1  
    23    9   23 1  
    24   10   24 1  
    25   12   25 1  
    26   12   26 1  
    27   12   27 1  
@<TRIPOS>SUBSTRUCTURE
     1 0A9         1

