### 
### Created by X-TOOL on Mon Sep 10 21:13:25 2018
### 

@<TRIPOS>MOLECULE
4y3j_ligand
   23    23     1     0     0
SMALL
GAST_HUCK


@<TRIPOS>ATOM
      1 N          -3.1270    2.6700    7.0940 N.4       1 HIC         0.2337
      2 CA         -3.4090    4.1060    7.3670 C.3       1 HIC         0.0342
      3 C          -3.7820    4.8120    6.0590 C.2       1 HIC         0.0860
      4 O          -3.4960    4.2220    4.9920 O.co2     1 HIC        -0.5642
      5 CB         -2.2100    4.7850    8.0380 C.3       1 HIC         0.0292
      6 CG         -1.7700    4.0610    9.2700 C.2       1 HIC         0.0001
      7 ND1        -0.4300    3.9240    9.5930 N.2       1 HIC        -0.3250
      8 CD2        -2.5410    3.4370   10.2050 C.2       1 HIC         0.0317
      9 CE1        -0.3660    3.2190   10.7000 C.2       1 HIC         0.0929
     10 NE2        -1.6830    2.8970   11.1110 N.pl3     1 HIC        -0.2639
     11 CZ         -2.0730    2.1140   12.2900 C.3       1 HIC         0.0445
     12 OXT        -4.3280    5.9320    6.1500 O.co2     1 HIC        -0.5642
     13 H1         -2.8817    2.2062    7.9547 H         1 HIC         0.2011
     14 H2         -2.3615    2.5958    6.4425 H         1 HIC         0.2011
     15 H3         -3.9468    2.2355    6.7001 H         1 HIC         0.2011
     16 H4         -4.2664    4.1684    8.0533 H         1 HIC         0.1042
     17 H5         -2.4919    5.8123    8.3121 H         1 HIC         0.0446
     18 H6         -1.3730    4.8123    7.3248 H         1 HIC         0.0446
     19 H7         -3.6285    3.3819   10.2228 H         1 HIC         0.0731
     20 H8          0.5483    2.9300   11.2162 H         1 HIC         0.1201
     21 H9         -3.1696    2.0396   12.3344 H         1 HIC         0.0583
     22 H10        -1.7021    2.6103   13.1989 H         1 HIC         0.0583
     23 H11        -1.6396    1.1054   12.2201 H         1 HIC         0.0583
@<TRIPOS>BOND
     1    1    2 1  
     2    2    3 1  
     3    2    5 1  
     4    3    4 ar 
     5    3   12 ar 
     6    5    6 1  
     7    6    7 1  
     8    6    8 2  
     9    7    9 2  
    10    8   10 1  
    11    9   10 1  
    12   10   11 1  
    13    1   13 1  
    14    1   14 1  
    15    1   15 1  
    16    2   16 1  
    17    5   17 1  
    18    5   18 1  
    19    8   19 1  
    20    9   20 1  
    21   11   21 1  
    22   11   22 1  
    23   11   23 1  
@<TRIPOS>SUBSTRUCTURE
     1 HIC         1

