### 
### Created by X-TOOL on Mon Sep 10 21:13:25 2018
### 

@<TRIPOS>MOLECULE
4y3y_ligand
   24    23     1     0     0
SMALL
GAST_HUCK


@<TRIPOS>ATOM
      1 N           2.1790    5.1960    8.8640 N.4       1 DCL         0.2224
      2 CA          2.2560    6.5190    9.5270 C.3       1 DCL        -0.0005
      3 C           1.6150    6.3810   10.9000 C.3       1 DCL         0.0868
      4 CB          1.6160    7.6590    8.7180 C.3       1 DCL        -0.0053
      5 CG          1.5430    9.0200    9.4250 C.3       1 DCL        -0.0416
      6 CD1         0.8420   10.0630    8.5700 C.3       1 DCL        -0.0625
      7 CD2         2.9280    9.4970    9.8050 C.3       1 DCL        -0.0625
      8 OXT         0.1920    6.4910   10.8000 O.3       1 DCL        -0.3895
      9 H1          2.6161    4.5011    9.4489 H         1 DCL         0.1998
     10 H2          2.6558    5.2365    7.9768 H         1 DCL         0.1998
     11 H3          1.2128    4.9504    8.7153 H         1 DCL         0.1998
     12 H4          3.3183    6.7710    9.6614 H         1 DCL         0.0873
     13 H5          1.9944    7.1761   11.5586 H         1 DCL         0.0614
     14 H6          1.8736    5.3994   11.3236 H         1 DCL         0.0614
     15 H7          0.5900    7.3564    8.4615 H         1 DCL         0.0323
     16 H8          2.2015    7.7886    7.7958 H         1 DCL         0.0323
     17 H9          0.9592    8.8904   10.3482 H         1 DCL         0.0297
     18 H10         0.8110   11.0201    9.1112 H         1 DCL         0.0232
     19 H11        -0.1841    9.7306    8.3539 H         1 DCL         0.0232
     20 H12         1.3917   10.1932    7.6262 H         1 DCL         0.0232
     21 H13         3.4223    8.7328   10.4227 H         1 DCL         0.0232
     22 H14         2.8494   10.4345   10.3749 H         1 DCL         0.0232
     23 H15         3.5190    9.6703    8.8936 H         1 DCL         0.0232
     24 H16        -0.1386    5.8039   10.2334 H         1 DCL         0.2097
@<TRIPOS>BOND
     1    1    2 1  
     2    2    3 1  
     3    2    4 1  
     4    3    8 1  
     5    4    5 1  
     6    5    6 1  
     7    5    7 1  
     8    1    9 1  
     9    1   10 1  
    10    1   11 1  
    11    2   12 1  
    12    3   13 1  
    13    3   14 1  
    14    4   15 1  
    15    4   16 1  
    16    5   17 1  
    17    6   18 1  
    18    6   19 1  
    19    6   20 1  
    20    7   21 1  
    21    7   22 1  
    22    7   23 1  
    23    8   24 1  
@<TRIPOS>SUBSTRUCTURE
     1 DCL         1

