### 
### Created by X-TOOL on Mon Sep 10 21:13:25 2018
### 

@<TRIPOS>MOLECULE
4y46_ligand
   62    65     1     0     0
SMALL
GAST_HUCK


@<TRIPOS>ATOM
      1 C10         2.2840  -30.3820  -29.6930 C.3       1 4F2        -0.0273
      2 C11         2.2940  -30.5100  -31.2000 C.3       1 4F2         0.0428
      3 C12         1.3970  -31.7200  -31.5790 C.3       1 4F2        -0.0273
      4 C13         0.0050  -31.7100  -30.9610 C.3       1 4F2        -0.0280
      5 C18         6.0390  -27.3170  -32.8170 C.ar      1 4F2         0.0497
      6 C19         6.7780  -26.1730  -33.1650 C.2       1 4F2        -0.0404
      7 C20         6.3200  -24.9070  -32.9820 C.2       1 4F2         0.0079
      8 C21         4.9950  -24.6180  -32.4060 C.2       1 4F2         0.2153
      9 C24         2.9280  -25.5440  -31.4100 C.3       1 4F2         0.0762
     10 C25         2.9720  -25.8750  -29.8730 C.3       1 4F2        -0.0219
     11 C26         1.7760  -26.7240  -29.4800 C.3       1 4F2        -0.0502
     12 C28         1.6920  -26.2760  -31.8470 C.3       1 4F2        -0.0219
     13 C29         4.7490  -27.1240  -32.2550 C.ar      1 4F2         0.1641
     14 C15         4.4860  -29.4840  -32.0470 C.ar      1 4F2         0.1770
     15 C01        -2.5420  -35.7890  -29.7390 C.3       1 4F2        -0.0425
     16 C02        -3.0700  -34.5950  -28.8930 C.3       1 4F2         0.0367
     17 C03        -4.5570  -34.3300  -29.3120 C.3       1 4F2        -0.0425
     18 N04        -2.1230  -33.4610  -29.0410 N.am      1 4F2        -0.2707
     19 C05        -2.3670  -32.0660  -28.6550 C.2       1 4F2         0.2578
     20 O06        -3.4340  -31.7070  -28.1580 O.2       1 4F2        -0.4008
     21 N07        -1.3600  -31.0960  -28.8750 N.am      1 4F2        -0.2701
     22 C08        -0.0170  -31.3910  -29.4480 C.3       1 4F2         0.0425
     23 C09         0.9210  -30.2110  -29.1210 C.3       1 4F2        -0.0280
     24 N14         3.6830  -30.5750  -31.7100 N.pl3     1 4F2        -0.2872
     25 N16         5.7430  -29.6920  -32.5880 N.ar      1 4F2        -0.2656
     26 C17         6.4410  -28.6170  -32.9460 C.ar      1 4F2         0.0157
     27 O22         4.5940  -23.4740  -32.2520 O.2       1 4F2        -0.3991
     28 N23         4.2620  -25.8070  -32.0760 N.am      1 4F2        -0.1931
     29 C27         0.8150  -26.3700  -30.5980 C.3       1 4F2        -0.0502
     30 N30         4.0130  -28.2080  -31.8930 N.ar      1 4F2        -0.2349
     31 H1          2.8909  -29.5081  -29.4137 H         1 4F2         0.0289
     32 H2          2.7304  -31.2909  -29.2634 H         1 4F2         0.0289
     33 H3          1.8346  -29.6077  -31.6298 H         1 4F2         0.0563
     34 H4          1.9078  -32.6382  -31.2536 H         1 4F2         0.0289
     35 H5          1.2841  -31.7312  -32.6731 H         1 4F2         0.0289
     36 H6         -0.4455  -32.7023  -31.1104 H         1 4F2         0.0288
     37 H7         -0.5978  -30.9514  -31.4818 H         1 4F2         0.0288
     38 H8          7.7660  -26.3081  -33.6027 H         1 4F2         0.0725
     39 H9          6.9573  -24.0731  -33.2725 H         1 4F2         0.0579
     40 H10         2.7379  -24.4690  -31.5451 H         1 4F2         0.0655
     41 H11         2.9544  -24.9365  -29.2995 H         1 4F2         0.0295
     42 H12         3.8971  -26.4255  -29.6471 H         1 4F2         0.0295
     43 H13         1.3786  -26.4367  -28.4953 H         1 4F2         0.0266
     44 H14         2.0209  -27.7964  -29.4779 H         1 4F2         0.0266
     45 H15         1.9488  -27.2807  -32.2138 H         1 4F2         0.0295
     46 H16         1.1737  -25.7174  -32.6403 H         1 4F2         0.0295
     47 H17        -3.2317  -36.6404  -29.6419 H         1 4F2         0.0251
     48 H18        -1.5450  -36.0817  -29.3780 H         1 4F2         0.0251
     49 H19        -2.4761  -35.4892  -30.7953 H         1 4F2         0.0251
     50 H20        -3.0738  -34.8810  -27.8309 H         1 4F2         0.0547
     51 H21        -4.9579  -33.4882  -28.7283 H         1 4F2         0.0251
     52 H22        -5.1586  -35.2302  -29.1180 H         1 4F2         0.0251
     53 H23        -4.5980  -34.0855  -30.3837 H         1 4F2         0.0251
     54 H24        -1.2312  -33.6680  -29.4432 H         1 4F2         0.1848
     55 H25        -1.5639  -30.1484  -28.6291 H         1 4F2         0.1848
     56 H26         0.3662  -32.2838  -28.9322 H         1 4F2         0.0553
     57 H27         0.4815  -29.2891  -29.5296 H         1 4F2         0.0288
     58 H28         1.0071  -30.1230  -28.0279 H         1 4F2         0.0288
     59 H29         4.0946  -31.5119  -31.8268 H         1 4F2         0.1882
     60 H30         7.4193  -28.7883  -33.3803 H         1 4F2         0.0898
     61 H31         0.3226  -25.4073  -30.3962 H         1 4F2         0.0266
     62 H32         0.0526  -27.1539  -30.7173 H         1 4F2         0.0266
@<TRIPOS>BOND
     1    2    1 1  
     2    1   23 1  
     3    3    2 1  
     4    2   24 1  
     5    4    3 1  
     6   22    4 1  
     7    5    6 1  
     8   13    5 ar 
     9    5   26 ar 
    10    6    7 2  
    11    8    7 1  
    12    8   27 2  
    13   28    8 am 
    14    9   10 1  
    15    9   12 1  
    16   28    9 1  
    17   10   11 1  
    18   29   11 1  
    19   12   29 1  
    20   13   28 1  
    21   30   13 ar 
    22   24   14 1  
    23   14   25 ar 
    24   14   30 ar 
    25   16   15 1  
    26   16   17 1  
    27   18   16 1  
    28   19   18 am 
    29   19   20 2  
    30   21   19 am 
    31   21   22 1  
    32   22   23 1  
    33   25   26 ar 
    34    1   31 1  
    35    1   32 1  
    36    2   33 1  
    37    3   34 1  
    38    3   35 1  
    39    4   36 1  
    40    4   37 1  
    41    6   38 1  
    42    7   39 1  
    43    9   40 1  
    44   10   41 1  
    45   10   42 1  
    46   11   43 1  
    47   11   44 1  
    48   12   45 1  
    49   12   46 1  
    50   15   47 1  
    51   15   48 1  
    52   15   49 1  
    53   16   50 1  
    54   17   51 1  
    55   17   52 1  
    56   17   53 1  
    57   18   54 1  
    58   21   55 1  
    59   22   56 1  
    60   23   57 1  
    61   23   58 1  
    62   24   59 1  
    63   26   60 1  
    64   29   61 1  
    65   29   62 1  
@<TRIPOS>SUBSTRUCTURE
     1 4F2         1

