### 
### Created by X-TOOL on Mon Sep 10 21:13:25 2018
### 

@<TRIPOS>MOLECULE
4y4g_ligand
   25    24     1     0     0
SMALL
GAST_HUCK


@<TRIPOS>ATOM
      1 N          -4.9180    2.6540   11.4810 N.4       1 GGB         0.2328
      2 CA         -3.6570    3.1500   10.8980 C.3       1 GGB         0.0321
      3 CB         -2.5690    2.0910   10.9040 C.3       1 GGB         0.0465
      4 CG         -1.5230    2.7350   10.0290 C.3       1 GGB         0.1703
      5 C          -3.9310    3.5280    9.4270 C.2       1 GGB         0.0845
      6 OD         -0.4560    3.1040   10.9080 O.3       1 GGB        -0.0918
      7 NE          0.6340    3.8490   10.4160 N.pl3     1 GGB        -0.0565
      8 CZ          0.7660    4.5920    9.3190 C.cat     1 GGB         0.2785
      9 NH1        -0.3010    5.0490    8.6540 N.pl3     1 GGB        -0.3215
     10 NH2         1.9770    4.8340    8.8150 N.pl3     1 GGB        -0.3215
     11 OA1        -4.6630    2.8610    8.7250 O.co2     1 GGB        -0.5643
     12 OA2        -3.2910    4.6050    9.0140 O.co2     1 GGB        -0.5643
     13 H1         -4.7656    2.3996   12.4444 H         1 GGB         0.2010
     14 H2         -5.2316    1.8463   10.9658 H         1 GGB         0.2010
     15 H3         -5.6185    3.3771   11.4313 H         1 GGB         0.2010
     16 H4         -3.3150    4.0305   11.4616 H         1 GGB         0.1026
     17 H5         -2.9266    1.1442   10.4732 H         1 GGB         0.0378
     18 H6         -2.1883    1.9109   11.9202 H         1 GGB         0.0378
     19 H7         -1.9348    3.6252    9.5310 H         1 GGB         0.0815
     20 H8         -1.1660    2.0227    9.2706 H         1 GGB         0.0815
     21 H9          1.4758    3.8125   11.0084 H         1 GGB         0.3886
     22 H10        -0.1738    5.6221    7.8077 H         1 GGB         0.1855
     23 H11        -1.2498    4.8278    8.9883 H         1 GGB         0.1855
     24 H12         2.8164    4.4941    9.3057 H         1 GGB         0.1855
     25 H13         2.0728    5.3608    7.9351 H         1 GGB         0.1855
@<TRIPOS>BOND
     1    1    2 1  
     2    2    3 1  
     3    2    5 1  
     4    3    4 1  
     5    4    6 1  
     6    5   11 ar 
     7    5   12 ar 
     8    6    7 1  
     9    7    8 ar 
    10    8    9 ar 
    11    8   10 ar 
    12    1   13 1  
    13    1   14 1  
    14    1   15 1  
    15    2   16 1  
    16    3   17 1  
    17    3   18 1  
    18    4   19 1  
    19    4   20 1  
    20    7   21 1  
    21    9   22 1  
    22    9   23 1  
    23   10   24 1  
    24   10   25 1  
@<TRIPOS>SUBSTRUCTURE
     1 GGB         1

