### 
### Created by X-TOOL on Mon Sep 10 21:13:25 2018
### 

@<TRIPOS>MOLECULE
4y4j_ligand
   24    24     1     0     0
SMALL
GAST_HUCK


@<TRIPOS>ATOM
      1 OAC        -5.8870    2.7370   11.1760 O.3       1 LNR        -0.3385
      2 CAJ        -4.7160    2.0970   10.9360 C.ar      1 LNR         0.1099
      3 CAG        -3.5310    2.7820   10.7060 C.ar      1 LNR        -0.0375
      4 CAI        -4.7300    0.6980   10.8850 C.ar      1 LNR         0.1088
      5 OAB        -5.9010    0.0520   11.1390 O.3       1 LNR        -0.3414
      6 CAE        -3.5610    0.0190   10.5920 C.ar      1 LNR        -0.0481
      7 CAF        -2.3870    0.7070   10.3590 C.ar      1 LNR        -0.0775
      8 CAK        -2.3580    2.1000   10.4130 C.ar      1 LNR        -0.0294
      9 CAL        -1.0740    2.8520   10.1300 C.3       1 LNR         0.1213
     10 OAD        -1.2270    3.8040    9.0800 O.3       1 LNR        -0.3759
     11 CAH        -0.6020    3.6220   11.3500 C.3       1 LNR        -0.0006
     12 NAA         0.6210    4.4030   11.0880 N.4       1 LNR         0.2217
     13 H1         -6.1034    3.2883   10.4331 H         1 LNR         0.2442
     14 H2         -3.5214    3.8648   10.7559 H         1 LNR         0.0451
     15 H3         -5.7654   -0.8857   11.0703 H         1 LNR         0.2420
     16 H4         -3.5668   -1.0640   10.5449 H         1 LNR         0.0492
     17 H5         -1.4795    0.1593   10.1320 H         1 LNR         0.0437
     18 H6         -0.3044    2.1203    9.8429 H         1 LNR         0.0789
     19 H7         -1.4889    3.3565    8.2839 H         1 LNR         0.2129
     20 H8         -0.3968    2.9071   12.1605 H         1 LNR         0.0860
     21 H9         -1.4003    4.3113   11.6624 H         1 LNR         0.0860
     22 H10         0.8921    4.8938   11.9257 H         1 LNR         0.1996
     23 H11         0.4437    5.0679   10.3515 H         1 LNR         0.1996
     24 H12         1.3632    3.7812   10.8079 H         1 LNR         0.1996
@<TRIPOS>BOND
     1    1    2 1  
     2    2    3 ar 
     3    2    4 ar 
     4    3    8 ar 
     5    4    5 1  
     6    4    6 ar 
     7    6    7 ar 
     8    7    8 ar 
     9    8    9 1  
    10    9   10 1  
    11    9   11 1  
    12   11   12 1  
    13    1   13 1  
    14    3   14 1  
    15    5   15 1  
    16    6   16 1  
    17    7   17 1  
    18    9   18 1  
    19   10   19 1  
    20   11   20 1  
    21   11   21 1  
    22   12   22 1  
    23   12   23 1  
    24   12   24 1  
@<TRIPOS>SUBSTRUCTURE
     1 LNR         1

