### 
### Created by X-TOOL on Mon Sep 10 21:13:24 2018
### 

@<TRIPOS>MOLECULE
4y4v_ligand
   13    12     1     0     0
SMALL
GAST_HUCK


@<TRIPOS>ATOM
      1 N          15.3500   -7.2060   11.0850 N.4       1 DAL         0.2325
      2 CA         15.2290   -8.6180   10.7080 C.3       1 DAL         0.0255
      3 CB         15.0230   -8.7780    9.2020 C.3       1 DAL        -0.0095
      4 C          14.0420   -9.2240   11.4580 C.2       1 DAL         0.0841
      5 O          14.0810  -10.4490   11.7470 O.co2     1 DAL        -0.5643
      6 OXT        13.1150   -8.4490   11.7500 O.co2     1 DAL        -0.5643
      7 H1         16.1297   -6.7936   10.5971 H         1 DAL         0.2010
      8 H2         15.5004   -7.1353   12.0792 H         1 DAL         0.2010
      9 H3         14.5031   -6.7184   10.8378 H         1 DAL         0.2010
     10 H4         16.1499   -9.1456   10.9972 H         1 DAL         0.1021
     11 H5         14.9365   -9.8465    8.9553 H         1 DAL         0.0303
     12 H6         15.8815   -8.3464    8.6666 H         1 DAL         0.0303
     13 H7         14.1027   -8.2564    8.9003 H         1 DAL         0.0303
@<TRIPOS>BOND
     1    1    2 1  
     2    2    3 1  
     3    2    4 1  
     4    4    5 ar 
     5    4    6 ar 
     6    1    7 1  
     7    1    8 1  
     8    1    9 1  
     9    2   10 1  
    10    3   11 1  
    11    3   12 1  
    12    3   13 1  
@<TRIPOS>SUBSTRUCTURE
     1 DAL         1

