### 
### Created by X-TOOL on Mon Sep 10 21:13:20 2018
### 

@<TRIPOS>MOLECULE
4y59_ligand
   28    30     1     0     0
SMALL
GAST_HUCK


@<TRIPOS>ATOM
      1 C1         13.4600   -5.9900    0.3460 C.2       1 T21         0.0541
      2 C6         12.1490   -5.3660   -3.5420 C.2       1 T21        -0.0437
      3 C5         12.7250   -6.9190   -0.3850 C.2       1 T21        -0.0107
      4 C3         12.6990   -5.3590   -2.2150 C.2       1 T21         0.0516
      5 C14         9.4810  -10.4160   -6.1790 C.3       1 T21         0.3757
      6 C11         9.4280   -8.0780   -7.0710 C.ar      1 T21        -0.0358
      7 C10         9.7300   -6.7250   -6.9630 C.ar      1 T21        -0.0362
      8 C9         10.4110   -6.2520   -5.8480 C.ar      1 T21        -0.0297
      9 C8         10.7900   -7.1310   -4.8400 C.ar      1 T21         0.0312
     10 F3          9.3490  -10.7380   -7.4530 F         1 T21        -0.2202
     11 F1          8.3520  -10.6670   -5.5430 F         1 T21        -0.2202
     12 F2         10.4550  -11.1290   -5.6440 F         1 T21        -0.2202
     13 C12         9.8070   -8.9570   -6.0630 C.ar      1 T21         0.0431
     14 C13        10.4880   -8.4840   -4.9470 C.ar      1 T21        -0.0284
     15 C7         11.5200   -6.6230   -3.6440 C.2       1 T21         0.1195
     16 C2         13.4330   -4.4620   -1.4510 C.2       1 T21         0.2051
     17 O2         13.7860   -3.2500   -1.9630 O.2       1 T21        -0.4108
     18 N          13.7930   -4.8030   -0.1900 N.am      1 T21        -0.2282
     19 O1         11.6750   -7.2520   -2.5550 O.3       1 T21        -0.2620
     20 C4         12.3640   -6.5570   -1.6720 C.2       1 T21         0.1137
     21 H1         13.7686   -6.2273    1.3630 H         1 T21         0.1141
     22 H2         12.2051   -4.5814   -4.2951 H         1 T21         0.0400
     23 H3         12.4471   -7.8845    0.0352 H         1 T21         0.0339
     24 H4          8.8972   -8.4472   -7.9410 H         1 T21         0.0817
     25 H5          9.4342   -6.0392   -7.7487 H         1 T21         0.0686
     26 H6         10.6468   -5.1973   -5.7642 H         1 T21         0.0825
     27 H7         10.7833   -9.1695   -4.1609 H         1 T21         0.0807
     28 H8         14.3211   -4.1536    0.3572 H         1 T21         0.2507
@<TRIPOS>BOND
     1    3    1 2  
     2    1   18 am 
     3    2    4 1  
     4   15    2 2  
     5   20    3 1  
     6    4   16 1  
     7    4   20 2  
     8    5   10 1  
     9    5   11 1  
    10    5   12 1  
    11   13    5 1  
    12    7    6 ar 
    13    6   13 ar 
    14    8    7 ar 
    15    9    8 ar 
    16    9   14 ar 
    17    9   15 1  
    18   13   14 ar 
    19   15   19 1  
    20   16   17 2  
    21   16   18 am 
    22   19   20 1  
    23    1   21 1  
    24    2   22 1  
    25    3   23 1  
    26    6   24 1  
    27    7   25 1  
    28    8   26 1  
    29   14   27 1  
    30   18   28 1  
@<TRIPOS>SUBSTRUCTURE
     1 T21         1

