### 
### Created by X-TOOL on Mon Sep 10 21:13:20 2018
### 

@<TRIPOS>MOLECULE
4y5d_ligand
   31    33     1     0     0
SMALL
GAST_HUCK


@<TRIPOS>ATOM
      1 C8         10.7210   -8.2640   -4.4320 C.ar      1 MT6        -0.0368
      2 C7         10.8270   -6.9960   -4.5010 C.ar      1 MT6         0.0078
      3 C5         12.1200   -4.9510   -3.4430 C.2       1 MT6        -0.0440
      4 C6         11.5950   -6.2630   -3.5530 C.2       1 MT6         0.1140
      5 N1         13.9630   -4.1790   -0.2470 N.am      1 MT6        -0.2282
      6 C2         13.4920   -5.3840    0.4020 C.2       1 MT6         0.0542
      7 C4         12.7450   -4.8710   -2.2340 C.2       1 MT6         0.0517
      8 O3         10.7040  -11.1180   -4.8000 O.2       1 MT6        -0.3568
      9 C14         9.8330  -10.3650   -5.2340 C.2       1 MT6         0.2619
     10 O4          8.6510  -10.9090   -5.6590 O.3       1 MT6        -0.2809
     11 C15         8.2030  -12.2570   -5.1460 C.3       1 MT6         0.0647
     12 C9          9.9070   -8.9160   -5.3320 C.ar      1 MT6         0.0573
     13 C10         9.1770   -8.3040   -6.3070 C.ar      1 MT6        -0.0458
     14 C13         9.3890   -6.9720   -6.4190 C.ar      1 MT6        -0.0611
     15 C11        10.1740   -6.3550   -5.4720 C.ar      1 MT6        -0.0539
     16 O2         11.8240   -6.8510   -2.3440 O.3       1 MT6        -0.2625
     17 C12        12.4690   -6.1170   -1.5750 C.2       1 MT6         0.1137
     18 C1         12.7200   -6.4740   -0.2340 C.2       1 MT6        -0.0106
     19 C3         13.5190   -3.8290   -1.4940 C.2       1 MT6         0.2052
     20 O1         13.7650   -2.6510   -2.0250 O.2       1 MT6        -0.4107
     21 H1         11.2631   -8.8212   -3.6765 H         1 MT6         0.0638
     22 H2         12.0394   -4.1571   -4.1840 H         1 MT6         0.0400
     23 H3         14.6231   -3.5929    0.2228 H         1 MT6         0.2507
     24 H4         13.7284   -5.4992    1.4588 H         1 MT6         0.1142
     25 H5          7.2366  -12.5197   -5.6010 H         1 MT6         0.0575
     26 H6          8.0941  -12.2154   -4.0522 H         1 MT6         0.0575
     27 H7          8.9520  -13.0177   -5.4112 H         1 MT6         0.0575
     28 H8          8.4820   -8.8414   -6.9421 H         1 MT6         0.0627
     29 H9          8.9518   -6.4059   -7.2335 H         1 MT6         0.0615
     30 H10        10.2681   -5.2761   -5.5180 H         1 MT6         0.0615
     31 H11        12.4000   -7.3952    0.2508 H         1 MT6         0.0340
@<TRIPOS>BOND
     1    1    2 ar 
     2   12    1 ar 
     3    2    4 1  
     4    2   15 ar 
     5    4    3 2  
     6    3    7 1  
     7    4   16 1  
     8    5    6 1  
     9   19    5 am 
    10    6   18 2  
    11    7   17 2  
    12    7   19 1  
    13    9    8 2  
    14    9   10 1  
    15    9   12 1  
    16   10   11 1  
    17   12   13 ar 
    18   13   14 ar 
    19   14   15 ar 
    20   16   17 1  
    21   17   18 1  
    22   19   20 2  
    23    1   21 1  
    24    3   22 1  
    25    5   23 1  
    26    6   24 1  
    27   11   25 1  
    28   11   26 1  
    29   11   27 1  
    30   13   28 1  
    31   14   29 1  
    32   15   30 1  
    33   18   31 1  
@<TRIPOS>SUBSTRUCTURE
     1 MT6         1

