### 
### Created by X-TOOL on Mon Sep 10 21:13:25 2018
### 

@<TRIPOS>MOLECULE
4y5h_ligand
   58    60     1     0     0
SMALL
GAST_HUCK


@<TRIPOS>ATOM
      1 C01        -4.7650  -33.9910  -28.9120 C.3       1 519        -0.0425
      2 C02        -3.9530  -33.5430  -27.7150 C.3       1 519         0.0367
      3 C03        -3.0940  -34.6460  -27.1280 C.3       1 519        -0.0425
      4 N04        -3.1930  -32.3700  -28.0080 N.am      1 519        -0.2707
      5 C05        -2.1110  -32.3170  -28.9320 C.2       1 519         0.2578
      6 O06        -1.7840  -33.3210  -29.5330 O.2       1 519        -0.4008
      7 N07        -1.4610  -31.0460  -29.0690 N.am      1 519        -0.2701
      8 C08        -0.3610  -30.6820  -29.9430 C.3       1 519         0.0425
      9 C09         0.1180  -31.7860  -30.8740 C.3       1 519        -0.0280
     10 C10         1.1840  -31.2140  -31.7790 C.3       1 519        -0.0273
     11 C11         2.3900  -30.8310  -30.9440 C.3       1 519         0.0428
     12 C12         2.0310  -29.7270  -29.9590 C.3       1 519        -0.0273
     13 C13         0.7910  -30.0730  -29.1390 C.3       1 519        -0.0280
     14 N14         3.5140  -30.5990  -31.8180 N.pl3     1 519        -0.2872
     15 C15         4.1940  -29.3910  -32.1320 C.ar      1 519         0.1770
     16 N16         5.4150  -29.5620  -32.7350 N.ar      1 519        -0.2656
     17 C17         6.1630  -28.4980  -33.1150 C.ar      1 519         0.0157
     18 C18         5.6960  -27.1970  -32.9070 C.ar      1 519         0.0497
     19 C19         6.5280  -26.0200  -33.3350 C.2       1 519        -0.0404
     20 C20         6.0350  -24.6740  -33.0960 C.2       1 519         0.0079
     21 C21         4.7210  -24.5090  -32.4600 C.2       1 519         0.2153
     22 O22         4.3540  -23.3780  -32.3130 O.2       1 519        -0.3991
     23 N23         3.9070  -25.6450  -32.0420 N.am      1 519        -0.1937
     24 C24         2.6370  -25.4580  -31.4030 C.3       1 519         0.0706
     25 C25         2.7000  -25.9440  -29.9590 C.3       1 519        -0.0343
     26 C26         1.5110  -26.1520  -32.1280 C.3       1 519        -0.0343
     27 C27         4.4300  -27.0280  -32.2820 C.ar      1 519         0.1641
     28 N28         3.7120  -28.1410  -31.9170 N.ar      1 519        -0.2349
     29 H1         -5.3359  -34.8942  -28.6505 H         1 519         0.0251
     30 H2         -4.0892  -34.2144  -29.7507 H         1 519         0.0251
     31 H3         -5.4598  -33.1899  -29.2043 H         1 519         0.0251
     32 H4         -4.6760  -33.2645  -26.9342 H         1 519         0.0547
     33 H5         -2.5334  -34.2548  -26.2662 H         1 519         0.0251
     34 H6         -2.3887  -35.0069  -27.8910 H         1 519         0.0251
     35 H7         -3.7368  -35.4765  -26.8008 H         1 519         0.0251
     36 H8         -3.4380  -31.5262  -27.5305 H         1 519         0.1848
     37 H9         -1.8120  -30.3139  -28.4852 H         1 519         0.1848
     38 H10        -0.7445  -29.8850  -30.5970 H         1 519         0.0553
     39 H11        -0.7241  -32.1546  -31.4781 H         1 519         0.0288
     40 H12         0.5365  -32.6147  -30.2840 H         1 519         0.0288
     41 H13         0.7928  -30.3228  -32.2916 H         1 519         0.0289
     42 H14         1.4768  -31.9673  -32.5252 H         1 519         0.0289
     43 H15         2.6565  -31.7042  -30.3305 H         1 519         0.0563
     44 H16         1.8390  -28.8000  -30.5191 H         1 519         0.0289
     45 H17         2.8779  -29.5729  -29.2742 H         1 519         0.0289
     46 H18         1.0848  -30.7941  -28.3620 H         1 519         0.0288
     47 H19         0.4265  -29.1503  -28.6639 H         1 519         0.0288
     48 H20         3.8807  -31.4393  -32.2874 H         1 519         0.1882
     49 H21         7.1281  -28.6564  -33.5825 H         1 519         0.0898
     50 H22         7.4909  -26.1747  -33.8195 H         1 519         0.0725
     51 H23         6.6271  -23.8060  -33.3823 H         1 519         0.0579
     52 H24         2.4196  -24.3797  -31.3966 H         1 519         0.0650
     53 H25         1.7213  -25.7958  -29.4792 H         1 519         0.0259
     54 H26         3.4660  -25.3736  -29.4132 H         1 519         0.0259
     55 H27         2.9581  -27.0132  -29.9429 H         1 519         0.0259
     56 H28         0.5661  -25.9738  -31.5938 H         1 519         0.0259
     57 H29         1.7115  -27.2328  -32.1677 H         1 519         0.0259
     58 H30         1.4342  -25.7555  -33.1512 H         1 519         0.0259
@<TRIPOS>BOND
     1    1    2 1  
     2    2    3 1  
     3    2    4 1  
     4    4    5 am 
     5    5    6 2  
     6    5    7 am 
     7    7    8 1  
     8    8    9 1  
     9    8   13 1  
    10    9   10 1  
    11   10   11 1  
    12   11   12 1  
    13   11   14 1  
    14   12   13 1  
    15   14   15 1  
    16   15   16 ar 
    17   15   28 ar 
    18   16   17 ar 
    19   17   18 ar 
    20   18   19 1  
    21   18   27 ar 
    22   19   20 2  
    23   20   21 1  
    24   21   22 2  
    25   21   23 am 
    26   23   24 1  
    27   23   27 1  
    28   24   25 1  
    29   24   26 1  
    30   27   28 ar 
    31    1   29 1  
    32    1   30 1  
    33    1   31 1  
    34    2   32 1  
    35    3   33 1  
    36    3   34 1  
    37    3   35 1  
    38    4   36 1  
    39    7   37 1  
    40    8   38 1  
    41    9   39 1  
    42    9   40 1  
    43   10   41 1  
    44   10   42 1  
    45   11   43 1  
    46   12   44 1  
    47   12   45 1  
    48   13   46 1  
    49   13   47 1  
    50   14   48 1  
    51   17   49 1  
    52   19   50 1  
    53   20   51 1  
    54   24   52 1  
    55   25   53 1  
    56   25   54 1  
    57   25   55 1  
    58   26   56 1  
    59   26   57 1  
    60   26   58 1  
@<TRIPOS>SUBSTRUCTURE
     1 519         1

