### 
### Created by X-TOOL on Mon Sep 10 21:13:23 2018
### 

@<TRIPOS>MOLECULE
4y5s_ligand
   14    13     1     0     0
SMALL
GAST_HUCK


@<TRIPOS>ATOM
      1 C1        134.2670    3.1820  122.6850 C.2       1 AKG         0.1249
      2 O1        133.4770    3.5200  121.7710 O.co2     1 AKG        -0.5464
      3 O2        133.9060    2.8760  123.8440 O.co2     1 AKG        -0.5464
      4 C2        135.6940    3.1380  122.4140 C.2       1 AKG         0.1731
      5 O5        136.4360    2.9210  123.3600 O.2       1 AKG        -0.3576
      6 C3        136.1950    3.3490  120.9950 C.3       1 AKG         0.0423
      7 C4        137.7170    3.2850  120.9110 C.3       1 AKG         0.0164
      8 C5        138.1980    3.5840  119.4980 C.2       1 AKG         0.0371
      9 O3        137.4970    4.2630  118.7100 O.co2     1 AKG        -0.5688
     10 O4        139.3140    3.1430  119.1480 O.co2     1 AKG        -0.5688
     11 H1        135.8612    4.3364  120.6436 H         1 AKG         0.0516
     12 H2        135.7705    2.5669  120.3484 H         1 AKG         0.0516
     13 H3        138.0512    2.2774  121.1991 H         1 AKG         0.0456
     14 H4        138.1469    4.0254  121.6016 H         1 AKG         0.0456
@<TRIPOS>BOND
     1    1    2 ar 
     2    1    3 ar 
     3    1    4 1  
     4    4    5 2  
     5    4    6 1  
     6    6    7 1  
     7    7    8 1  
     8    8    9 ar 
     9    8   10 ar 
    10    6   11 1  
    11    6   12 1  
    12    7   13 1  
    13    7   14 1  
@<TRIPOS>SUBSTRUCTURE
     1 AKG         1

