### 
### Created by X-TOOL on Mon Sep 10 21:13:23 2018
### 

@<TRIPOS>MOLECULE
4y62_ligand
   55    58     1     0     0
SMALL
GAST_HUCK


@<TRIPOS>ATOM
      1 OAG        18.2070   24.3720    7.0300 O.2       1 48E        -0.3815
      2 CAB        17.6740   23.6750    7.8910 C.2       1 48E         0.3328
      3 NAA        18.2420   23.6720    9.1700 N.am      1 48E        -0.1865
      4 CAC        17.6960   22.9090   10.2010 C.2       1 48E         0.1822
      5 OAH        18.2310   22.9360   11.3060 O.2       1 48E        -0.4124
      6 CAE        16.5750   22.1280    9.9510 C.2       1 48E         0.0062
      7 CAF        16.0230   22.1390    8.6710 C.2       1 48E         0.0591
      8 NAD        16.5850   22.9210    7.6270 N.am      1 48E        -0.1592
      9 CAI        15.9780   22.9300    6.2590 C.3       1 48E         0.2058
     10 OAL        14.6880   22.2510    6.1920 O.3       1 48E        -0.3369
     11 CAK        16.8720   22.2440    5.2360 C.3       1 48E         0.1387
     12 OAN        16.7090   22.8450    3.9430 O.3       1 48E        -0.3836
     13 CAJ        16.3450   20.8580    5.2490 C.3       1 48E         0.1143
     14 OAO        16.6440   20.1850    4.0210 O.3       1 48E        -0.3864
     15 CAM        14.8500   21.0380    5.4090 C.3       1 48E         0.1105
     16 CAP        14.2990   19.7490    6.0330 C.3       1 48E         0.0598
     17 NAQ        12.8580   19.7990    6.3410 N.am      1 48E        -0.2815
     18 C          12.3860   20.1270    7.5590 C.2       1 48E         0.2160
     19 O          13.1050   20.4450    8.5020 O.2       1 48E        -0.3933
     20 CA         10.8610   20.0420    7.7400 C.3       1 48E         0.2004
     21 CB         10.5370   18.6180    8.2300 C.3       1 48E         0.0952
     22 OG          9.2050   18.5420    8.7510 O.3       1 48E        -0.3893
     23 N          10.3870   21.0840    8.7150 N.pl3     1 48E        -0.1427
     24 CAY        10.4880   21.1030   10.0470 C.2       1 48E         0.0909
     25 NAX         9.8090   22.1060    8.3480 N.2       1 48E        -0.0878
     26 NAZ         9.5070   22.8230    9.2880 N.2       1 48E        -0.2163
     27 CBA         9.9130   22.2380   10.4020 C.2       1 48E         0.0703
     28 CBB         9.7530   22.7320   11.6350 C.ar      1 48E        -0.0196
     29 CBF        10.1420   24.0440   11.9210 C.ar      1 48E        -0.0601
     30 CBD         9.9710   24.5710   13.2030 C.ar      1 48E        -0.0661
     31 CBC         9.4050   23.7880   14.2100 C.ar      1 48E        -0.0661
     32 CBE         9.0110   22.4790   13.9310 C.ar      1 48E        -0.0661
     33 CBG         9.1850   21.9580   12.6480 C.ar      1 48E        -0.0601
     34 H1         19.0544   24.2274    9.3476 H         1 48E         0.2259
     35 H2         16.1358   21.5189   10.7397 H         1 48E         0.0258
     36 H3         15.1407   21.5342    8.4669 H         1 48E         0.1178
     37 H4         15.8386   23.9807    5.9648 H         1 48E         0.0997
     38 H5         17.9305   22.2773    5.5335 H         1 48E         0.0676
     39 H6         16.9428   23.7645    3.9907 H         1 48E         0.2101
     40 H7         16.7638   20.2881    6.0915 H         1 48E         0.0648
     41 H8         16.2972   19.3011    4.0530 H         1 48E         0.2100
     42 H9         14.3705   21.1823    4.4296 H         1 48E         0.0644
     43 H10        14.8458   19.5563    6.9678 H         1 48E         0.0546
     44 H11        14.4735   18.9220    5.3290 H         1 48E         0.0546
     45 H12        12.2046   19.5805    5.6162 H         1 48E         0.1853
     46 H13        10.3663   20.2146    6.7728 H         1 48E         0.0961
     47 H14        11.2486   18.3399    9.0214 H         1 48E         0.0617
     48 H15        10.6335   17.9175    7.3874 H         1 48E         0.0617
     49 H16         8.5859   18.7776    8.0701 H         1 48E         0.2098
     50 H17        10.9414   20.3530   10.6934 H         1 48E         0.1079
     51 H18        10.5798   24.6571   11.1416 H         1 48E         0.0581
     52 H19        10.2780   25.5886   13.4159 H         1 48E         0.0606
     53 H20         9.2719   24.1955   15.2057 H         1 48E         0.0581
     54 H21         8.5702   21.8673   14.7099 H         1 48E         0.0606
     55 H22         8.8756   20.9410   12.4359 H         1 48E         0.0581
@<TRIPOS>BOND
     1    1    2 2  
     2    2    3 am 
     3    2    8 am 
     4    3    4 am 
     5    4    5 2  
     6    4    6 1  
     7    6    7 2  
     8    7    8 1  
     9    8    9 1  
    10    9   10 1  
    11    9   11 1  
    12   10   15 1  
    13   11   12 1  
    14   11   13 1  
    15   13   14 1  
    16   13   15 1  
    17   15   16 1  
    18   16   17 1  
    19   17   18 am 
    20   18   19 2  
    21   18   20 1  
    22   20   21 1  
    23   20   23 1  
    24   21   22 1  
    25   23   24 1  
    26   23   25 1  
    27   24   27 2  
    28   25   26 2  
    29   26   27 1  
    30   27   28 1  
    31   28   29 ar 
    32   28   33 ar 
    33   29   30 ar 
    34   30   31 ar 
    35   31   32 ar 
    36   32   33 ar 
    37    3   34 1  
    38    6   35 1  
    39    7   36 1  
    40    9   37 1  
    41   11   38 1  
    42   12   39 1  
    43   13   40 1  
    44   14   41 1  
    45   15   42 1  
    46   16   43 1  
    47   16   44 1  
    48   17   45 1  
    49   20   46 1  
    50   21   47 1  
    51   21   48 1  
    52   22   49 1  
    53   24   50 1  
    54   29   51 1  
    55   30   52 1  
    56   31   53 1  
    57   32   54 1  
    58   33   55 1  
@<TRIPOS>SUBSTRUCTURE
     1 48E         1

