### 
### Created by X-TOOL on Mon Sep 10 21:13:21 2018
### 

@<TRIPOS>MOLECULE
4y63_ligand
   40    41     1     0     0
SMALL
GAST_HUCK


@<TRIPOS>ATOM
      1 N1         14.4090   19.0660    9.5940 N.2       1 48O         0.1908
      2 O1         18.2760   24.6350    6.8260 O.2       1 48O        -0.3815
      3 C1         17.6930   24.0580    7.7400 C.2       1 48O         0.3328
      4 N2         18.2270   24.0970    9.0260 N.am      1 48O        -0.1865
      5 C2         17.6010   23.4590   10.0910 C.2       1 48O         0.1822
      6 O2         18.1180   23.5240   11.2070 O.2       1 48O        -0.4124
      7 C3         16.4170   22.7660    9.8580 C.2       1 48O         0.0062
      8 C4         15.8970   22.7380    8.5620 C.2       1 48O         0.0591
      9 N3         16.5530   23.3940    7.4990 N.am      1 48O        -0.1592
     10 C5         16.0210   23.3900    6.1070 C.3       1 48O         0.2058
     11 O3         14.6720   22.8790    6.0880 O.3       1 48O        -0.3369
     12 C6         16.8520   22.4990    5.1740 C.3       1 48O         0.1387
     13 O4         16.8580   23.0410    3.8300 O.3       1 48O        -0.3836
     14 C7         16.0690   21.2400    5.2220 C.3       1 48O         0.1143
     15 O5         16.3440   20.4110    4.0830 O.3       1 48O        -0.3864
     16 C8         14.6530   21.7930    5.1610 C.3       1 48O         0.1105
     17 C9         13.5600   20.7840    5.5350 C.3       1 48O         0.0599
     18 N4         13.8520   20.1760    6.8340 N.am      1 48O        -0.2798
     19 C10        14.5030   19.0070    6.9830 C.2       1 48O         0.2403
     20 O6         14.9210   18.3770    6.0080 O.2       1 48O        -0.3910
     21 C11        14.7880   18.4770    8.4370 C.3       1 48O         0.3013
     22 C12        15.5030   17.1450    8.6300 C.3       1 48O         0.0120
     23 N5         13.8910   19.9910    9.6460 N.1       1 48O         0.1321
     24 NAX        13.3490   20.9600    9.6950 N.1       1 48O         0.2336
     25 H1         19.0793   24.5948    9.1867 H         1 48O         0.2259
     26 H2         15.9049   22.2546   10.6717 H         1 48O         0.0258
     27 H3         14.9696   22.2008    8.3687 H         1 48O         0.1178
     28 H4         16.0300   24.4216    5.7254 H         1 48O         0.0997
     29 H5         17.8818   22.3629    5.5359 H         1 48O         0.0676
     30 H6         17.2353   23.9127    3.8430 H         1 48O         0.2101
     31 H7         16.2527   20.6764    6.1486 H         1 48O         0.0648
     32 H8         15.8298   19.6143    4.1411 H         1 48O         0.2100
     33 H9         14.4465   22.1617    4.1454 H         1 48O         0.0644
     34 H10        13.5151   19.9968    4.7680 H         1 48O         0.0546
     35 H11        12.5907   21.3016    5.5864 H         1 48O         0.0546
     36 H12        13.5508   20.6563    7.6578 H         1 48O         0.1853
     37 H13        15.7362   19.0345    8.4463 H         1 48O         0.1244
     38 H14        15.7779   16.7309    7.6487 H         1 48O         0.0309
     39 H15        14.8354   16.4425    9.1504 H         1 48O         0.0309
     40 H16        16.4117   17.3002    9.2301 H         1 48O         0.0309
@<TRIPOS>BOND
     1   21    1 1  
     2    1   23 2  
     3    3    2 2  
     4    3    4 am 
     5    9    3 am 
     6    4    5 am 
     7    5    6 2  
     8    7    5 1  
     9    8    7 2  
    10    9    8 1  
    11   10    9 1  
    12   11   10 1  
    13   12   10 1  
    14   16   11 1  
    15   12   13 1  
    16   14   12 1  
    17   14   15 1  
    18   16   14 1  
    19   17   16 1  
    20   18   17 1  
    21   19   18 am 
    22   19   20 2  
    23   19   21 1  
    24   21   22 1  
    25   23   24 3  
    26    4   25 1  
    27    7   26 1  
    28    8   27 1  
    29   10   28 1  
    30   12   29 1  
    31   13   30 1  
    32   14   31 1  
    33   15   32 1  
    34   16   33 1  
    35   17   34 1  
    36   17   35 1  
    37   18   36 1  
    38   21   37 1  
    39   22   38 1  
    40   22   39 1  
    41   22   40 1  
@<TRIPOS>SUBSTRUCTURE
     1 48O         1

