### 
### Created by X-TOOL on Mon Sep 10 21:13:23 2018
### 

@<TRIPOS>MOLECULE
4y64_ligand
   41    42     1     0     0
SMALL
GAST_HUCK


@<TRIPOS>ATOM
      1 OAZ        18.1810   24.7070    6.8930 O.2       1 48C        -0.3815
      2 CAU        17.5630   24.1220    7.7850 C.2       1 48C         0.3328
      3 NAT        18.0830   24.1860    9.0610 N.am      1 48C        -0.1865
      4 CAV        17.4610   23.5470   10.1580 C.2       1 48C         0.1822
      5 OBA        17.9650   23.6630   11.2860 O.2       1 48C        -0.4124
      6 CAX        16.3090   22.8010    9.9290 C.2       1 48C         0.0062
      7 CAY        15.7950   22.7370    8.6240 C.2       1 48C         0.0591
      8 NAW        16.4490   23.3950    7.5350 N.am      1 48C        -0.1592
      9 CBB        15.9170   23.3480    6.1320 C.3       1 48C         0.2058
     10 OBE        14.5960   22.7790    6.0280 O.3       1 48C        -0.3369
     11 CBD        16.8220   22.5400    5.1860 C.3       1 48C         0.1387
     12 OBG        16.8280   23.0880    3.8370 O.3       1 48C        -0.3836
     13 CBC        16.1600   21.2060    5.2340 C.3       1 48C         0.1143
     14 OBH        16.4670   20.4610    4.0750 O.3       1 48C        -0.3864
     15 CBF        14.6730   21.5090    5.2880 C.3       1 48C         0.1105
     16 CAA        13.8060   20.2510    5.7240 C.3       1 48C         0.0599
     17 NAB        14.5140   19.3520    6.6700 N.am      1 48C        -0.2798
     18 C          14.9190   18.0270    6.6990 C.2       1 48C         0.2243
     19 O          15.5260   17.6240    7.6950 O.2       1 48C        -0.3909
     20 CA         14.6460   16.9040    5.6450 C.3       1 48C         0.0620
     21 N          14.8270   17.3120    4.2530 N.4       1 48C         0.2377
     22 CB         13.2860   16.1980    5.9140 C.3       1 48C        -0.0040
     23 H1         18.9265   24.7006    9.2149 H         1 48C         0.2259
     24 H2         15.8156   22.2769   10.7462 H         1 48C         0.0258
     25 H3         14.8808   22.1756    8.4372 H         1 48C         0.1178
     26 H4         15.8729   24.3855    5.7692 H         1 48C         0.0997
     27 H5         17.8542   22.4909    5.5629 H         1 48C         0.0676
     28 H6         17.1467   23.9826    3.8612 H         1 48C         0.2101
     29 H7         16.4760   20.6470    6.1271 H         1 48C         0.0648
     30 H8         16.1615   20.9307    3.3078 H         1 48C         0.2100
     31 H9         14.3377   21.7321    4.2644 H         1 48C         0.0644
     32 H10        13.5467   19.6759    4.8229 H         1 48C         0.0546
     33 H11        12.8855   20.6111    6.2066 H         1 48C         0.0546
     34 H12        14.7660   19.8306    7.5111 H         1 48C         0.1853
     35 H13        15.4184   16.1410    5.8217 H         1 48C         0.1095
     36 H14        14.6314   16.5314    3.6460 H         1 48C         0.2015
     37 H15        15.7776   17.6166    4.1130 H         1 48C         0.2015
     38 H16        14.1967   18.0693    4.0401 H         1 48C         0.2015
     39 H17        13.2206   15.9210    6.9765 H         1 48C         0.0310
     40 H18        13.2140   15.2923    5.2939 H         1 48C         0.0310
     41 H19        12.4618   16.8815    5.6619 H         1 48C         0.0310
@<TRIPOS>BOND
     1    1    2 2  
     2    2    3 am 
     3    2    8 am 
     4    3    4 am 
     5    4    5 2  
     6    4    6 1  
     7    6    7 2  
     8    7    8 1  
     9    8    9 1  
    10    9   10 1  
    11    9   11 1  
    12   10   15 1  
    13   11   12 1  
    14   11   13 1  
    15   13   14 1  
    16   13   15 1  
    17   15   16 1  
    18   16   17 1  
    19   17   18 am 
    20   18   19 2  
    21   18   20 1  
    22   20   21 1  
    23   20   22 1  
    24    3   23 1  
    25    6   24 1  
    26    7   25 1  
    27    9   26 1  
    28   11   27 1  
    29   12   28 1  
    30   13   29 1  
    31   14   30 1  
    32   15   31 1  
    33   16   32 1  
    34   16   33 1  
    35   17   34 1  
    36   20   35 1  
    37   21   36 1  
    38   21   37 1  
    39   21   38 1  
    40   22   39 1  
    41   22   40 1  
    42   22   41 1  
@<TRIPOS>SUBSTRUCTURE
     1 48C         1

