### 
### Created by X-TOOL on Mon Sep 10 21:13:23 2018
### 

@<TRIPOS>MOLECULE
4y6m_ligand
  100   103     1     0     0
SMALL
GAST_HUCK


@<TRIPOS>ATOM
      1 OAW        29.5060  -33.3120  -37.7150 O.2       1 48Q        -0.3669
      2 CAV        29.6730  -32.2660  -37.1360 C.2       1 48Q         0.2422
      3 CAU        29.2030  -32.1660  -35.7100 C.ar      1 48Q         0.0527
      4 CAH        29.2840  -33.2840  -34.8880 C.ar      1 48Q        -0.0197
      5 CAT        28.7000  -30.9750  -35.1970 C.ar      1 48Q        -0.0346
      6 CAJ        28.2740  -30.9150  -33.8700 C.ar      1 48Q         0.0440
      7 CAK        27.7290  -29.6120  -33.3580 C.2       1 48Q         0.2054
      8 NAM        26.4060  -29.4450  -33.2530 N.am      1 48Q        -0.2725
      9 CAN        25.8510  -28.2520  -32.6120 C.3       1 48Q         0.0332
     10 CAO        25.3660  -28.6310  -31.2090 C.3       1 48Q        -0.0354
     11 CAP        26.3190  -28.2210  -30.1100 C.3       1 48Q        -0.0634
     12 CAQ        25.4690  -30.4490  -33.7660 C.3       1 48Q         0.0332
     13 CAR        24.1200  -29.8180  -34.1000 C.3       1 48Q        -0.0354
     14 CAS        24.1080  -29.1040  -35.4370 C.3       1 48Q        -0.0634
     15 OAL        28.5090  -28.7190  -33.0860 O.2       1 48Q        -0.3844
     16 CAI        28.3590  -32.0410  -33.0440 C.ar      1 48Q        -0.0204
     17 CAG        28.8620  -33.2280  -33.5610 C.ar      1 48Q         0.0511
     18 NAF        28.9690  -34.3940  -32.7790 N.pl3     1 48Q        -0.3074
     19 CAE        30.2180  -34.6190  -32.0510 C.3       1 48Q         0.0267
     20 CAD        29.9170  -35.2960  -30.7230 C.3       1 48Q        -0.0333
     21 CAC        28.9560  -36.4660  -30.8750 C.3       1 48Q        -0.0495
     22 CAB        27.6430  -35.9360  -31.4300 C.3       1 48Q        -0.0333
     23 CAA        27.8610  -35.3560  -32.8170 C.3       1 48Q         0.0267
     24 NAX        30.2750  -31.2340  -37.7230 N.am      1 48Q        -0.2152
     25 CAY        30.4710  -31.1340  -39.0400 C.2       1 48Q         0.0946
     26 CAZ        29.4760  -30.7530  -39.8640 C.2       1 48Q        -0.0585
     27 CBA        28.0990  -30.5240  -39.3570 C.ar      1 48Q        -0.0689
     28 CBF        27.0920  -31.4030  -39.7760 C.ar      1 48Q        -0.0758
     29 CBE        25.7870  -31.2560  -39.3160 C.ar      1 48Q        -0.0767
     30 CBD        25.4830  -30.2330  -38.4280 C.ar      1 48Q        -0.0756
     31 CBC        26.4840  -29.3590  -38.0050 C.ar      1 48Q        -0.0767
     32 CBB        27.7920  -29.5040  -38.4680 C.ar      1 48Q        -0.0758
     33 CBG        31.8680  -31.3780  -39.5680 C.3       1 48Q         0.1610
     34 OBH        31.8580  -31.5320  -40.9890 O.3       1 48Q        -0.3665
     35 CBI        32.4590  -32.6710  -39.0360 C.3       1 48Q         0.0052
     36 NBJ        33.9340  -32.5700  -38.9160 N.4       1 48Q         0.1901
     37 CBK        34.6050  -33.8950  -38.8390 C.3       1 48Q        -0.0235
     38 CBL        36.1080  -33.6860  -38.7210 C.3       1 48Q        -0.0420
     39 CBM        34.2830  -34.7540  -40.0660 C.3       1 48Q        -0.0420
     40 CBN        34.1300  -34.6440  -37.6260 C.ar      1 48Q        -0.0119
     41 CBP        33.7230  -33.9400  -36.5080 C.ar      1 48Q        -0.0067
     42 CBQ        33.2610  -34.6110  -35.4080 C.ar      1 48Q         0.1189
     43 CBR        33.2300  -36.0010  -35.3750 C.ar      1 48Q        -0.0037
     44 CBS        33.6510  -36.7100  -36.4890 C.ar      1 48Q        -0.0392
     45 CBO        34.1020  -36.0330  -37.6160 C.ar      1 48Q        -0.0441
     46 OBT        32.8400  -33.8510  -34.3650 O.3       1 48Q        -0.3143
     47 CBU        33.7820  -33.3070  -33.4750 C.3       1 48Q         0.0600
     48 H1         29.6807  -34.2117  -35.2844 H         1 48Q         0.0599
     49 H2         28.6391  -30.0951  -35.8272 H         1 48Q         0.0611
     50 H3         25.0067  -27.8714  -33.2055 H         1 48Q         0.0522
     51 H4         26.6271  -27.4759  -32.5386 H         1 48Q         0.0522
     52 H5         25.2369  -29.7226  -31.1684 H         1 48Q         0.0282
     53 H6         24.3977  -28.1403  -31.0310 H         1 48Q         0.0282
     54 H7         25.9074  -28.5238  -29.1359 H         1 48Q         0.0230
     55 H8         26.4520  -27.1292  -30.1284 H         1 48Q         0.0230
     56 H9         27.2912  -28.7115  -30.2657 H         1 48Q         0.0230
     57 H10        25.3228  -31.2277  -33.0030 H         1 48Q         0.0522
     58 H11        25.8895  -30.9017  -34.6761 H         1 48Q         0.0522
     59 H12        23.8701  -29.0908  -33.3134 H         1 48Q         0.0282
     60 H13        23.3587  -30.6117  -34.1210 H         1 48Q         0.0282
     61 H14        23.1110  -28.6745  -35.6144 H         1 48Q         0.0230
     62 H15        24.3464  -29.8201  -36.2373 H         1 48Q         0.0230
     63 H16        24.8578  -28.2992  -35.4297 H         1 48Q         0.0230
     64 H17        28.0355  -31.9876  -32.0108 H         1 48Q         0.0599
     65 H18        30.7136  -33.6544  -31.8666 H         1 48Q         0.0513
     66 H19        30.8798  -35.2629  -32.6488 H         1 48Q         0.0513
     67 H20        29.4691  -34.5567  -30.0427 H         1 48Q         0.0284
     68 H21        30.8595  -35.6661  -30.2932 H         1 48Q         0.0284
     69 H22        28.7833  -36.9353  -29.8952 H         1 48Q         0.0267
     70 H23        29.3800  -37.2081  -31.5674 H         1 48Q         0.0267
     71 H24        27.2564  -35.1508  -30.7636 H         1 48Q         0.0284
     72 H25        26.9145  -36.7580  -31.4894 H         1 48Q         0.0284
     73 H26        28.1042  -36.1672  -33.5190 H         1 48Q         0.0513
     74 H27        26.9445  -34.8462  -33.1489 H         1 48Q         0.0513
     75 H28        30.6004  -30.4879  -37.1420 H         1 48Q         0.2416
     76 H29        29.6854  -30.6100  -40.9231 H         1 48Q         0.0111
     77 H30        27.3315  -32.2050  -40.4648 H         1 48Q         0.0494
     78 H31        25.0119  -31.9366  -39.6492 H         1 48Q         0.0580
     79 H32        24.4689  -30.1138  -38.0640 H         1 48Q         0.0502
     80 H33        26.2440  -28.5612  -37.3114 H         1 48Q         0.0580
     81 H34        28.5658  -28.8221  -38.1343 H         1 48Q         0.0494
     82 H35        32.5070  -30.5290  -39.2836 H         1 48Q         0.0901
     83 H36        31.5136  -30.7424  -41.3896 H         1 48Q         0.2144
     84 H37        32.2093  -33.4913  -39.7251 H         1 48Q         0.0873
     85 H38        32.0308  -32.8815  -38.0449 H         1 48Q         0.0873
     86 H39        34.1531  -32.0504  -38.0805 H         1 48Q         0.1977
     87 H40        34.2884  -32.0772  -39.7208 H         1 48Q         0.1977
     88 H41        36.6106  -34.6628  -38.6636 H         1 48Q         0.0190
     89 H42        36.3274  -33.1068  -37.8120 H         1 48Q         0.0190
     90 H43        36.4722  -33.1375  -39.6022 H         1 48Q         0.0190
     91 H44        34.7932  -35.7246  -39.9782 H         1 48Q         0.0190
     92 H45        34.6282  -34.2393  -40.9748 H         1 48Q         0.0190
     93 H46        33.1965  -34.9150  -40.1260 H         1 48Q         0.0190
     94 H47        33.7697  -32.8570  -36.5025 H         1 48Q         0.0757
     95 H48        32.8816  -36.5224  -34.4908 H         1 48Q         0.0794
     96 H49        33.6285  -37.7937  -36.4813 H         1 48Q         0.0674
     97 H50        34.4317  -36.5884  -38.4866 H         1 48Q         0.0770
     98 H51        33.2611  -32.7256  -32.7000 H         1 48Q         0.0577
     99 H52        34.4701  -32.6493  -34.0263 H         1 48Q         0.0577
    100 H53        34.3520  -34.1203  -33.0021 H         1 48Q         0.0577
@<TRIPOS>BOND
     1    1    2 2  
     2    2    3 1  
     3    2   24 am 
     4    3    4 ar 
     5    3    5 ar 
     6    4   17 ar 
     7    5    6 ar 
     8    6    7 1  
     9    6   16 ar 
    10    7    8 am 
    11    7   15 2  
    12    8    9 1  
    13    8   12 1  
    14    9   10 1  
    15   10   11 1  
    16   12   13 1  
    17   13   14 1  
    18   16   17 ar 
    19   17   18 1  
    20   18   19 1  
    21   18   23 1  
    22   19   20 1  
    23   20   21 1  
    24   21   22 1  
    25   22   23 1  
    26   24   25 1  
    27   25   26 2  
    28   25   33 1  
    29   26   27 1  
    30   27   28 ar 
    31   27   32 ar 
    32   28   29 ar 
    33   29   30 ar 
    34   30   31 ar 
    35   31   32 ar 
    36   33   34 1  
    37   33   35 1  
    38   35   36 1  
    39   36   37 1  
    40   37   38 1  
    41   37   39 1  
    42   37   40 1  
    43   40   41 ar 
    44   40   45 ar 
    45   41   42 ar 
    46   42   43 ar 
    47   42   46 1  
    48   43   44 ar 
    49   44   45 ar 
    50   46   47 1  
    51    4   48 1  
    52    5   49 1  
    53    9   50 1  
    54    9   51 1  
    55   10   52 1  
    56   10   53 1  
    57   11   54 1  
    58   11   55 1  
    59   11   56 1  
    60   12   57 1  
    61   12   58 1  
    62   13   59 1  
    63   13   60 1  
    64   14   61 1  
    65   14   62 1  
    66   14   63 1  
    67   16   64 1  
    68   19   65 1  
    69   19   66 1  
    70   20   67 1  
    71   20   68 1  
    72   21   69 1  
    73   21   70 1  
    74   22   71 1  
    75   22   72 1  
    76   23   73 1  
    77   23   74 1  
    78   24   75 1  
    79   26   76 1  
    80   28   77 1  
    81   29   78 1  
    82   30   79 1  
    83   31   80 1  
    84   32   81 1  
    85   33   82 1  
    86   34   83 1  
    87   35   84 1  
    88   35   85 1  
    89   36   86 1  
    90   36   87 1  
    91   38   88 1  
    92   38   89 1  
    93   38   90 1  
    94   39   91 1  
    95   39   92 1  
    96   39   93 1  
    97   41   94 1  
    98   43   95 1  
    99   44   96 1  
   100   45   97 1  
   101   47   98 1  
   102   47   99 1  
   103   47  100 1  
@<TRIPOS>SUBSTRUCTURE
     1 48Q         1

