### 
### Created by X-TOOL on Mon Sep 10 21:13:24 2018
### 

@<TRIPOS>MOLECULE
4y73_ligand
   52    55     1     0     0
SMALL
GAST_HUCK


@<TRIPOS>ATOM
      1 C1         33.3450    8.1620  -11.7200 C.2       1 XPY         0.1130
      2 C2         32.8450    9.4280  -11.5800 C.2       1 XPY         0.0330
      3 C3         31.8200    9.6160  -10.5870 C.2       1 XPY         0.1157
      4 N6         28.0290    7.1240   -4.5260 N.2       1 XPY        -0.1682
      5 C7         29.3950   13.6470   -7.6080 C.3       1 XPY        -0.0478
      6 C8         30.2900   12.5470   -7.0070 C.3       1 XPY        -0.0076
      7 C9         31.2320   11.9510   -8.0540 C.3       1 XPY        -0.0006
      8 C10        32.4680    5.2850   -9.9130 C.2       1 XPY        -0.0015
      9 C11        31.5510    6.1680   -9.3150 C.2       1 XPY         0.0720
     10 C12        30.6380    5.7810   -8.2110 C.2       1 XPY         0.1980
     11 C13        29.2580    6.6290   -6.3460 C.2       1 XPY         0.1093
     12 C14        28.6670    7.6430   -5.5650 C.2       1 XPY         0.1376
     13 C15        28.7450    9.1240   -5.8130 C.3       1 XPY         0.3777
     14 C16        27.6860    4.9060   -3.5710 C.3       1 XPY         0.0682
     15 F2         27.9560    9.5010   -6.7940 F         1 XPY        -0.2276
     16 F          28.4060    9.8370   -4.7510 F         1 XPY        -0.2276
     17 F1         29.9650    9.5120   -6.1440 F         1 XPY        -0.2276
     18 N7         28.2090    5.7820   -4.6230 N.pl3     1 XPY        -0.1924
     19 C17        28.9280    5.4280   -5.6930 C.2       1 XPY         0.0900
     20 N5         30.1000    6.8020   -7.4730 N.am      1 XPY        -0.2429
     21 O          30.4420    4.5930   -7.9650 O.2       1 XPY        -0.3984
     22 C          31.7940    7.4260   -9.9640 C.2       1 XPY         0.1673
     23 N4         33.2340    5.8920  -10.8490 N.2       1 XPY        -0.2105
     24 N1         32.8180    7.1660  -10.8850 N.pl3     1 XPY        -0.1366
     25 N          31.2830    8.6520   -9.7860 N.2       1 XPY        -0.2601
     26 N2         31.2990   11.0130  -10.4720 N.pl3     1 XPY        -0.2907
     27 C4         30.4240   11.4640   -9.3330 C.3       1 XPY         0.0839
     28 N3         32.2880   12.9450   -8.4170 N.4       1 XPY         0.2224
     29 C6         28.6160   13.1350   -8.8070 C.3       1 XPY        -0.0505
     30 C5         29.5620   12.5940   -9.8750 C.3       1 XPY        -0.0243
     31 H1         34.1208    7.9369  -12.4503 H         1 XPY         0.1357
     32 H2         33.2055   10.2543  -12.1909 H         1 XPY         0.0596
     33 H3         30.0275   14.4891   -7.9254 H         1 XPY         0.0267
     34 H4         28.6856   13.9901   -6.8405 H         1 XPY         0.0267
     35 H5         29.6508   11.7468   -6.6056 H         1 XPY         0.0320
     36 H6         30.8898   12.9803   -6.1931 H         1 XPY         0.0320
     37 H7         31.7265   11.0735   -7.6119 H         1 XPY         0.0873
     38 H8         32.5521    4.2311   -9.6521 H         1 XPY         0.0677
     39 H9         27.9225    3.8596   -3.8140 H         1 XPY         0.0635
     40 H10        26.5951    5.0285   -3.5005 H         1 XPY         0.0635
     41 H11        28.1478    5.1723   -2.6088 H         1 XPY         0.0635
     42 H12        29.2016    4.4185   -5.9962 H         1 XPY         0.0846
     43 H13        30.3173    7.7381   -7.7497 H         1 XPY         0.2255
     44 H14        31.5492   11.6949  -11.2023 H         1 XPY         0.1865
     45 H15        29.7802   10.6256   -9.0288 H         1 XPY         0.0616
     46 H16        32.7796   13.2318   -7.5851 H         1 XPY         0.1998
     47 H17        31.8589   13.7490   -8.8477 H         1 XPY         0.1998
     48 H18        32.9376   12.5244   -9.0629 H         1 XPY         0.1998
     49 H19        28.0252   13.9596   -9.2324 H         1 XPY         0.0266
     50 H20        27.9408   12.3299   -8.4817 H         1 XPY         0.0266
     51 H21        28.9684   12.2171  -10.7209 H         1 XPY         0.0290
     52 H22        30.2156   13.4088  -10.2199 H         1 XPY         0.0290
@<TRIPOS>BOND
     1    2    1 2  
     2    1   24 1  
     3    3    2 1  
     4    3   25 2  
     5   26    3 1  
     6   12    4 2  
     7   18    4 1  
     8    6    5 1  
     9    5   29 1  
    10    7    6 1  
    11   27    7 1  
    12    7   28 1  
    13    9    8 1  
    14   23    8 2  
    15    9   10 1  
    16   22    9 2  
    17   10   20 am 
    18   10   21 2  
    19   11   12 1  
    20   11   19 2  
    21   20   11 1  
    22   12   13 1  
    23   13   15 1  
    24   13   16 1  
    25   13   17 1  
    26   18   14 1  
    27   19   18 1  
    28   22   24 1  
    29   25   22 1  
    30   24   23 1  
    31   26   27 1  
    32   27   30 1  
    33   29   30 1  
    34    1   31 1  
    35    2   32 1  
    36    5   33 1  
    37    5   34 1  
    38    6   35 1  
    39    6   36 1  
    40    7   37 1  
    41    8   38 1  
    42   14   39 1  
    43   14   40 1  
    44   14   41 1  
    45   19   42 1  
    46   20   43 1  
    47   26   44 1  
    48   27   45 1  
    49   28   46 1  
    50   28   47 1  
    51   28   48 1  
    52   29   49 1  
    53   29   50 1  
    54   30   51 1  
    55   30   52 1  
@<TRIPOS>SUBSTRUCTURE
     1 XPY         1

