### 
### Created by X-TOOL on Mon Sep 10 21:13:23 2018
### 

@<TRIPOS>MOLECULE
4y79_ligand
   53    55     1     0     0
SMALL
GAST_HUCK


@<TRIPOS>ATOM
      1 C01         7.1880    1.8650   20.6840 C.3       1 4O6        -0.0242
      2 C05         7.4240    3.2770   20.1650 C.3       1 4O6         0.1310
      3 C07         7.2110    3.3550   18.6480 C.2       1 4O6         0.2042
      4 O08         6.1250    3.6700   18.2000 O.2       1 4O6        -0.3943
      5 N09         8.2430    3.0380   17.8390 N.am      1 4O6        -0.2669
      6 C10         9.5880    2.6810   18.3190 C.3       1 4O6         0.0574
      7 C13        10.0940    1.4630   17.5940 C.3       1 4O6         0.0681
      8 O16        10.0810    1.6560   16.1880 O.3       1 4O6        -0.3758
      9 C17         8.7410    1.8690   15.7470 C.3       1 4O6         0.0681
     10 C20         8.1360    3.1020   16.3700 C.3       1 4O6         0.0574
     11 N23         6.5770    4.2720   20.8450 N.am      1 4O6        -0.2502
     12 C24         5.1780    4.0240   21.2520 C.3       1 4O6         0.0405
     13 C27         4.6330    5.4240   21.4850 C.3       1 4O6         0.0047
     14 C30         5.8760    6.1600   21.9990 C.3       1 4O6         0.1284
     15 N32         5.8420    7.6130   21.8200 N.am      1 4O6        -0.2259
     16 S34         6.0930    8.5920   23.0920 S.o2      1 4O6         0.0637
     17 O35         5.3830    8.0120   24.1960 O.2       1 4O6        -0.1507
     18 O36         5.7630    9.9170   22.6470 O.2       1 4O6        -0.1507
     19 C37         7.8140    8.5540   23.4710 C.2       1 4O6         0.0727
     20 C39         8.2310    8.2980   24.7070 C.2       1 4O6        -0.0352
     21 C41         9.6160    8.0500   25.1360 C.ar      1 4O6        -0.0237
     22 C42         9.8550    7.4520   26.3760 C.ar      1 4O6        -0.0541
     23 C44        11.1440    7.2110   26.8270 C.ar      1 4O6        -0.0473
     24 C46        12.2120    7.5570   26.0270 C.ar      1 4O6         0.0406
     25 CL1        13.8380    7.2520   26.5900 Cl        1 4O6        -0.0702
     26 C48        12.0220    8.1440   24.7910 C.ar      1 4O6        -0.0473
     27 C50        10.7280    8.3910   24.3530 C.ar      1 4O6        -0.0541
     28 C52         7.0220    5.4820   21.2530 C.2       1 4O6         0.2026
     29 O53         8.1400    5.9280   21.0700 O.2       1 4O6        -0.3946
     30 H1          7.8419    1.1627   20.1462 H         1 4O6         0.0277
     31 H2          6.1367    1.5853   20.5210 H         1 4O6         0.0277
     32 H3          7.4150    1.8270   21.7596 H         1 4O6         0.0277
     33 H4          8.4733    3.5336   20.3727 H         1 4O6         0.0799
     34 H5          9.5443    2.4694   19.3976 H         1 4O6         0.0545
     35 H6         10.2733    3.5221   18.1378 H         1 4O6         0.0545
     36 H7          9.4522    0.6052   17.8436 H         1 4O6         0.0580
     37 H8         11.1248    1.2561   17.9175 H         1 4O6         0.0580
     38 H9          8.1322    0.9954   16.0228 H         1 4O6         0.0580
     39 H10         8.7404    1.9858   14.6532 H         1 4O6         0.0580
     40 H11         8.6701    3.9919   16.0057 H         1 4O6         0.0545
     41 H12         7.0754    3.1689   16.0860 H         1 4O6         0.0545
     42 H13         5.1352    3.4252   22.1737 H         1 4O6         0.0526
     43 H14         4.6200    3.5107   20.4550 H         1 4O6         0.0526
     44 H15         3.8293    5.4216   22.2361 H         1 4O6         0.0328
     45 H16         4.2607    5.8699   20.5509 H         1 4O6         0.0328
     46 H17         5.9837    5.9705   23.0772 H         1 4O6         0.0754
     47 H18         5.6645    8.0021   20.9161 H         1 4O6         0.1705
     48 H19         8.5433    8.7422   22.6844 H         1 4O6         0.0838
     49 H20         7.4675    8.2688   25.4830 H         1 4O6         0.0637
     50 H21         9.0141    7.1702   26.9993 H         1 4O6         0.0623
     51 H22        11.3098    6.7561   27.7969 H         1 4O6         0.0623
     52 H23        12.8716    8.4081   24.1717 H         1 4O6         0.0623
     53 H24        10.5742    8.8568   23.3863 H         1 4O6         0.0623
@<TRIPOS>BOND
     1    1    2 1  
     2    2    3 1  
     3    2   11 1  
     4    3    4 2  
     5    3    5 am 
     6    5    6 1  
     7    5   10 1  
     8    6    7 1  
     9    7    8 1  
    10    8    9 1  
    11    9   10 1  
    12   11   12 1  
    13   11   28 am 
    14   12   13 1  
    15   13   14 1  
    16   14   15 1  
    17   14   28 1  
    18   15   16 am 
    19   16   17 2  
    20   16   18 2  
    21   16   19 1  
    22   19   20 2  
    23   20   21 1  
    24   21   22 ar 
    25   21   27 ar 
    26   22   23 ar 
    27   23   24 ar 
    28   24   25 1  
    29   24   26 ar 
    30   26   27 ar 
    31   28   29 2  
    32    1   30 1  
    33    1   31 1  
    34    1   32 1  
    35    2   33 1  
    36    6   34 1  
    37    6   35 1  
    38    7   36 1  
    39    7   37 1  
    40    9   38 1  
    41    9   39 1  
    42   10   40 1  
    43   10   41 1  
    44   12   42 1  
    45   12   43 1  
    46   13   44 1  
    47   13   45 1  
    48   14   46 1  
    49   15   47 1  
    50   19   48 1  
    51   20   49 1  
    52   22   50 1  
    53   23   51 1  
    54   26   52 1  
    55   27   53 1  
@<TRIPOS>SUBSTRUCTURE
     1 4O6         1

