### 
### Created by X-TOOL on Mon Sep 10 21:13:24 2018
### 

@<TRIPOS>MOLECULE
4y83_ligand
   34    37     1     0     0
SMALL
GAST_HUCK


@<TRIPOS>ATOM
      1 C1         -8.1700   -4.0670   -9.4480 C.ar      1 49B         0.0040
      2 C2         -8.2130   -5.3860   -9.9300 C.ar      1 49B         0.0012
      3 C3         -7.9170   -6.4200   -9.0360 C.ar      1 49B        -0.0341
      4 C11       -10.0380   -5.3030  -16.1670 C.ar      1 49B        -0.0562
      5 C12       -10.6460   -4.2210  -15.4980 C.ar      1 49B        -0.0563
      6 C13       -10.4380   -4.0190  -14.1210 C.ar      1 49B        -0.0466
      7 C14        -9.5920   -4.9040  -13.4290 C.ar      1 49B         0.0059
      8 C15        -9.3410   -4.7310  -12.0660 C.ar      1 49B        -0.0292
      9 S          -6.1630  -10.8600   -6.4250 S.2       1 49B        -0.2856
     10 C6         -6.7190   -9.2480   -6.2580 C.2       1 49B         0.2525
     11 N3         -6.6930   -8.5280   -5.1720 N.am      1 49B        -0.1647
     12 N2         -6.9960   -7.2820   -5.5710 N.2       1 49B        -0.1581
     13 O          -7.2840   -8.5790   -7.2630 O.3       1 49B        -0.1915
     14 C5         -7.3490   -7.3320   -6.7910 C.2       1 49B         0.2243
     15 C4         -7.7010   -6.1480   -7.6720 C.ar      1 49B         0.0792
     16 C          -7.6520   -4.7910   -7.2590 C.ar      1 49B         0.1245
     17 N          -7.3470   -4.3850   -6.0070 N.pl3     1 49B        -0.3189
     18 N1         -7.9000   -3.8080   -8.1510 N.ar      1 49B        -0.2828
     19 C7         -8.5090   -5.6370  -11.3740 C.ar      1 49B         0.0104
     20 C9         -8.9720   -5.9970  -14.0960 C.ar      1 49B         0.0461
     21 N4         -8.1650   -6.8600  -13.4190 N.ar      1 49B        -0.2948
     22 C8         -7.8980   -6.6860  -12.1030 C.ar      1 49B         0.0176
     23 C10        -9.1960   -6.1880  -15.4750 C.ar      1 49B        -0.0397
     24 H1         -8.3566   -3.2441  -10.1285 H         1 49B         0.0780
     25 H2         -7.8533   -7.4402   -9.3968 H         1 49B         0.0699
     26 H3        -10.2222   -5.4528  -17.2247 H         1 49B         0.0649
     27 H4        -11.2805   -3.5374  -16.0504 H         1 49B         0.0640
     28 H5        -10.9204   -3.1974  -13.6038 H         1 49B         0.0651
     29 H6         -9.7874   -3.8968  -11.5370 H         1 49B         0.0758
     30 H7         -6.4911   -8.8366   -4.2425 H         1 49B         0.2651
     31 H8         -7.3312   -3.3802   -5.7809 H         1 49B         0.1794
     32 H9         -7.1302   -5.0802   -5.2786 H         1 49B         0.1794
     33 H10        -7.2093   -7.3568  -11.6022 H         1 49B         0.0870
     34 H11        -8.7219   -7.0115  -15.9966 H         1 49B         0.0644
@<TRIPOS>BOND
     1    2    1 ar 
     2    1   18 ar 
     3    3    2 ar 
     4    2   19 1  
     5   15    3 ar 
     6    5    4 ar 
     7    4   23 ar 
     8    6    5 ar 
     9    7    6 ar 
    10    8    7 ar 
    11    7   20 ar 
    12   19    8 ar 
    13   10    9 2  
    14   10   11 am 
    15   13   10 1  
    16   12   11 1  
    17   14   12 2  
    18   14   13 1  
    19   14   15 1  
    20   15   16 ar 
    21   16   17 1  
    22   16   18 ar 
    23   19   22 ar 
    24   20   21 ar 
    25   20   23 ar 
    26   21   22 ar 
    27    1   24 1  
    28    3   25 1  
    29    4   26 1  
    30    5   27 1  
    31    6   28 1  
    32    8   29 1  
    33   11   30 1  
    34   17   31 1  
    35   17   32 1  
    36   22   33 1  
    37   23   34 1  
@<TRIPOS>SUBSTRUCTURE
     1 49B         1

