### 
### Created by X-TOOL on Mon Sep 10 21:13:23 2018
### 

@<TRIPOS>MOLECULE
4y85_ligand
   36    40     1     0     0
SMALL
GAST_HUCK


@<TRIPOS>ATOM
      1 C1         14.7450    0.3450  194.2530 C.2       1 499         0.1896
      2 C2         14.6270   -0.5270  195.3750 C.2       1 499         0.0505
      3 C3         15.0850   -1.8190  195.4480 C.2       1 499         0.0520
      4 C11        11.6330    3.5310  200.7400 C.ar      1 499         0.0672
      5 C12        10.7420    3.9630  201.7210 C.ar      1 499        -0.0420
      6 C13        10.0150    3.0050  202.4250 C.ar      1 499        -0.0756
      7 C14        10.1720    1.6520  202.1500 C.ar      1 499        -0.0781
      8 C15        11.0650    1.2220  201.1670 C.ar      1 499        -0.0732
      9 C16        11.8080    2.1630  200.4490 C.ar      1 499        -0.0157
     10 N          14.4340    3.5240  193.2020 N.pl3     1 499        -0.2825
     11 C          14.6730    2.2190  193.2910 C.2       1 499         0.2807
     12 O          14.4130    1.6370  194.4860 O.3       1 499        -0.1812
     13 N2         15.1600    0.1420  193.0530 N.2       1 499        -0.2795
     14 N1         15.1230    1.3830  192.4090 N.2       1 499        -0.2602
     15 C8         14.1520   -0.1930  196.7000 C.ar      1 499         0.0126
     16 C4         14.3690   -1.3250  197.4960 C.ar      1 499         0.1371
     17 N3         14.9450   -2.3000  196.7280 N.pl3     1 499        -0.2586
     18 C7         13.6250    0.9320  197.3290 C.ar      1 499        -0.0558
     19 C6         13.3390    0.8790  198.6930 C.ar      1 499        -0.0277
     20 C5         13.5810   -0.3190  199.3700 C.ar      1 499        -0.0050
     21 N4         14.0870   -1.4310  198.8030 N.ar      1 499        -0.2886
     22 C9         12.8080    2.0870  199.3870 C.2       1 499        -0.0133
     23 N5         12.4710    4.2480  199.9150 N.pl3     1 499        -0.2750
     24 C10        13.1660    3.3850  199.1120 C.2       1 499         0.0365
     25 H1         15.4993   -2.3815  194.6126 H         1 499         0.1070
     26 H2         10.6176    5.0191  201.9313 H         1 499         0.0548
     27 H3          9.3197    3.3186  203.1953 H         1 499         0.0535
     28 H4          9.5943    0.9219  202.7053 H         1 499         0.0517
     29 H5         11.1815    0.1640  200.9617 H         1 499         0.0543
     30 H6         14.6127    4.0212  192.3178 H         1 499         0.1845
     31 H7         14.0701    4.0377  194.0172 H         1 499         0.1845
     32 H8         15.2261   -3.2358  197.0538 H         1 499         0.2345
     33 H9         13.4391    1.8388  196.7648 H         1 499         0.0609
     34 H10        13.3446   -0.3562  200.4273 H         1 499         0.0715
     35 H11        12.5606    5.2740  199.9041 H         1 499         0.2296
     36 H12        13.8976    3.6838  198.3628 H         1 499         0.0988
@<TRIPOS>BOND
     1    2    1 1  
     2    1   12 1  
     3    1   13 2  
     4    2    3 2  
     5   15    2 1  
     6   17    3 1  
     7    4    5 ar 
     8    9    4 ar 
     9    4   23 1  
    10    5    6 ar 
    11    7    6 ar 
    12    8    7 ar 
    13    9    8 ar 
    14   22    9 1  
    15   11   10 1  
    16   12   11 1  
    17   14   11 2  
    18   13   14 1  
    19   15   16 ar 
    20   18   15 ar 
    21   16   17 1  
    22   16   21 ar 
    23   19   18 ar 
    24   19   20 ar 
    25   19   22 1  
    26   20   21 ar 
    27   22   24 2  
    28   23   24 1  
    29    3   25 1  
    30    5   26 1  
    31    6   27 1  
    32    7   28 1  
    33    8   29 1  
    34   10   30 1  
    35   10   31 1  
    36   17   32 1  
    37   18   33 1  
    38   20   34 1  
    39   23   35 1  
    40   24   36 1  
@<TRIPOS>SUBSTRUCTURE
     1 499         1

