### 
### Created by X-TOOL on Mon Sep 10 21:13:24 2018
### 

@<TRIPOS>MOLECULE
4y87_ligand
   46    49     1     0     0
SMALL
GAST_HUCK


@<TRIPOS>ATOM
      1 C2         82.6280   51.1320   39.5640 C.3       1 49E        -0.0500
      2 C3         82.0420   52.0860   40.5540 C.3       1 49E        -0.0186
      3 C4         80.7520   50.0500   40.3120 C.3       1 49E        -0.0186
      4 C5         80.6540   51.5070   40.8130 C.3       1 49E         0.1075
      5 N8         80.2650   51.6350   42.2670 N.pl3     1 49E        -0.0686
      6 C11        79.2190   52.3230   42.7130 C.2       1 49E         0.3261
      7 N13        78.2860   53.0200   42.0620 N.pl3     1 49E        -0.1862
      8 N9         80.8630   51.1510   43.2180 N.2       1 49E        -0.0848
      9 C10        80.2560   51.4790   44.3520 C.2       1 49E         0.1294
     10 C12        79.2030   52.2290   44.0440 C.2       1 49E         0.2156
     11 C16        78.2470   52.8270   44.7860 C.2       1 49E         0.2469
     12 O17        78.2180   52.7460   46.0230 O.2       1 49E        -0.3648
     13 N15        77.2610   53.5610   44.1200 N.am      1 49E        -0.2490
     14 C14        77.3070   53.6470   42.7310 C.cat     1 49E         0.2115
     15 N18        76.3890   54.3560   42.0850 N.pl3     1 49E        -0.3052
     16 C19        76.5270   54.6840   40.6490 C.3       1 49E         0.0672
     17 C20        76.0080   56.0940   40.3750 C.3       1 49E        -0.0309
     18 C24        75.8170   53.7040   39.9420 C.ar      1 49E        -0.0169
     19 C29        74.4500   53.5390   40.1870 C.ar      1 49E        -0.0574
     20 C28        73.7390   52.5560   39.5190 C.ar      1 49E        -0.0545
     21 C27        74.4040   51.7320   38.6150 C.ar      1 49E         0.0330
     22 C26        75.7700   51.8720   38.3570 C.ar      1 49E        -0.0545
     23 C25        76.4780   52.8620   39.0300 C.ar      1 49E        -0.0574
     24 C1         82.2190   49.8170   40.1630 C.3       1 49E        -0.0500
     25 CL         73.5250   50.5560   37.8290 Cl        1 49E        -0.0771
     26 H1         83.7223   51.2283   39.5081 H         1 49E         0.0266
     27 H2         82.1959   51.2722   38.5622 H         1 49E         0.0266
     28 H3         81.9745   53.1000   40.1331 H         1 49E         0.0297
     29 H4         82.6379   52.1115   41.4782 H         1 49E         0.0297
     30 H5         80.2376   49.9330   39.3468 H         1 49E         0.0297
     31 H6         80.3182   49.3544   41.0454 H         1 49E         0.0297
     32 H7         79.9061   52.0476   40.2143 H         1 49E         0.0693
     33 H8         78.3179   53.0773   41.0341 H         1 49E         0.2559
     34 H9         80.5652   51.1862   45.3543 H         1 49E         0.1024
     35 H10        76.5340   54.0172   44.6332 H         1 49E         0.1818
     36 H11        75.5587   54.6864   42.5972 H         1 49E         0.1840
     37 H12        77.5875   54.6407   40.3603 H         1 49E         0.0732
     38 H13        76.1170   56.3233   39.3047 H         1 49E         0.0276
     39 H14        76.5867   56.8191   40.9660 H         1 49E         0.0276
     40 H15        74.9465   56.1552   40.6568 H         1 49E         0.0276
     41 H16        73.9464   54.1812   40.9005 H         1 49E         0.0558
     42 H17        72.6773   52.4297   39.6979 H         1 49E         0.0606
     43 H18        76.2680   51.2221   37.6466 H         1 49E         0.0606
     44 H19        77.5401   52.9847   38.8514 H         1 49E         0.0558
     45 H20        82.7057   49.6407   41.1336 H         1 49E         0.0266
     46 H21        82.4328   48.9757   39.4874 H         1 49E         0.0266
@<TRIPOS>BOND
     1    1    2 1  
     2    1   24 1  
     3    2    4 1  
     4    4    3 1  
     5    3   24 1  
     6    4    5 1  
     7    5    6 1  
     8    5    8 1  
     9    6    7 1  
    10    6   10 2  
    11    7   14 ar 
    12    8    9 2  
    13    9   10 1  
    14   10   11 1  
    15   11   12 2  
    16   11   13 am 
    17   13   14 ar 
    18   14   15 ar 
    19   15   16 1  
    20   16   17 1  
    21   16   18 1  
    22   18   19 ar 
    23   18   23 ar 
    24   19   20 ar 
    25   20   21 ar 
    26   21   22 ar 
    27   21   25 1  
    28   22   23 ar 
    29    1   26 1  
    30    1   27 1  
    31    2   28 1  
    32    2   29 1  
    33    3   30 1  
    34    3   31 1  
    35    4   32 1  
    36    7   33 1  
    37    9   34 1  
    38   13   35 1  
    39   15   36 1  
    40   16   37 1  
    41   17   38 1  
    42   17   39 1  
    43   17   40 1  
    44   19   41 1  
    45   20   42 1  
    46   22   43 1  
    47   23   44 1  
    48   24   45 1  
    49   24   46 1  
@<TRIPOS>SUBSTRUCTURE
     1 49E         1

