### 
### Created by X-TOOL on Mon Sep 10 21:13:24 2018
### 

@<TRIPOS>MOLECULE
4y8c_ligand
   46    49     1     0     0
SMALL
GAST_HUCK


@<TRIPOS>ATOM
      1 C2         81.3460   50.7170   39.4890 C.3       1 49D        -0.0500
      2 C3         81.0520   51.6970   40.5810 C.3       1 49D        -0.0186
      3 C4         79.3390   49.9760   40.2730 C.3       1 49D        -0.0186
      4 C5         79.5540   51.3680   40.8080 C.3       1 49D         0.1075
      5 N8         79.2210   51.5180   42.2540 N.pl3     1 49D        -0.0686
      6 C11        78.1460   52.1990   42.6620 C.2       1 49D         0.3261
      7 N13        77.1750   52.8110   41.9590 N.pl3     1 49D        -0.1862
      8 N9         79.8740   51.1140   43.2810 N.2       1 49D        -0.0848
      9 C10        79.2290   51.5120   44.3780 C.2       1 49D         0.1294
     10 C12        78.1400   52.1950   44.0000 C.2       1 49D         0.2156
     11 C16        77.1470   52.8110   44.6790 C.2       1 49D         0.2469
     12 O17        77.1020   52.8370   45.9120 O.2       1 49D        -0.3648
     13 N15        76.1300   53.4430   43.9650 N.am      1 49D        -0.2490
     14 C14        76.1650   53.4310   42.5740 C.cat     1 49D         0.2115
     15 N18        75.2050   54.0330   41.8900 N.pl3     1 49D        -0.3052
     16 C19        75.2420   54.1560   40.4200 C.3       1 49D         0.0672
     17 C20        73.8540   53.8100   39.8520 C.3       1 49D        -0.0309
     18 C24        75.6520   55.4600   40.1220 C.ar      1 49D        -0.0169
     19 C29        77.0010   55.7120   39.8780 C.ar      1 49D        -0.0574
     20 C28        77.4400   57.0050   39.6030 C.ar      1 49D        -0.0545
     21 C27        76.5340   58.0640   39.5730 C.ar      1 49D         0.0330
     22 C26        75.1930   57.8240   39.8200 C.ar      1 49D        -0.0545
     23 C25        74.7550   56.5300   40.1010 C.ar      1 49D        -0.0574
     24 C1         80.7230   49.4120   40.0040 C.3       1 49D        -0.0500
     25 CL         77.0710   59.6700   39.2340 Cl        1 49D        -0.0771
     26 H1         82.4304   50.6044   39.3427 H         1 49D         0.0266
     27 H2         80.8789   51.0296   38.5434 H         1 49D         0.0266
     28 H3         81.2005   52.7364   40.2530 H         1 49D         0.0297
     29 H4         81.6566   51.5062   41.4799 H         1 49D         0.0297
     30 H5         78.7530   50.0104   39.3427 H         1 49D         0.0297
     31 H6         78.8124   49.3584   41.0154 H         1 49D         0.0297
     32 H7         78.9287   52.0695   40.2362 H         1 49D         0.0693
     33 H8         77.2117   52.8009   40.9297 H         1 49D         0.2559
     34 H9         79.5347   51.3157   45.4046 H         1 49D         0.1024
     35 H10        75.3830   53.9003   44.4476 H         1 49D         0.1818
     36 H11        74.4039   54.4296   42.4018 H         1 49D         0.1840
     37 H12        75.9757   53.4487   40.0061 H         1 49D         0.0732
     38 H13        73.8737   53.8995   38.7558 H         1 49D         0.0276
     39 H14        73.1061   54.5040   40.2631 H         1 49D         0.0276
     40 H15        73.5902   52.7792   40.1310 H         1 49D         0.0276
     41 H16        77.7138   54.8957   39.9024 H         1 49D         0.0558
     42 H17        78.4910   57.1886   39.4114 H         1 49D         0.0606
     43 H18        74.4828   58.6426   39.7950 H         1 49D         0.0606
     44 H19        73.7053   56.3527   40.3056 H         1 49D         0.0558
     45 H20        81.2129   49.0408   40.9162 H         1 49D         0.0266
     46 H21        80.7153   48.6179   39.2428 H         1 49D         0.0266
@<TRIPOS>BOND
     1    1    2 1  
     2    1   24 1  
     3    2    4 1  
     4    4    3 1  
     5    3   24 1  
     6    4    5 1  
     7    5    6 1  
     8    5    8 1  
     9    6    7 1  
    10    6   10 2  
    11    7   14 ar 
    12    8    9 2  
    13    9   10 1  
    14   10   11 1  
    15   11   12 2  
    16   11   13 am 
    17   13   14 ar 
    18   14   15 ar 
    19   15   16 1  
    20   16   17 1  
    21   16   18 1  
    22   18   19 ar 
    23   18   23 ar 
    24   19   20 ar 
    25   20   21 ar 
    26   21   22 ar 
    27   21   25 1  
    28   22   23 ar 
    29    1   26 1  
    30    1   27 1  
    31    2   28 1  
    32    2   29 1  
    33    3   30 1  
    34    3   31 1  
    35    4   32 1  
    36    7   33 1  
    37    9   34 1  
    38   13   35 1  
    39   15   36 1  
    40   16   37 1  
    41   17   38 1  
    42   17   39 1  
    43   17   40 1  
    44   19   41 1  
    45   20   42 1  
    46   22   43 1  
    47   23   44 1  
    48   24   45 1  
    49   24   46 1  
@<TRIPOS>SUBSTRUCTURE
     1 49D         1

