### 
### Created by X-TOOL on Mon Sep 10 21:13:24 2018
### 

@<TRIPOS>MOLECULE
4y8d_ligand
   42    45     1     0     0
SMALL
GAST_HUCK


@<TRIPOS>ATOM
      1 CAJ        31.2950   51.0850  -63.5480 C.3       1 49J         0.0964
      2 CAH        30.8220   52.0530  -64.4450 C.3       1 49J         0.0764
      3 OAO        29.9540   51.3070  -65.3050 O.3       1 49J        -0.3742
      4 CAI        28.6350   51.0800  -64.7320 C.3       1 49J         0.0764
      5 CAK        28.7370   51.1300  -63.1840 C.3       1 49J         0.0964
      6 NAX        30.1060   50.7350  -62.7240 N.pl3     1 49J        -0.1824
      7 CAU        30.3260   50.0260  -61.6220 C.2       1 49J         0.2710
      8 SAP        31.7180   49.8470  -61.0310 S.3       1 49J        -0.0056
      9 NAM        31.3290   48.8820  -59.7870 N.2       1 49J        -0.5657
     10 CAV        30.0070   48.6960  -59.8670 C.ar      1 49J        -0.0598
     11 CAG        29.2370   47.9870  -59.0350 C.ar      1 49J        -0.0490
     12 CAW        29.4410   49.3470  -60.9040 C.ar      1 49J         0.1760
     13 NAL        28.1190   49.2670  -61.0930 N.ar      1 49J        -0.2652
     14 CAE        27.2980   48.5390  -60.2510 C.ar      1 49J         0.0181
     15 CAS        27.8620   47.8940  -59.1760 C.ar      1 49J        -0.0023
     16 CAR        27.0710   47.1120  -58.3310 C.ar      1 49J        -0.0321
     17 CAF        27.6180   45.9840  -57.6830 C.ar      1 49J        -0.0343
     18 CAD        25.7190   47.4200  -58.1600 C.ar      1 49J        -0.0737
     19 CAC        24.9130   46.6340  -57.3410 C.ar      1 49J        -0.0492
     20 CAQ        25.4600   45.5280  -56.7140 C.ar      1 49J         0.0690
     21 NAB        24.7210   44.7560  -55.9220 N.pl3     1 49J        -0.3383
     22 CAT        26.8060   45.1930  -56.8660 C.ar      1 49J         0.1110
     23 OAN        27.2220   44.0670  -56.1840 O.3       1 49J        -0.3264
     24 CAA        28.6570   43.8590  -56.0500 C.3       1 49J         0.0565
     25 H1         32.0979   51.4962  -62.9185 H         1 49J         0.0649
     26 H2         31.6682   50.2024  -64.0882 H         1 49J         0.0649
     27 H3         31.6499   52.5017  -65.0135 H         1 49J         0.0588
     28 H4         30.2691   52.8436  -63.9165 H         1 49J         0.0588
     29 H5         28.2626   50.0933  -65.0447 H         1 49J         0.0588
     30 H6         27.9428   51.8606  -65.0807 H         1 49J         0.0588
     31 H7         27.9988   50.4382  -62.7522 H         1 49J         0.0649
     32 H8         28.5240   52.1536  -62.8422 H         1 49J         0.0649
     33 H9         29.7099   47.4614  -58.2133 H         1 49J         0.0712
     34 H10        26.2315   48.4783  -60.4350 H         1 49J         0.0814
     35 H11        28.6636   45.7322  -57.8185 H         1 49J         0.0515
     36 H12        25.2943   48.2777  -58.6690 H         1 49J         0.0514
     37 H13        23.8686   46.8854  -57.1960 H         1 49J         0.0492
     38 H14        23.7228   44.9678  -55.7821 H         1 49J         0.1700
     39 H15        25.1470   43.9465  -55.4486 H         1 49J         0.1700
     40 H16        28.8422   42.9311  -55.4889 H         1 49J         0.0572
     41 H17        29.1019   44.7084  -55.5109 H         1 49J         0.0572
     42 H18        29.1110   43.7803  -57.0488 H         1 49J         0.0572
@<TRIPOS>BOND
     1    1    2 1  
     2    1    6 1  
     3    2    3 1  
     4    3    4 1  
     5    4    5 1  
     6    5    6 1  
     7    6    7 1  
     8    7    8 1  
     9    7   12 2  
    10    8    9 1  
    11    9   10 2  
    12   10   11 ar 
    13   10   12 ar 
    14   11   15 ar 
    15   12   13 ar 
    16   13   14 ar 
    17   14   15 ar 
    18   15   16 1  
    19   16   17 ar 
    20   16   18 ar 
    21   17   22 ar 
    22   18   19 ar 
    23   19   20 ar 
    24   20   21 1  
    25   20   22 ar 
    26   22   23 1  
    27   23   24 1  
    28    1   25 1  
    29    1   26 1  
    30    2   27 1  
    31    2   28 1  
    32    4   29 1  
    33    4   30 1  
    34    5   31 1  
    35    5   32 1  
    36   11   33 1  
    37   14   34 1  
    38   17   35 1  
    39   18   36 1  
    40   19   37 1  
    41   21   38 1  
    42   21   39 1  
    43   24   40 1  
    44   24   41 1  
    45   24   42 1  
@<TRIPOS>SUBSTRUCTURE
     1 49J         1

