### 
### Created by X-TOOL on Mon Sep 10 21:13:21 2018
### 

@<TRIPOS>MOLECULE
4y8x_ligand
   66    70     1     0     0
SMALL
GAST_HUCK


@<TRIPOS>ATOM
      1 C13        39.1580  -18.6420   29.5000 C.2       1 4GR         0.1911
      2 C18        37.4050  -14.8120   26.9790 C.ar      1 4GR         0.1410
      3 C17        37.0980  -15.7730   27.9560 C.ar      1 4GR         0.0262
      4 C16        37.8610  -17.0190   28.1030 C.2       1 4GR        -0.0388
      5 C15        38.4140  -17.3940   29.2450 C.2       1 4GR         0.0072
      6 C19        36.6890  -13.6170   26.9340 C.ar      1 4GR        -0.0176
      7 C20        35.6160  -13.3990   27.8030 C.ar      1 4GR        -0.0476
      8 C21        35.2600  -14.3850   28.7000 C.ar      1 4GR         0.0380
      9 C22        35.9900  -15.5590   28.7990 C.ar      1 4GR        -0.0382
     10 C24        40.9800  -23.9490   27.5350 C.ar      1 4GR        -0.0601
     11 C11        40.0400  -23.3120   28.3400 C.ar      1 4GR        -0.0383
     12 C34        38.7380  -14.9010   24.7720 C.2       1 4GR         0.1690
     13 C27        40.5310  -24.9190   30.1020 C.ar      1 4GR        -0.0686
     14 C33        45.7600  -20.6750   30.2360 C.ar      1 4GR        -0.0683
     15 CL1        33.8490  -14.1580   29.7050 Cl        1 4GR        -0.0754
     16 CL2        44.6650  -20.4530   27.0650 Cl        1 4GR        -0.0904
     17 C3         41.3290  -20.7510   28.7720 C.2       1 4GR         0.1414
     18 N4         42.0620  -20.5130   27.6910 N.2       1 4GR        -0.3193
     19 C5         43.3350  -20.6350   28.1410 C.2       1 4GR         0.0724
     20 C6         43.3970  -20.9190   29.4760 C.2       1 4GR         0.0756
     21 N7         42.0860  -20.9850   29.8610 N.pl3     1 4GR        -0.2556
     22 C8         44.4810  -21.2120   30.4170 C.ar      1 4GR        -0.0162
     23 C9         39.8370  -20.8730   28.8020 C.3       1 4GR         0.1264
     24 C10        39.3830  -22.0150   27.8780 C.3       1 4GR         0.0201
     25 N12        39.2000  -19.5820   28.4910 N.am      1 4GR        -0.2669
     26 O14        39.7400  -18.8080   30.5760 O.2       1 4GR        -0.3927
     27 N23        38.4780  -15.0370   26.0650 N.pl3     1 4GR        -0.0913
     28 C25        41.6940  -25.0470   28.0130 C.ar      1 4GR        -0.0686
     29 C26        41.4660  -25.5320   29.2990 C.ar      1 4GR        -0.0687
     30 C28        39.8180  -23.8170   29.6240 C.ar      1 4GR        -0.0601
     31 C29        44.2570  -22.0630   31.4950 C.ar      1 4GR        -0.0683
     32 C30        45.2650  -22.3710   32.3790 C.ar      1 4GR        -0.0420
     33 C31        46.5590  -21.8810   32.1820 C.ar      1 4GR         0.0679
     34 C32        46.8010  -21.0270   31.0920 C.ar      1 4GR        -0.0420
     35 N35        40.0060  -15.0580   24.5310 N.2       1 4GR        -0.2058
     36 N36        40.5730  -15.2540   25.7430 N.2       1 4GR        -0.1365
     37 N37        39.6720  -15.2410   26.6800 N.2       1 4GR        -0.0466
     38 N38        47.5340  -22.3200   33.1190 N.am      1 4GR        -0.2090
     39 C39        48.8700  -22.0220   33.1330 C.2       1 4GR         0.3504
     40 O40        49.4590  -21.3520   32.3170 O.2       1 4GR        -0.3666
     41 O41        49.4450  -22.5680   34.2200 O.3       1 4GR        -0.2622
     42 C42        50.8590  -22.2420   34.4440 C.3       1 4GR         0.0668
     43 H1         37.9769  -17.6635   27.2328 H         1 4GR         0.0739
     44 H2         38.3088  -16.7092   30.0852 H         1 4GR         0.0628
     45 H3         36.9664  -12.8505   26.2194 H         1 4GR         0.0602
     46 H4         35.0686  -12.4638   27.7724 H         1 4GR         0.0635
     47 H5         35.7082  -16.3127   29.5254 H         1 4GR         0.0642
     48 H6         41.1584  -23.5885   26.5284 H         1 4GR         0.0557
     49 H7         37.9883  -14.6861   24.0120 H         1 4GR         0.1430
     50 H8         40.3483  -25.2908   31.1037 H         1 4GR         0.0599
     51 H9         45.9422  -19.9802   29.4241 H         1 4GR         0.0562
     52 H10        41.7404  -21.1786   30.8118 H         1 4GR         0.2348
     53 H11        39.5413  -21.1429   29.8265 H         1 4GR         0.0821
     54 H12        38.2888  -22.1171   27.9267 H         1 4GR         0.0477
     55 H13        39.6852  -21.7956   26.8433 H         1 4GR         0.0477
     56 H14        38.8146  -19.3948   27.5874 H         1 4GR         0.1873
     57 H15        42.4316  -25.5266   27.3797 H         1 4GR         0.0599
     58 H16        42.0219  -26.3875   29.6653 H         1 4GR         0.0559
     59 H17        39.0788  -23.3448   30.2609 H         1 4GR         0.0557
     60 H18        43.2715  -22.4904   31.6406 H         1 4GR         0.0562
     61 H19        45.0537  -22.9997   33.2364 H         1 4GR         0.0503
     62 H20        47.7991  -20.6418   30.9173 H         1 4GR         0.0503
     63 H21        47.2059  -22.9152   33.8526 H         1 4GR         0.2283
     64 H22        51.2110  -22.7448   35.3568 H         1 4GR         0.0575
     65 H23        50.9707  -21.1537   34.5586 H         1 4GR         0.0575
     66 H24        51.4546  -22.5833   33.5845 H         1 4GR         0.0575
@<TRIPOS>BOND
     1    1    5 1  
     2   25    1 am 
     3    1   26 2  
     4    3    2 ar 
     5    2    6 ar 
     6    2   27 1  
     7    4    3 1  
     8    3    9 ar 
     9    5    4 2  
    10    6    7 ar 
    11    8    7 ar 
    12    9    8 ar 
    13    8   15 1  
    14   11   10 ar 
    15   10   28 ar 
    16   24   11 1  
    17   11   30 ar 
    18   27   12 1  
    19   12   35 2  
    20   13   29 ar 
    21   30   13 ar 
    22   22   14 ar 
    23   14   34 ar 
    24   19   16 1  
    25   17   18 2  
    26   17   21 1  
    27   23   17 1  
    28   18   19 1  
    29   20   19 2  
    30   21   20 1  
    31   20   22 1  
    32   22   31 ar 
    33   23   24 1  
    34   23   25 1  
    35   27   37 1  
    36   28   29 ar 
    37   31   32 ar 
    38   32   33 ar 
    39   33   34 ar 
    40   33   38 1  
    41   35   36 1  
    42   36   37 2  
    43   38   39 am 
    44   39   40 2  
    45   39   41 1  
    46   41   42 1  
    47    4   43 1  
    48    5   44 1  
    49    6   45 1  
    50    7   46 1  
    51    9   47 1  
    52   10   48 1  
    53   12   49 1  
    54   13   50 1  
    55   14   51 1  
    56   21   52 1  
    57   23   53 1  
    58   24   54 1  
    59   24   55 1  
    60   25   56 1  
    61   28   57 1  
    62   29   58 1  
    63   30   59 1  
    64   31   60 1  
    65   32   61 1  
    66   34   62 1  
    67   38   63 1  
    68   42   64 1  
    69   42   65 1  
    70   42   66 1  
@<TRIPOS>SUBSTRUCTURE
     1 4GR         1

