### 
### Created by X-TOOL on Mon Sep 10 21:13:24 2018
### 

@<TRIPOS>MOLECULE
4y8y_ligand
   71    75     1     0     0
SMALL
GAST_HUCK


@<TRIPOS>ATOM
      1 C13        46.3720  -22.1720   31.9520 C.ar      1 4D5         0.0679
      2 C17        48.6840  -22.3250   32.9020 C.2       1 4D5         0.3504
      3 C15        45.6140  -21.0070   29.9800 C.ar      1 4D5        -0.0683
      4 C20        38.9620  -19.0600   29.4030 C.2       1 4D5         0.1911
      5 C21        38.2970  -17.7410   29.2740 C.2       1 4D5         0.0072
      6 C23        37.8080  -17.1860   28.1630 C.2       1 4D5        -0.0388
      7 C24        37.1730  -15.8670   28.0170 C.ar      1 4D5         0.0262
      8 C11        44.0700  -22.3150   31.2550 C.ar      1 4D5        -0.0683
      9 C12        45.0730  -22.6300   32.1550 C.ar      1 4D5        -0.0420
     10 C27        37.6280  -14.9010   27.1090 C.ar      1 4D5         0.1410
     11 C33        38.7850  -15.2100   24.8910 C.2       1 4D5         0.1690
     12 C1         41.1930  -21.0410   28.3900 C.2       1 4D5         0.1416
     13 N2         41.9860  -20.8410   27.3500 N.2       1 4D5        -0.3193
     14 C3         43.2500  -20.9470   27.8300 C.2       1 4D5         0.0724
     15 C4         43.2580  -21.2080   29.1750 C.2       1 4D5         0.0756
     16 N5         41.9250  -21.2490   29.5160 N.pl3     1 4D5        -0.2556
     17 C6         39.6950  -21.1040   28.3100 C.3       1 4D5         0.1335
     18 N7         39.0930  -19.7730   28.2670 N.am      1 4D5        -0.2665
     19 C8         39.2050  -21.9550   27.1320 C.3       1 4D5         0.0764
     20 CL9        44.5990  -20.7740   26.7810 Cl        1 4D5        -0.0904
     21 C10        44.3220  -21.4970   30.1600 C.ar      1 4D5        -0.0162
     22 C14        46.6320  -21.3540   30.8520 C.ar      1 4D5        -0.0420
     23 N16        47.3570  -22.6310   32.8790 N.am      1 4D5        -0.2090
     24 O18        49.2810  -21.6460   32.0960 O.2       1 4D5        -0.3666
     25 O19        49.2370  -22.8490   34.0050 O.3       1 4D5        -0.2622
     26 O22        39.4050  -19.4780   30.4800 O.2       1 4D5        -0.3927
     27 C25        39.5780  -23.4220   27.1850 C.2       1 4D5         0.1834
     28 C26        50.6290  -22.5180   34.2330 C.3       1 4D5         0.0668
     29 C28        36.9720  -13.6790   27.0000 C.ar      1 4D5        -0.0176
     30 C29        35.8470  -13.4240   27.7670 C.ar      1 4D5        -0.0476
     31 C30        35.4110  -14.3770   28.6630 C.ar      1 4D5         0.0380
     32 C31        36.0500  -15.5910   28.7920 C.ar      1 4D5        -0.0382
     33 N32        38.7110  -15.1800   26.2270 N.pl3     1 4D5        -0.0913
     34 N34        39.9220  -15.5280   26.7240 N.2       1 4D5        -0.0466
     35 N35        40.6700  -15.7620   25.6950 N.2       1 4D5        -0.1365
     36 N36        39.9850  -15.5720   24.5380 N.2       1 4D5        -0.2058
     37 CL3        34.0610  -14.0140   29.7040 Cl        1 4D5        -0.0754
     38 O38        40.1460  -23.8920   28.1650 O.2       1 4D5        -0.3966
     39 N39        39.1940  -24.1990   26.1440 N.am      1 4D5        -0.2686
     40 C40        38.3620  -23.7700   25.0110 C.3       1 4D5         0.0573
     41 C41        37.1320  -24.6290   24.9490 C.3       1 4D5         0.0681
     42 O42        37.4680  -26.0090   24.7940 O.3       1 4D5        -0.3758
     43 C43        38.3030  -26.4400   25.8620 C.3       1 4D5         0.0681
     44 C44        39.5530  -25.6080   25.9810 C.3       1 4D5         0.0573
     45 H1         45.8247  -20.3460   29.1470 H         1 4D5         0.0562
     46 H2         38.1962  -17.1594   30.1891 H         1 4D5         0.0628
     47 H3         37.8888  -17.7815   27.2548 H         1 4D5         0.0739
     48 H4         43.0728  -22.7122   31.4064 H         1 4D5         0.0562
     49 H5         44.8458  -23.2373   33.0237 H         1 4D5         0.0503
     50 H6         37.9714  -14.9700   24.2081 H         1 4D5         0.1430
     51 H7         41.5477  -21.4095   30.4609 H         1 4D5         0.2348
     52 H8         39.3452  -21.5920   29.2317 H         1 4D5         0.0823
     53 H9         38.7792  -19.3924   27.3971 H         1 4D5         0.1872
     54 H10        39.6281  -21.5313   26.2093 H         1 4D5         0.0554
     55 H11        38.1077  -21.8858   27.0978 H         1 4D5         0.0554
     56 H12        47.6375  -20.9878   30.6790 H         1 4D5         0.0503
     57 H13        47.0344  -23.2497   33.5953 H         1 4D5         0.2283
     58 H14        50.9733  -22.9998   35.1600 H         1 4D5         0.0575
     59 H15        50.7362  -21.4271   34.3251 H         1 4D5         0.0575
     60 H16        51.2343  -22.8758   33.3871 H         1 4D5         0.0575
     61 H17        37.3417  -12.9255   26.3140 H         1 4D5         0.0602
     62 H18        35.3151  -12.4851   27.6639 H         1 4D5         0.0635
     63 H19        35.6795  -16.3286   29.4946 H         1 4D5         0.0642
     64 H20        38.9315  -23.8748   24.0758 H         1 4D5         0.0545
     65 H21        38.0698  -22.7182   25.1465 H         1 4D5         0.0545
     66 H22        36.5167  -24.3122   24.0940 H         1 4D5         0.0580
     67 H23        36.5595  -24.5023   25.8797 H         1 4D5         0.0580
     68 H24        38.5904  -27.4871   25.6861 H         1 4D5         0.0580
     69 H25        37.7389  -26.3677   26.8036 H         1 4D5         0.0580
     70 H26        40.1321  -25.9412   26.8548 H         1 4D5         0.0545
     71 H27        40.1599  -25.7278   25.0714 H         1 4D5         0.0545
@<TRIPOS>BOND
     1    9    1 ar 
     2   22    1 ar 
     3    1   23 1  
     4   23    2 am 
     5    2   24 2  
     6    2   25 1  
     7   21    3 ar 
     8    3   22 ar 
     9    4    5 1  
    10   18    4 am 
    11    4   26 2  
    12    5    6 2  
    13    6    7 1  
    14    7   10 ar 
    15    7   32 ar 
    16    8    9 ar 
    17   21    8 ar 
    18   10   29 ar 
    19   10   33 1  
    20   33   11 1  
    21   11   36 2  
    22   12   13 2  
    23   12   16 1  
    24   17   12 1  
    25   13   14 1  
    26   15   14 2  
    27   14   20 1  
    28   16   15 1  
    29   15   21 1  
    30   17   18 1  
    31   17   19 1  
    32   19   27 1  
    33   25   28 1  
    34   27   38 2  
    35   27   39 am 
    36   29   30 ar 
    37   30   31 ar 
    38   31   32 ar 
    39   31   37 1  
    40   33   34 1  
    41   34   35 2  
    42   35   36 1  
    43   39   40 1  
    44   39   44 1  
    45   40   41 1  
    46   41   42 1  
    47   42   43 1  
    48   43   44 1  
    49    3   45 1  
    50    5   46 1  
    51    6   47 1  
    52    8   48 1  
    53    9   49 1  
    54   11   50 1  
    55   16   51 1  
    56   17   52 1  
    57   18   53 1  
    58   19   54 1  
    59   19   55 1  
    60   22   56 1  
    61   23   57 1  
    62   28   58 1  
    63   28   59 1  
    64   28   60 1  
    65   29   61 1  
    66   30   62 1  
    67   32   63 1  
    68   40   64 1  
    69   40   65 1  
    70   41   66 1  
    71   41   67 1  
    72   43   68 1  
    73   43   69 1  
    74   44   70 1  
    75   44   71 1  
@<TRIPOS>SUBSTRUCTURE
     1 4D5         1

