### 
### Created by X-TOOL on Mon Sep 10 21:13:25 2018
### 

@<TRIPOS>MOLECULE
4y8z_ligand
   75    80     1     0     0
SMALL
GAST_HUCK


@<TRIPOS>ATOM
      1 C13        46.2580  -21.4830   30.4720 C.ar      1 4CE        -0.0543
      2 C17        44.5260  -21.9190   32.0840 C.ar      1 4CE        -0.0666
      3 C16        45.4690  -22.2650   33.0250 C.ar      1 4CE        -0.0340
      4 C15        46.8280  -22.2520   32.7030 C.ar      1 4CE         0.0891
      5 C19        48.6690  -21.7500   31.1680 C.2       1 4CE         0.1034
      6 C20        49.5860  -22.0660   32.1850 C.2       1 4CE         0.0200
      7 C21        49.1410  -22.4650   33.4960 C.2       1 4CE         0.1853
      8 C12        44.9020  -21.5370   30.8000 C.ar      1 4CE        -0.0375
      9 C34        38.9550  -15.0380   25.0960 C.2       1 4CE         0.1690
     10 C27        35.8140  -13.7820   27.9110 C.ar      1 4CE        -0.0476
     11 N1         39.8090  -24.5950   28.1230 N.am      1 4CE        -0.2628
     12 C2         39.4310  -24.6670   26.6860 C.3       1 4CE         0.0740
     13 C3         40.3350  -25.6280   25.9250 C.3       1 4CE        -0.0112
     14 N4         40.3840  -26.9330   26.5890 N.4       1 4CE         0.2359
     15 C5         40.8840  -26.7790   27.9430 C.3       1 4CE        -0.0112
     16 C6         39.9740  -25.9240   28.7440 C.3       1 4CE         0.0740
     17 C7         41.8170  -20.9960   29.1600 C.2       1 4CE         0.1422
     18 N8         42.5620  -20.8050   28.0450 N.pl3     1 4CE        -0.2487
     19 C9         43.8490  -20.9510   28.4250 C.2       1 4CE         0.1385
     20 C10        43.8540  -21.2400   29.7990 C.2       1 4CE         0.0196
     21 N11        42.5360  -21.2510   30.2220 N.2       1 4CE        -0.3272
     22 C14        47.2340  -21.8390   31.4190 C.ar      1 4CE         0.0468
     23 CL1        45.1200  -20.7430   27.3000 Cl        1 4CE        -0.0492
     24 N22        47.7880  -22.5660   33.6690 N.am      1 4CE        -0.2349
     25 O23        49.9050  -22.6190   34.4650 O.2       1 4CE        -0.4184
     26 O24        49.0370  -21.3090   29.9720 O.3       1 4CE        -0.3238
     27 C25        40.3290  -21.0210   29.1860 C.3       1 4CE         0.1338
     28 C26        36.9630  -13.9610   27.1470 C.ar      1 4CE        -0.0176
     29 C28        35.4790  -14.7270   28.8520 C.ar      1 4CE         0.0380
     30 C29        36.2660  -15.8490   29.0550 C.ar      1 4CE        -0.0382
     31 C30        37.4370  -16.0350   28.3090 C.ar      1 4CE         0.0262
     32 C31        37.7870  -15.0760   27.3370 C.ar      1 4CE         0.1410
     33 N32        38.8180  -15.3480   26.3850 N.pl3     1 4CE        -0.0913
     34 CL2        34.0210  -14.5150   29.8010 Cl        1 4CE        -0.0754
     35 N35        40.1750  -15.2690   24.7050 N.2       1 4CE        -0.2058
     36 N36        40.8170  -15.7380   25.8010 N.2       1 4CE        -0.1365
     37 N37        40.0210  -15.7960   26.8230 N.2       1 4CE        -0.0466
     38 C38        38.1990  -17.2670   28.5390 C.2       1 4CE        -0.0388
     39 C39        38.6620  -17.6750   29.7060 C.2       1 4CE         0.0072
     40 C40        39.4900  -18.9000   29.9620 C.2       1 4CE         0.1911
     41 O41        39.8600  -19.1850   31.1100 O.2       1 4CE        -0.3927
     42 N42        39.7980  -19.7010   28.8890 N.am      1 4CE        -0.2665
     43 C43        39.8030  -22.1140   28.2580 C.3       1 4CE         0.0764
     44 C44        39.9640  -23.4920   28.8940 C.2       1 4CE         0.1836
     45 O45        40.1730  -23.6270   30.1010 O.2       1 4CE        -0.3966
     46 C46        41.2340  -27.8440   25.8660 C.3       1 4CE        -0.0430
     47 H1         46.5601  -21.1646   29.4808 H         1 4CE         0.0585
     48 H2         43.4747  -21.9445   32.3472 H         1 4CE         0.0591
     49 H3         45.1548  -22.5495   34.0227 H         1 4CE         0.0525
     50 H4         50.6536  -22.0082   31.9782 H         1 4CE         0.0348
     51 H5         38.1608  -14.6477   24.4613 H         1 4CE         0.1430
     52 H6         35.1900  -12.9075   27.7660 H         1 4CE         0.0635
     53 H7         39.5184  -23.6646   26.2415 H         1 4CE         0.0575
     54 H8         38.3903  -25.0142   26.6059 H         1 4CE         0.0575
     55 H9         41.3507  -25.2082   25.8798 H         1 4CE         0.0834
     56 H10        39.9458  -25.7573   24.9043 H         1 4CE         0.0834
     57 H11        39.4517  -27.3148   26.6236 H         1 4CE         0.2032
     58 H12        41.8801  -26.3137   27.9093 H         1 4CE         0.0834
     59 H13        40.9578  -27.7696   28.4155 H         1 4CE         0.0834
     60 H14        38.9909  -26.4125   28.8136 H         1 4CE         0.0575
     61 H15        40.3938  -25.7994   29.7530 H         1 4CE         0.0575
     62 H16        42.2163  -20.5915   27.0985 H         1 4CE         0.2377
     63 H17        47.4599  -22.8900   34.5564 H         1 4CE         0.2352
     64 H18        48.6960  -20.4321   29.8403 H         1 4CE         0.2554
     65 H19        40.0120  -21.2787   30.2073 H         1 4CE         0.0823
     66 H20        37.2236  -13.2262   26.3938 H         1 4CE         0.0602
     67 H21        35.9743  -16.5862   29.7943 H         1 4CE         0.0642
     68 H22        38.3997  -17.8981   27.6745 H         1 4CE         0.0739
     69 H23        38.4182  -17.0599   30.5710 H         1 4CE         0.0628
     70 H24        39.6632  -19.3904   27.9480 H         1 4CE         0.1872
     71 H25        40.3653  -22.0856   27.3130 H         1 4CE         0.0554
     72 H26        38.7370  -21.9329   28.0560 H         1 4CE         0.0554
     73 H27        40.8562  -27.9617   24.8396 H         1 4CE         0.0778
     74 H28        41.2364  -28.8217   26.3701 H         1 4CE         0.0778
     75 H29        42.2584  -27.4443   25.8361 H         1 4CE         0.0778
@<TRIPOS>BOND
     1    8    1 ar 
     2    1   22 ar 
     3    2    3 ar 
     4    8    2 ar 
     5    3    4 ar 
     6   22    4 ar 
     7    4   24 1  
     8    5    6 2  
     9   22    5 1  
    10    5   26 1  
    11    6    7 1  
    12   24    7 am 
    13    7   25 2  
    14   20    8 1  
    15   33    9 1  
    16    9   35 2  
    17   28   10 ar 
    18   29   10 ar 
    19   11   12 1  
    20   11   16 1  
    21   44   11 am 
    22   12   13 1  
    23   13   14 1  
    24   15   14 1  
    25   14   46 1  
    26   16   15 1  
    27   17   18 1  
    28   17   21 2  
    29   27   17 1  
    30   18   19 1  
    31   20   19 2  
    32   19   23 1  
    33   21   20 1  
    34   27   42 1  
    35   43   27 1  
    36   32   28 ar 
    37   30   29 ar 
    38   29   34 1  
    39   31   30 ar 
    40   31   32 ar 
    41   38   31 1  
    42   32   33 1  
    43   33   37 1  
    44   36   35 1  
    45   37   36 2  
    46   39   38 2  
    47   40   39 1  
    48   40   41 2  
    49   42   40 am 
    50   43   44 1  
    51   44   45 2  
    52    1   47 1  
    53    2   48 1  
    54    3   49 1  
    55    6   50 1  
    56    9   51 1  
    57   10   52 1  
    58   12   53 1  
    59   12   54 1  
    60   13   55 1  
    61   13   56 1  
    62   14   57 1  
    63   15   58 1  
    64   15   59 1  
    65   16   60 1  
    66   16   61 1  
    67   18   62 1  
    68   24   63 1  
    69   26   64 1  
    70   27   65 1  
    71   28   66 1  
    72   30   67 1  
    73   38   68 1  
    74   39   69 1  
    75   42   70 1  
    76   43   71 1  
    77   43   72 1  
    78   46   73 1  
    79   46   74 1  
    80   46   75 1  
@<TRIPOS>SUBSTRUCTURE
     1 4CE         1

