### 
### Created by X-TOOL on Mon Sep 10 21:13:23 2018
### 

@<TRIPOS>MOLECULE
4ya8_ligand
   93    96     1     0     0
SMALL
GAST_HUCK


@<TRIPOS>ATOM
      1 O3        -65.7700  -21.5950  -16.7990 O.2       1 49W        -0.3846
      2 C15       -64.8160  -22.2440  -17.2460 C.2       1 49W         0.2037
      3 C25       -64.3170  -23.5000  -16.4440 C.ar      1 49W         0.0457
      4 C24       -63.1140  -23.4640  -15.7430 C.ar      1 49W        -0.0339
      5 C26       -65.1090  -24.6690  -16.4270 C.ar      1 49W        -0.0141
      6 C27       -64.6890  -25.7950  -15.7100 C.ar      1 49W         0.0778
      7 N2        -65.5140  -26.9550  -15.7250 N.pl3     1 49W        -0.2531
      8 C30       -64.9610  -28.1950  -15.8830 C.2       1 49W         0.0242
      9 C31       -65.7960  -29.3360  -15.9050 C.2       1 49W        -0.0741
     10 C32       -67.1580  -29.1940  -15.7720 C.2       1 49W        -0.1001
     11 C29       -67.7080  -27.9480  -15.6200 C.2       1 49W        -0.0722
     12 C47       -66.8740  -26.8130  -15.5990 C.3       1 49W         0.0672
     13 C22       -63.4770  -25.7720  -15.0070 C.ar      1 49W        -0.0141
     14 C23       -62.6870  -24.5980  -15.0210 C.ar      1 49W         0.0458
     15 C28       -61.3350  -24.5520  -14.2380 C.2       1 49W         0.2058
     16 N3        -61.2790  -23.9410  -12.9040 N.am      1 49W        -0.2725
     17 C33       -60.0170  -23.8850  -12.1500 C.3       1 49W         0.0331
     18 C34       -60.2380  -24.4570  -10.7390 C.3       1 49W        -0.0354
     19 C35       -59.3240  -23.7360   -9.7270 C.3       1 49W        -0.0634
     20 C36       -62.5050  -23.3820  -12.3120 C.3       1 49W         0.0331
     21 C37       -62.5320  -21.8660  -12.5480 C.3       1 49W        -0.0354
     22 C38       -63.2670  -21.2170  -11.3880 C.3       1 49W        -0.0634
     23 O6        -60.3230  -25.0230  -14.7420 O.2       1 49W        -0.3844
     24 N1        -64.1800  -21.8470  -18.4940 N.am      1 49W        -0.2785
     25 C11       -64.6780  -20.6760  -19.1840 C.3       1 49W         0.0818
     26 C14       -63.6530  -19.5790  -19.0980 C.3       1 49W         0.0065
     27 C19       -63.3920  -19.3540  -17.5890 C.ar      1 49W        -0.0408
     28 C20       -62.2350  -19.8470  -16.9910 C.ar      1 49W        -0.0603
     29 C21       -62.0120  -19.6510  -15.6230 C.ar      1 49W        -0.0686
     30 C16       -62.9510  -18.9660  -14.8660 C.ar      1 49W        -0.0687
     31 C17       -64.1090  -18.4850  -15.4660 C.ar      1 49W        -0.0686
     32 C18       -64.3360  -18.6740  -16.8210 C.ar      1 49W        -0.0603
     33 C10       -65.0310  -20.9860  -20.6460 C.3       1 49W         0.1192
     34 O2        -63.9480  -20.6970  -21.4740 O.3       1 49W        -0.3840
     35 C9        -65.3970  -22.4380  -20.7730 C.3       1 49W        -0.0082
     36 N4        -64.9820  -22.9320  -22.0710 N.4       1 49W         0.1952
     37 C7        -66.0650  -23.7180  -22.6800 C.3       1 49W        -0.0029
     38 C12       -67.2490  -22.7990  -22.9700 C.3       1 49W        -0.0371
     39 C13       -65.5790  -24.3300  -23.9740 C.3       1 49W        -0.0371
     40 C3        -66.5350  -24.8730  -21.7060 C.ar      1 49W         0.0722
     41 N5        -65.5970  -25.6130  -20.9760 N.ar      1 49W        -0.2660
     42 C1        -66.0220  -26.6200  -20.1260 C.ar      1 49W         0.0418
     43 C6        -67.3790  -26.9000  -20.0080 C.ar      1 49W        -0.0062
     44 C5        -68.3070  -26.1700  -20.7340 C.ar      1 49W        -0.0135
     45 C4        -67.8870  -25.1550  -21.5840 C.ar      1 49W        -0.0073
     46 H1        -62.5069  -22.5660  -15.7523 H         1 49W         0.0621
     47 H2        -66.0460  -24.6943  -16.9715 H         1 49W         0.0620
     48 H3        -63.8829  -28.3037  -15.9914 H         1 49W         0.0969
     49 H4        -65.3611  -30.3269  -16.0272 H         1 49W         0.0293
     50 H5        -67.8002  -30.0734  -15.7875 H         1 49W         0.0377
     51 H6        -68.7862  -27.8357  -15.5158 H         1 49W         0.0515
     52 H7        -67.2026  -26.1629  -16.4233 H         1 49W         0.0725
     53 H8        -67.0523  -26.3064  -14.6390 H         1 49W         0.0725
     54 H9        -63.1474  -26.6461  -14.4571 H         1 49W         0.0620
     55 H10       -59.6812  -22.8403  -12.0738 H         1 49W         0.0522
     56 H11       -59.2517  -24.4791  -12.6709 H         1 49W         0.0522
     57 H12       -60.0027  -25.5315  -10.7408 H         1 49W         0.0282
     58 H13       -61.2888  -24.3122  -10.4479 H         1 49W         0.0282
     59 H14       -59.4896  -24.1520   -8.7222 H         1 49W         0.0230
     60 H15       -59.5584  -22.6613   -9.7221 H         1 49W         0.0230
     61 H16       -58.2723  -23.8806  -10.0149 H         1 49W         0.0230
     62 H17       -62.5184  -23.5866  -11.2313 H         1 49W         0.0522
     63 H18       -63.3851  -23.8436  -12.7835 H         1 49W         0.0522
     64 H19       -63.0551  -21.6453  -13.4902 H         1 49W         0.0282
     65 H20       -61.5036  -21.4791  -12.6001 H         1 49W         0.0282
     66 H21       -63.2981  -20.1276  -11.5372 H         1 49W         0.0230
     67 H22       -62.7419  -21.4435  -10.4484 H         1 49W         0.0230
     68 H23       -64.2933  -21.6097  -11.3384 H         1 49W         0.0230
     69 H24       -63.4151  -22.3723  -18.8668 H         1 49W         0.1851
     70 H25       -65.5941  -20.3384  -18.6772 H         1 49W         0.0606
     71 H26       -64.0390  -18.6585  -19.5602 H         1 49W         0.0449
     72 H27       -62.7252  -19.8826  -19.6049 H         1 49W         0.0449
     73 H28       -61.5053  -20.3838  -17.5863 H         1 49W         0.0557
     74 H29       -61.1103  -20.0325  -15.1577 H         1 49W         0.0599
     75 H30       -62.7819  -18.8059  -13.8073 H         1 49W         0.0559
     76 H31       -64.8426  -17.9564  -14.8682 H         1 49W         0.0599
     77 H32       -65.2420  -18.2953  -17.2801 H         1 49W         0.0557
     78 H33       -65.8894  -20.3684  -20.9488 H         1 49W         0.0672
     79 H34       -63.7274  -19.7763  -21.3952 H         1 49W         0.2101
     80 H35       -66.4862  -22.5515  -20.6692 H         1 49W         0.0841
     81 H36       -64.8915  -23.0135  -19.9835 H         1 49W         0.0841
     82 H37       -64.1673  -23.5154  -21.9612 H         1 49W         0.1981
     83 H38       -64.7587  -22.1520  -22.6692 H         1 49W         0.1981
     84 H39       -68.0627  -23.3821  -23.4260 H         1 49W         0.0203
     85 H40       -66.9351  -22.0040  -23.6624 H         1 49W         0.0203
     86 H41       -67.6024  -22.3488  -22.0307 H         1 49W         0.0203
     87 H42       -66.3899  -24.9178  -24.4289 H         1 49W         0.0203
     88 H43       -64.7205  -24.9866  -23.7694 H         1 49W         0.0203
     89 H44       -65.2731  -23.5310  -24.6654 H         1 49W         0.0203
     90 H45       -65.2983  -27.1890  -19.5536 H         1 49W         0.0932
     91 H46       -67.7120  -27.6914  -19.3463 H         1 49W         0.0937
     92 H47       -69.3637  -26.3919  -20.6381 H         1 49W         0.0811
     93 H48       -68.6143  -24.5848  -22.1505 H         1 49W         0.0954
@<TRIPOS>BOND
     1    1    2 2  
     2    2    3 1  
     3    2   24 am 
     4    3    4 ar 
     5    3    5 ar 
     6    4   14 ar 
     7    5    6 ar 
     8    6    7 1  
     9    6   13 ar 
    10    7    8 1  
    11    7   12 1  
    12    8    9 2  
    13    9   10 1  
    14   10   11 2  
    15   11   12 1  
    16   13   14 ar 
    17   14   15 1  
    18   15   16 am 
    19   15   23 2  
    20   16   17 1  
    21   16   20 1  
    22   17   18 1  
    23   18   19 1  
    24   20   21 1  
    25   21   22 1  
    26   24   25 1  
    27   25   26 1  
    28   25   33 1  
    29   26   27 1  
    30   27   28 ar 
    31   27   32 ar 
    32   28   29 ar 
    33   29   30 ar 
    34   30   31 ar 
    35   31   32 ar 
    36   33   34 1  
    37   33   35 1  
    38   35   36 1  
    39   36   37 1  
    40   37   38 1  
    41   37   39 1  
    42   37   40 1  
    43   40   41 ar 
    44   40   45 ar 
    45   41   42 ar 
    46   42   43 ar 
    47   43   44 ar 
    48   44   45 ar 
    49    4   46 1  
    50    5   47 1  
    51    8   48 1  
    52    9   49 1  
    53   10   50 1  
    54   11   51 1  
    55   12   52 1  
    56   12   53 1  
    57   13   54 1  
    58   17   55 1  
    59   17   56 1  
    60   18   57 1  
    61   18   58 1  
    62   19   59 1  
    63   19   60 1  
    64   19   61 1  
    65   20   62 1  
    66   20   63 1  
    67   21   64 1  
    68   21   65 1  
    69   22   66 1  
    70   22   67 1  
    71   22   68 1  
    72   24   69 1  
    73   25   70 1  
    74   26   71 1  
    75   26   72 1  
    76   28   73 1  
    77   29   74 1  
    78   30   75 1  
    79   31   76 1  
    80   32   77 1  
    81   33   78 1  
    82   34   79 1  
    83   35   80 1  
    84   35   81 1  
    85   36   82 1  
    86   36   83 1  
    87   38   84 1  
    88   38   85 1  
    89   38   86 1  
    90   39   87 1  
    91   39   88 1  
    92   39   89 1  
    93   42   90 1  
    94   43   91 1  
    95   44   92 1  
    96   45   93 1  
@<TRIPOS>SUBSTRUCTURE
     1 49W         1

