### 
### Created by X-TOOL on Mon Sep 10 21:12:47 2018
### 

@<TRIPOS>MOLECULE
4yas_ligand
    9     8     1     0     0
SMALL
GAST_HUCK


@<TRIPOS>ATOM
      1 C1         13.7250   51.4070   17.8460 C.3       1 CLX         0.2132
      2 C          14.8890   50.4800   17.3780 C.3       1 CLX         0.0909
      3 O          15.4820   50.9070   16.1450 O.3       1 CLX        -0.3908
      4 CL1        12.7360   50.6560   19.1610 Cl        1 CLX        -0.0809
      5 CL2        14.4140   52.8890   18.5420 Cl        1 CLX        -0.0809
      6 CL3        12.6950   51.8830   16.4570 Cl        1 CLX        -0.0809
      7 H1         14.4944   49.4621   17.2434 H         1 CLX         0.0599
      8 H2         15.6659   50.4721   18.1566 H         1 CLX         0.0599
      9 H3         16.1817   50.3098   15.9079 H         1 CLX         0.2096
@<TRIPOS>BOND
     1    1    2 1  
     2    1    4 1  
     3    1    5 1  
     4    1    6 1  
     5    2    3 1  
     6    2    7 1  
     7    2    8 1  
     8    3    9 1  
@<TRIPOS>SUBSTRUCTURE
     1 CLX         1

