### 
### Created by X-TOOL on Mon Sep 10 21:13:25 2018
### 

@<TRIPOS>MOLECULE
4yay_ligand
   61    65     1     0     0
SMALL
GAST_HUCK


@<TRIPOS>ATOM
      1 C4        -16.9230   14.4230   41.8820 C.ar      1 ZD7        -0.0018
      2 C3        -18.3520   14.8570   40.0060 C.ar      1 ZD7         0.0068
      3 C2        -19.3500   15.7980   39.3710 C.3       1 ZD7        -0.0148
      4 C1        -20.7540   15.2930   39.5800 C.3       1 ZD7        -0.0549
      5 O1        -17.0680    9.7960   37.6540 O.3       1 ZD7        -0.3700
      6 N1        -17.8480   15.2470   41.2360 N.ar      1 ZD7        -0.3255
      7 C10       -18.4550   13.1360   37.9670 C.3       1 ZD7        -0.0184
      8 C11       -18.6620   11.6390   37.9390 C.3       1 ZD7         0.0016
      9 C12       -17.3890   10.9530   38.2990 C.3       1 ZD7         0.1401
     10 C13       -15.2730   10.9560   39.7380 C.3       1 ZD7         0.0642
     11 C14       -15.2850    9.8130   40.7500 C.ar      1 ZD7        -0.0202
     12 C15       -16.5680    9.2330   41.2850 C.ar      1 ZD7        -0.0569
     13 C16       -16.5210    8.1990   42.2180 C.ar      1 ZD7        -0.0599
     14 C17       -14.0540    9.3360   41.1720 C.ar      1 ZD7        -0.0569
     15 C18       -14.0050    8.2280   42.1980 C.ar      1 ZD7        -0.0599
     16 C19       -15.1710    7.6930   42.6920 C.ar      1 ZD7        -0.0235
     17 N2        -16.5620   11.5140   39.3040 N.pl3     1 ZD7        -0.2693
     18 C20       -15.0670    6.5430   43.6860 C.ar      1 ZD7        -0.0123
     19 C21       -15.5220    6.7120   44.9730 C.ar      1 ZD7        -0.0551
     20 C22       -15.4060    5.5650   45.9350 C.ar      1 ZD7        -0.0623
     21 C23       -14.8460    4.3700   45.5450 C.ar      1 ZD7        -0.0621
     22 C24       -14.3410    4.1870   44.1440 C.ar      1 ZD7        -0.0525
     23 C25       -14.4460    5.2270   43.2530 C.ar      1 ZD7         0.0155
     24 C26       -13.9520    5.0510   41.8590 C.2       1 ZD7         0.1484
     25 N3        -14.6950    5.2910   40.6730 N.2       1 ZD7        -0.1441
     26 N4        -13.9300    5.0780   39.5950 N.pl3     1 ZD7        -0.1038
     27 C5        -16.3930   14.8320   43.2280 C.3       1 ZD7        -0.0150
     28 N5        -12.6970    4.7060   40.0960 N.2       1 ZD7        -0.0518
     29 C6        -17.2920   14.3040   44.3020 C.3       1 ZD7        -0.0546
     30 N6        -12.7030    4.7040   41.4850 N.2       1 ZD7        -0.1756
     31 C7        -16.4690   13.2050   41.3020 C.ar      1 ZD7        -0.0295
     32 C8        -16.9790   12.7760   39.9540 C.ar      1 ZD7         0.0529
     33 C9        -17.8990   13.5760   39.3360 C.ar      1 ZD7        -0.0036
     34 H1        -19.1468   15.8679   38.2922 H         1 ZD7         0.0430
     35 H2        -19.2511   16.7936   39.8281 H         1 ZD7         0.0430
     36 H3        -21.4670   15.9881   39.1126 H         1 ZD7         0.0252
     37 H4        -20.9622   15.2240   40.6579 H         1 ZD7         0.0252
     38 H5        -20.8579   14.2983   39.1221 H         1 ZD7         0.0252
     39 H6        -17.7455    9.5892   37.0210 H         1 ZD7         0.2122
     40 H7        -19.4171   13.6384   37.7881 H         1 ZD7         0.0387
     41 H8        -17.7418   13.4181   37.1785 H         1 ZD7         0.0387
     42 H9        -18.9714   11.3307   36.9294 H         1 ZD7         0.0328
     43 H10       -19.4437   11.3636   38.6622 H         1 ZD7         0.0328
     44 H11       -16.8475   11.5297   37.5347 H         1 ZD7         0.0865
     45 H12       -14.7570   10.5895   38.8383 H         1 ZD7         0.0684
     46 H13       -14.6946   11.7792   40.1828 H         1 ZD7         0.0684
     47 H14       -17.5230    9.6179   40.9460 H         1 ZD7         0.0561
     48 H15       -17.4364    7.7619   42.6001 H         1 ZD7         0.0609
     49 H16       -13.1373    9.7529   40.7707 H         1 ZD7         0.0561
     50 H17       -13.0486    7.8542   42.5453 H         1 ZD7         0.0609
     51 H18       -15.9558    7.6547   45.2866 H         1 ZD7         0.0614
     52 H19       -15.7682    5.6798   46.9502 H         1 ZD7         0.0614
     53 H20       -14.7691    3.5547   46.2553 H         1 ZD7         0.0610
     54 H21       -13.8987    3.2456   43.8388 H         1 ZD7         0.0621
     55 H22       -14.2018    5.1713   38.6059 H         1 ZD7         0.2945
     56 H23       -16.3553   15.9297   43.2887 H         1 ZD7         0.0435
     57 H24       -15.3811   14.4223   43.3632 H         1 ZD7         0.0435
     58 H25       -16.9029   14.6041   45.2862 H         1 ZD7         0.0253
     59 H26       -17.3297   13.2063   44.2418 H         1 ZD7         0.0253
     60 H27       -18.3039   14.7137   44.1674 H         1 ZD7         0.0253
     61 H28       -15.7547   12.5859   41.8327 H         1 ZD7         0.0468
@<TRIPOS>BOND
     1    6    1 ar 
     2    1   27 1  
     3    1   31 ar 
     4    2    3 1  
     5    2    6 ar 
     6   33    2 ar 
     7    3    4 1  
     8    9    5 1  
     9    8    7 1  
    10    7   33 1  
    11    9    8 1  
    12   17    9 1  
    13   10   11 1  
    14   10   17 1  
    15   11   12 ar 
    16   11   14 ar 
    17   12   13 ar 
    18   13   16 ar 
    19   14   15 ar 
    20   15   16 ar 
    21   16   18 1  
    22   17   32 1  
    23   18   19 ar 
    24   18   23 ar 
    25   19   20 ar 
    26   20   21 ar 
    27   21   22 ar 
    28   22   23 ar 
    29   23   24 1  
    30   24   25 2  
    31   24   30 1  
    32   25   26 1  
    33   26   28 1  
    34   27   29 1  
    35   28   30 2  
    36   31   32 ar 
    37   32   33 ar 
    38    3   34 1  
    39    3   35 1  
    40    4   36 1  
    41    4   37 1  
    42    4   38 1  
    43    5   39 1  
    44    7   40 1  
    45    7   41 1  
    46    8   42 1  
    47    8   43 1  
    48    9   44 1  
    49   10   45 1  
    50   10   46 1  
    51   12   47 1  
    52   13   48 1  
    53   14   49 1  
    54   15   50 1  
    55   19   51 1  
    56   20   52 1  
    57   21   53 1  
    58   22   54 1  
    59   26   55 1  
    60   27   56 1  
    61   27   57 1  
    62   29   58 1  
    63   29   59 1  
    64   29   60 1  
    65   31   61 1  
@<TRIPOS>SUBSTRUCTURE
     1 ZD7         1

