### 
### Created by X-TOOL on Wed Jan  1 15:39:34 2020
### 

@<TRIPOS>MOLECULE
4yb5_ligand
   20    20     1     0     0
SMALL
GAST_HUCK


@<TRIPOS>ATOM
      1 N           1.8220    5.6760  -51.1050 N.4       1 HIS         0.2337
      2 CA          0.3890    5.3660  -51.0340 C.3       1 HIS         0.0342
      3 C          -0.3800    6.5860  -51.4720 C.2       1 HIS         0.0860
      4 O           0.2150    7.6020  -51.8880 O.co2     1 HIS        -0.5642
      5 CB         -0.0180    4.9600  -49.6130 C.3       1 HIS         0.0292
      6 CG          0.4250    5.9190  -48.5630 C.2       1 HIS        -0.0001
      7 ND1         1.4200    5.6240  -47.6540 N.2       1 HIS        -0.3251
      8 CD2         0.0070    7.1690  -48.2680 C.2       1 HIS         0.0292
      9 CE1         1.6000    6.6590  -46.8520 C.2       1 HIS         0.0907
     10 NE2         0.7450    7.6000  -47.1930 N.pl3     1 HIS        -0.2752
     11 OXT        -1.6100    6.5650  -51.3760 O.co2     1 HIS        -0.5642
     12 H1          2.3547    4.8708  -50.8153 H         1 HIS         0.2011
     13 H2          2.0285    6.4522  -50.4960 H         1 HIS         0.2011
     14 H3          2.0670    5.9178  -52.0524 H         1 HIS         0.2011
     15 H4          0.1664    4.5324  -51.7163 H         1 HIS         0.1042
     16 H5          0.4239    3.9769  -49.3933 H         1 HIS         0.0446
     17 H6         -1.1148    4.8859  -49.5743 H         1 HIS         0.0446
     18 H7         -0.7697    7.7300  -48.7856 H         1 HIS         0.0729
     19 H8          2.3306    6.7225  -46.0469 H         1 HIS         0.1199
     20 H9          0.6454    8.5136  -46.7279 H         1 HIS         0.2361
@<TRIPOS>BOND
     1    1    2 1  
     2    2    3 1  
     3    2    5 1  
     4    3    4 ar 
     5    3   11 ar 
     6    5    6 1  
     7    6    7 1  
     8    6    8 2  
     9    7    9 2  
    10    8   10 1  
    11    9   10 1  
    12    1   12 1  
    13    1   13 1  
    14    1   14 1  
    15    2   15 1  
    16    5   16 1  
    17    5   17 1  
    18    8   18 1  
    19    9   19 1  
    20   10   20 1  
@<TRIPOS>SUBSTRUCTURE
     1 HIS         1

