### 
### Created by X-TOOL on Mon Sep 10 21:13:23 2018
### 

@<TRIPOS>MOLECULE
4ybi_ligand
   37    39     1     0     0
SMALL
GAST_HUCK


@<TRIPOS>ATOM
      1 C7         23.5410   56.2190   86.5570 C.ar      1 4B2         0.0284
      2 C1         25.9250   56.2330   86.1040 C.ar      1 4B2         0.0565
      3 C5         23.3390   56.8050   85.3150 C.ar      1 4B2         0.1665
      4 C4         24.3660   57.0860   84.4460 C.ar      1 4B2         0.0410
      5 C2         25.6450   56.8010   84.8720 C.ar      1 4B2         0.1769
      6 F3         26.6350   57.1000   84.0590 F         1 4B2        -0.1539
      7 F6         22.1050   57.0900   84.9160 F         1 4B2        -0.1546
      8 C8         24.8480   55.9400   86.9260 C.ar      1 4B2        -0.0268
      9 C9         22.3780   55.8930   87.4710 C.3       1 4B2         0.0947
     10 C10        21.3480   55.0390   86.7360 C.3       1 4B2        -0.0458
     11 C11        21.6720   57.1430   87.9750 C.3       1 4B2        -0.0252
     12 C12        22.5900   57.9800   88.8330 C.3       1 4B2        -0.0085
     13 S13        23.0390   57.0270   90.3080 S.3       1 4B2        -0.0884
     14 C14        22.9490   55.3570   89.7570 C.cat     1 4B2         0.2578
     15 N15        22.6810   54.9670   88.5590 N.pl3     1 4B2        -0.2869
     16 N16        23.1930   54.4560   90.7790 N.pl3     1 4B2        -0.2674
     17 C17        27.2950   56.0170   86.5810 C.ar      1 4B2         0.0400
     18 C18        27.7500   54.8650   87.1850 C.ar      1 4B2         0.0357
     19 N19        28.9830   54.7060   87.6910 N.ar      1 4B2        -0.2635
     20 C20        29.7840   55.7750   87.6010 C.ar      1 4B2         0.0886
     21 N21        29.4790   56.9460   87.0420 N.ar      1 4B2        -0.2635
     22 C22        28.2360   57.0290   86.5430 C.ar      1 4B2         0.0357
     23 H1         24.1779   57.5134   83.4677 H         1 4B2         0.0679
     24 H2         25.0337   55.4777   87.8887 H         1 4B2         0.0842
     25 H3         20.5109   54.8111   87.4123 H         1 4B2         0.0167
     26 H4         21.8181   54.1010   86.4055 H         1 4B2         0.0167
     27 H5         20.9727   55.5894   85.8607 H         1 4B2         0.0167
     28 H6         20.7966   56.8451   88.5708 H         1 4B2         0.0210
     29 H7         21.3424   57.7412   87.1128 H         1 4B2         0.0210
     30 H8         22.0751   58.9047   89.1327 H         1 4B2         0.0366
     31 H9         23.4978   58.2331   88.2657 H         1 4B2         0.0366
     32 H10        22.6804   53.9565   88.3593 H         1 4B2         0.3096
     33 H11        23.1705   53.4438   90.5895 H         1 4B2         0.3186
     34 H12        23.3971   54.7977   91.7290 H         1 4B2         0.3186
     35 H13        27.0641   54.0286   87.2565 H         1 4B2         0.0935
     36 H14        30.7774   55.6789   88.0240 H         1 4B2         0.1114
     37 H15        27.9473   57.9624   86.0735 H         1 4B2         0.0935
@<TRIPOS>BOND
     1    1    3 ar 
     2    8    1 ar 
     3    1    9 1  
     4    2    5 ar 
     5    2    8 ar 
     6    2   17 1  
     7    3    4 ar 
     8    3    7 1  
     9    4    5 ar 
    10    5    6 1  
    11    9   10 1  
    12    9   11 1  
    13    9   15 1  
    14   11   12 1  
    15   12   13 1  
    16   13   14 1  
    17   14   15 ar 
    18   14   16 ar 
    19   17   18 ar 
    20   17   22 ar 
    21   18   19 ar 
    22   19   20 ar 
    23   20   21 ar 
    24   21   22 ar 
    25    4   23 1  
    26    8   24 1  
    27   10   25 1  
    28   10   26 1  
    29   10   27 1  
    30   11   28 1  
    31   11   29 1  
    32   12   30 1  
    33   12   31 1  
    34   15   32 1  
    35   16   33 1  
    36   16   34 1  
    37   18   35 1  
    38   20   36 1  
    39   22   37 1  
@<TRIPOS>SUBSTRUCTURE
     1 4B2         1

