### 
### Created by X-TOOL on Mon Sep 10 21:13:29 2018
### 

@<TRIPOS>MOLECULE
4ybj_ligand
   74    78     1     0     0
SMALL
GAST_HUCK


@<TRIPOS>ATOM
      1 O2         18.4110    6.4190   95.8950 O.2       1 4A9        -0.3722
      2 C7         19.0180    7.3450   95.3890 C.2       1 4A9         0.2392
      3 C8         20.0550    7.1070   94.3370 C.ar      1 4A9         0.0853
      4 C14        21.3910    7.4800   94.5560 C.ar      1 4A9        -0.0141
      5 C13        22.3550    7.2720   93.5620 C.ar      1 4A9        -0.0272
      6 C12        22.0020    6.6390   92.3700 C.ar      1 4A9        -0.0277
      7 C10        20.6640    6.2390   92.1700 C.ar      1 4A9         0.0540
      8 C11        20.3400    5.4600   90.9110 C.3       1 4A9         0.3783
      9 F3         21.2410    5.6040   89.9290 F         1 4A9        -0.2197
     10 F2         19.1650    5.8160   90.3730 F         1 4A9        -0.2197
     11 F1         20.2640    4.1400   91.0830 F         1 4A9        -0.2197
     12 C9         19.6740    6.4890   93.1370 C.ar      1 4A9        -0.0106
     13 N2         18.8330    8.7010   95.7200 N.am      1 4A9        -0.2360
     14 C6         17.9280    9.2700   96.6690 C.ar      1 4A9         0.0519
     15 C5         18.2220   10.4740   97.3330 C.ar      1 4A9        -0.0563
     16 C4         17.2900   11.0200   98.2210 C.ar      1 4A9        -0.0882
     17 C3         16.0740   10.4120   98.4860 C.ar      1 4A9        -0.0564
     18 C15        16.6800    8.6320   96.9230 C.ar      1 4A9        -0.0228
     19 C2         15.7790    9.2170   97.8310 C.ar      1 4A9         0.0511
     20 N1         14.5610    8.5590   98.0530 N.am      1 4A9        -0.2398
     21 C1         14.4570    7.3290   98.7080 C.2       1 4A9         0.2272
     22 O1         15.4130    6.7270   99.1810 O.2       1 4A9        -0.3852
     23 C16        13.0920    6.8250   98.8120 C.2       1 4A9         0.1131
     24 C17        12.0780    7.0330   97.8980 C.2       1 4A9        -0.0104
     25 N3         10.8710    6.4220   98.2350 N.2       1 4A9        -0.2980
     26 C18        11.0440    5.7580   99.4040 C.2       1 4A9         0.2125
     27 S          12.6170    5.8720  100.1040 S.3       1 4A9         0.0355
     28 N4          9.9550    5.0430   99.9510 N.pl3     1 4A9        -0.2165
     29 C19         9.9780    4.2860  101.1350 C.ar      1 4A9         0.1348
     30 C29         8.7790    3.6440  101.5550 C.ar      1 4A9         0.0208
     31 C22         8.8940    2.7800  102.6740 C.ar      1 4A9         0.1091
     32 N6         10.0900    2.5830  103.3620 N.ar      1 4A9        -0.2701
     33 C20        11.1740    3.2730  102.8990 C.ar      1 4A9         0.0703
     34 C21        12.4450    3.1020  103.6850 C.3       1 4A9        -0.0028
     35 N5         11.1870    4.1090  101.8160 N.ar      1 4A9        -0.2662
     36 N7          7.8100    1.9990  103.1640 N.pl3     1 4A9        -0.2818
     37 C28         6.5690    1.7490  102.4160 C.3       1 4A9         0.0716
     38 C27         5.4770    2.4740  103.1880 C.3       1 4A9        -0.0108
     39 N8          5.3670    1.8670  104.5520 N.4       1 4A9         0.2397
     40 C24         6.6630    2.0120  105.2840 C.3       1 4A9        -0.0108
     41 C23         7.7650    1.3440  104.4760 C.3       1 4A9         0.0716
     42 C25         4.1770    2.3460  105.3450 C.3       1 4A9        -0.0080
     43 C26         4.1400    3.8450  105.5640 C.3       1 4A9         0.0841
     44 O3          4.9910    4.2220  106.6320 O.3       1 4A9        -0.3898
     45 H1         21.6774    7.9311   95.4991 H         1 4A9         0.0903
     46 H2         23.3754    7.6028   93.7187 H         1 4A9         0.0708
     47 H3         22.7482    6.4563   91.6052 H         1 4A9         0.0883
     48 H4         18.6415    6.2108   92.9592 H         1 4A9         0.0912
     49 H5         19.4105    9.3513   95.2264 H         1 4A9         0.2249
     50 H6         19.1664   10.9764   97.1574 H         1 4A9         0.0382
     51 H7         17.5277   11.9526   98.7199 H         1 4A9         0.0541
     52 H8         15.3711   10.8531   99.1834 H         1 4A9         0.0382
     53 H9         16.4271    7.7048   96.4215 H         1 4A9         0.0376
     54 H10        13.7219    8.9931   97.7251 H         1 4A9         0.2239
     55 H11        12.2097    7.6232   96.9923 H         1 4A9         0.0653
     56 H12         9.0640    5.0799   99.4356 H         1 4A9         0.2301
     57 H13         7.8338    3.8058  101.0495 H         1 4A9         0.0519
     58 H14        12.2705    2.4038  104.5169 H         1 4A9         0.0460
     59 H15        12.7629    4.0763  104.0846 H         1 4A9         0.0460
     60 H16        13.2310    2.7008  103.0284 H         1 4A9         0.0460
     61 H17         6.3573    0.6705  102.3717 H         1 4A9         0.0577
     62 H18         6.6483    2.1494  101.3945 H         1 4A9         0.0577
     63 H19         4.5184    2.3699  102.6586 H         1 4A9         0.0835
     64 H20         5.7327    3.5401  103.2773 H         1 4A9         0.0835
     65 H21         5.2242    0.8789  104.4133 H         1 4A9         0.2036
     66 H22         6.5855    1.5310  106.2702 H         1 4A9         0.0835
     67 H23         6.8960    3.0792  105.4138 H         1 4A9         0.0835
     68 H24         8.7310    1.4632  104.9884 H         1 4A9         0.0577
     69 H25         7.5444    0.2733  104.3537 H         1 4A9         0.0577
     70 H26         4.1970    1.8540  106.3286 H         1 4A9         0.0837
     71 H27         3.2633    2.0532  104.8071 H         1 4A9         0.0837
     72 H28         3.1096    4.1489  105.8004 H         1 4A9         0.0610
     73 H29         4.4700    4.3513  104.6449 H         1 4A9         0.0610
     74 H30         4.9511    5.1638  106.7499 H         1 4A9         0.2096
@<TRIPOS>BOND
     1    1    2 2  
     2    2    3 1  
     3    2   13 am 
     4    3    4 ar 
     5    3   12 ar 
     6    4    5 ar 
     7    5    6 ar 
     8    6    7 ar 
     9    7    8 1  
    10    7   12 ar 
    11    8    9 1  
    12    8   10 1  
    13    8   11 1  
    14   13   14 1  
    15   14   15 ar 
    16   14   18 ar 
    17   15   16 ar 
    18   16   17 ar 
    19   17   19 ar 
    20   18   19 ar 
    21   19   20 1  
    22   20   21 am 
    23   21   22 2  
    24   21   23 1  
    25   23   24 2  
    26   23   27 1  
    27   24   25 1  
    28   25   26 2  
    29   26   27 1  
    30   26   28 1  
    31   28   29 1  
    32   29   30 ar 
    33   29   35 ar 
    34   30   31 ar 
    35   31   32 ar 
    36   31   36 1  
    37   32   33 ar 
    38   33   34 1  
    39   33   35 ar 
    40   36   37 1  
    41   36   41 1  
    42   37   38 1  
    43   38   39 1  
    44   39   40 1  
    45   39   42 1  
    46   40   41 1  
    47   42   43 1  
    48   43   44 1  
    49    4   45 1  
    50    5   46 1  
    51    6   47 1  
    52   12   48 1  
    53   13   49 1  
    54   15   50 1  
    55   16   51 1  
    56   17   52 1  
    57   18   53 1  
    58   20   54 1  
    59   24   55 1  
    60   28   56 1  
    61   30   57 1  
    62   34   58 1  
    63   34   59 1  
    64   34   60 1  
    65   37   61 1  
    66   37   62 1  
    67   38   63 1  
    68   38   64 1  
    69   39   65 1  
    70   40   66 1  
    71   40   67 1  
    72   41   68 1  
    73   41   69 1  
    74   42   70 1  
    75   42   71 1  
    76   43   72 1  
    77   43   73 1  
    78   44   74 1  
@<TRIPOS>SUBSTRUCTURE
     1 4A9         1

