### 
### Created by X-TOOL on Mon Sep 10 21:13:29 2018
### 

@<TRIPOS>MOLECULE
4ybk_ligand
   68    72     1     0     0
SMALL
GAST_HUCK


@<TRIPOS>ATOM
      1 O1         62.2500   60.7770  109.9410 O.2       1 4B7        -0.3865
      2 C1         62.9140   61.2920  109.0620 C.2       1 4B7         0.2249
      3 N1         62.4100   61.8150  107.8830 N.am      1 4B7        -0.2421
      4 C2         61.0520   62.0270  107.5460 C.ar      1 4B7         0.0555
      5 C13        60.7790   62.2670  106.1770 C.ar      1 4B7        -0.0480
      6 C12        59.4990   62.5580  105.7580 C.ar      1 4B7        -0.0410
      7 C5         58.4650   62.5770  106.7150 C.ar      1 4B7         0.1012
      8 O2         57.2360   62.9710  106.3090 O.3       1 4B7        -0.2673
      9 C6         56.7290   64.2240  106.6540 C.ar      1 4B7         0.1124
     10 C11        57.5880   65.3000  107.0710 C.ar      1 4B7        -0.0292
     11 C10        57.0040   66.5330  107.3750 C.ar      1 4B7        -0.0700
     12 C9         55.6210   66.7180  107.2620 C.ar      1 4B7        -0.0726
     13 C8         54.8020   65.6600  106.8400 C.ar      1 4B7        -0.0700
     14 C7         55.3520   64.4130  106.5390 C.ar      1 4B7        -0.0292
     15 C4         58.7040   62.2770  108.0230 C.ar      1 4B7        -0.0410
     16 C3         59.9790   62.0020  108.4610 C.ar      1 4B7        -0.0480
     17 C14        64.3470   61.2480  109.2070 C.2       1 4B7         0.1125
     18 C15        65.2610   62.2100  108.8760 C.2       1 4B7        -0.0105
     19 N2         66.5510   61.9230  109.2830 N.2       1 4B7        -0.2981
     20 C16        66.5350   60.7270  109.9160 C.2       1 4B7         0.2125
     21 S          65.0220   59.9740  110.0010 S.3       1 4B7         0.0354
     22 N3         67.7310   60.1810  110.4080 N.pl3     1 4B7        -0.2165
     23 C17        67.8660   58.9810  111.1280 C.ar      1 4B7         0.1348
     24 C27        69.1800   58.5750  111.5310 C.ar      1 4B7         0.0208
     25 C20        69.2720   57.4260  112.3770 C.ar      1 4B7         0.1091
     26 N5         68.1310   56.7330  112.8130 N.ar      1 4B7        -0.2701
     27 C18        66.9110   57.2180  112.3590 C.ar      1 4B7         0.0703
     28 C19        65.6600   56.5640  112.8770 C.3       1 4B7        -0.0028
     29 N4         66.7270   58.2840  111.5330 N.ar      1 4B7        -0.2662
     30 N6         70.5350   56.8800  112.8200 N.pl3     1 4B7        -0.2818
     31 C26        70.7280   55.5100  113.3600 C.3       1 4B7         0.0716
     32 C25        71.1430   55.6740  114.8160 C.3       1 4B7        -0.0108
     33 N7         72.4420   56.4170  114.8720 N.4       1 4B7         0.2397
     34 C22        72.2870   57.7680  114.2500 C.3       1 4B7        -0.0108
     35 C21        71.8280   57.5970  112.8060 C.3       1 4B7         0.0716
     36 C23        73.0830   56.4390  116.2380 C.3       1 4B7        -0.0080
     37 C24        72.2990   57.2140  117.2790 C.3       1 4B7         0.0841
     38 O3         72.6330   58.5910  117.2320 O.3       1 4B7        -0.3898
     39 H1         63.0832   62.0726  107.1899 H         1 4B7         0.2210
     40 H2         61.5841   62.2213  105.4526 H         1 4B7         0.0481
     41 H3         59.2920   62.7677  104.7148 H         1 4B7         0.0518
     42 H4         58.6600   65.1583  107.1474 H         1 4B7         0.0549
     43 H5         57.6294   67.3557  107.7021 H         1 4B7         0.0590
     44 H6         55.1823   67.6800  107.5009 H         1 4B7         0.0525
     45 H7         53.7328   65.8123  106.7469 H         1 4B7         0.0590
     46 H8         54.7137   63.5976  106.2183 H         1 4B7         0.0549
     47 H9         57.8797   62.2548  108.7266 H         1 4B7         0.0518
     48 H10        60.1579   61.7673  109.5041 H         1 4B7         0.0481
     49 H11        64.9966   63.1203  108.3400 H         1 4B7         0.0652
     50 H12        68.5943   60.7116  110.2234 H         1 4B7         0.2300
     51 H13        70.0636   59.1143  111.2092 H         1 4B7         0.0519
     52 H14        65.9304   55.7207  113.5294 H         1 4B7         0.0460
     53 H15        65.0614   56.1957  112.0308 H         1 4B7         0.0460
     54 H16        65.0731   57.2972  113.4497 H         1 4B7         0.0460
     55 H17        71.5151   54.9870  112.7971 H         1 4B7         0.0577
     56 H18        69.7896   54.9398  113.2942 H         1 4B7         0.0577
     57 H19        71.2645   54.6835  115.2787 H         1 4B7         0.0835
     58 H20        70.3709   56.2397  115.3581 H         1 4B7         0.0835
     59 H21        73.0827   55.9079  114.2835 H         1 4B7         0.2036
     60 H22        73.2512   58.2969  114.2708 H         1 4B7         0.0835
     61 H23        71.5383   58.3483  114.8092 H         1 4B7         0.0835
     62 H24        71.7031   58.5830  112.3347 H         1 4B7         0.0577
     63 H25        72.5724   57.0137  112.2442 H         1 4B7         0.0577
     64 H26        74.0789   56.8967  116.1446 H         1 4B7         0.0837
     65 H27        73.1877   55.4011  116.5869 H         1 4B7         0.0837
     66 H28        72.5353   56.8186  118.2779 H         1 4B7         0.0610
     67 H29        71.2230   57.0961  117.0830 H         1 4B7         0.0610
     68 H30        72.1330   59.0596  117.8899 H         1 4B7         0.2096
@<TRIPOS>BOND
     1    1    2 2  
     2    2    3 am 
     3    2   17 1  
     4    3    4 1  
     5    4    5 ar 
     6    4   16 ar 
     7    5    6 ar 
     8    6    7 ar 
     9    7    8 1  
    10    7   15 ar 
    11    8    9 1  
    12    9   10 ar 
    13    9   14 ar 
    14   10   11 ar 
    15   11   12 ar 
    16   12   13 ar 
    17   13   14 ar 
    18   15   16 ar 
    19   17   18 2  
    20   17   21 1  
    21   18   19 1  
    22   19   20 2  
    23   20   21 1  
    24   20   22 1  
    25   22   23 1  
    26   23   24 ar 
    27   23   29 ar 
    28   24   25 ar 
    29   25   26 ar 
    30   25   30 1  
    31   26   27 ar 
    32   27   28 1  
    33   27   29 ar 
    34   30   31 1  
    35   30   35 1  
    36   31   32 1  
    37   32   33 1  
    38   33   34 1  
    39   33   36 1  
    40   34   35 1  
    41   36   37 1  
    42   37   38 1  
    43    3   39 1  
    44    5   40 1  
    45    6   41 1  
    46   10   42 1  
    47   11   43 1  
    48   12   44 1  
    49   13   45 1  
    50   14   46 1  
    51   15   47 1  
    52   16   48 1  
    53   18   49 1  
    54   22   50 1  
    55   24   51 1  
    56   28   52 1  
    57   28   53 1  
    58   28   54 1  
    59   31   55 1  
    60   31   56 1  
    61   32   57 1  
    62   32   58 1  
    63   33   59 1  
    64   34   60 1  
    65   34   61 1  
    66   35   62 1  
    67   35   63 1  
    68   36   64 1  
    69   36   65 1  
    70   37   66 1  
    71   37   67 1  
    72   38   68 1  
@<TRIPOS>SUBSTRUCTURE
     1 4B7         1

