### 
### Created by X-TOOL on Mon Sep 10 21:13:21 2018
### 

@<TRIPOS>MOLECULE
4yc0_ligand
   22    23     1     0     0
SMALL
GAST_HUCK


@<TRIPOS>ATOM
      1 C10         1.7390  -15.9100   -5.9550 C.ar      1 5OF         0.0610
      2 C13         3.1210  -18.1750   -5.1750 C.ar      1 5OF        -0.0598
      3 C15         3.0150  -15.7520   -5.4550 C.ar      1 5OF         0.0124
      4 O01         5.8690  -12.7250   -6.5940 O.co2     1 5OF        -0.5666
      5 C02         5.5360  -12.8390   -5.3650 C.2       1 5OF         0.0463
      6 O03         5.6490  -11.8450   -4.5940 O.co2     1 5OF        -0.5666
      7 C04         4.9730  -14.1570   -4.8410 C.3       1 5OF         0.0458
      8 C05         3.5600  -14.4150   -5.3830 C.2       1 5OF         0.0678
      9 N06         2.8750  -13.3480   -5.7090 N.2       1 5OF        -0.1834
     10 N07         1.6040  -13.5510   -6.2090 N.am      1 5OF        -0.1720
     11 C08         0.9940  -14.7170   -6.3400 C.2       1 5OF         0.2360
     12 O09        -0.1650  -14.7610   -6.7510 O.2       1 5OF        -0.3938
     13 C11         1.1750  -17.1570   -6.0660 C.ar      1 5OF        -0.0440
     14 C12         1.8370  -18.3010   -5.6870 C.ar      1 5OF        -0.0589
     15 C14         3.7040  -16.9150   -5.0690 C.ar      1 5OF        -0.0505
     16 H1          3.6685  -19.0554   -4.8584 H         1 5OF         0.0642
     17 H2          4.9337  -14.1183   -3.7424 H         1 5OF         0.0585
     18 H3          5.6330  -14.9788   -5.1556 H         1 5OF         0.0585
     19 H4          1.0968  -12.7396   -6.4995 H         1 5OF         0.2567
     20 H5          0.1715  -17.2427   -6.4669 H         1 5OF         0.0659
     21 H6          1.3693  -19.2740   -5.7853 H         1 5OF         0.0609
     22 H7          4.7121  -16.8289   -4.6800 H         1 5OF         0.0617
@<TRIPOS>BOND
     1    3    1 ar 
     2    1   11 1  
     3    1   13 ar 
     4    2   14 ar 
     5   15    2 ar 
     6    8    3 1  
     7    3   15 ar 
     8    5    4 ar 
     9    5    6 ar 
    10    7    5 1  
    11    7    8 1  
    12    8    9 2  
    13    9   10 1  
    14   10   11 am 
    15   11   12 2  
    16   13   14 ar 
    17    2   16 1  
    18    7   17 1  
    19    7   18 1  
    20   10   19 1  
    21   13   20 1  
    22   14   21 1  
    23   15   22 1  
@<TRIPOS>SUBSTRUCTURE
     1 5OF         1

