### 
### Created by X-TOOL on Mon Sep 10 21:13:28 2018
### 

@<TRIPOS>MOLECULE
4yc8_ligand
   61    65     1     0     0
SMALL
GAST_HUCK


@<TRIPOS>ATOM
      1 O1         15.8720   46.7130    2.8050 O.2       1 4B7        -0.3865
      2 C1         15.2110   46.1710    1.9200 C.2       1 4B7         0.2249
      3 N1         15.6070   45.0460    1.2510 N.am      1 4B7        -0.2421
      4 C2         16.7060   44.2120    1.5480 C.ar      1 4B7         0.0555
      5 C13        17.1300   43.3960    0.4910 C.ar      1 4B7        -0.0480
      6 C12        18.2540   42.6100    0.6050 C.ar      1 4B7        -0.0410
      7 C5         19.0100   42.6470    1.7820 C.ar      1 4B7         0.1012
      8 O2         20.1590   41.8830    1.7620 O.3       1 4B7        -0.2673
      9 C6         20.4310   41.1010    2.8790 C.ar      1 4B7         0.1124
     10 C11        19.4700   40.1040    3.2530 C.ar      1 4B7        -0.0292
     11 C10        19.7310   39.3570    4.3970 C.ar      1 4B7        -0.0700
     12 C9         20.8820   39.5800    5.1470 C.ar      1 4B7        -0.0726
     13 C8         21.8100   40.5540    4.7670 C.ar      1 4B7        -0.0700
     14 C7         21.6000   41.3200    3.6250 C.ar      1 4B7        -0.0292
     15 C4         18.6160   43.4450    2.8490 C.ar      1 4B7        -0.0410
     16 C3         17.4700   44.2280    2.7330 C.ar      1 4B7        -0.0480
     17 C14        13.9950   46.8460    1.4370 C.2       1 4B7         0.1125
     18 C15        12.7810   46.3390    0.9970 C.2       1 4B7        -0.0105
     19 N2         11.8280   47.3240    0.6900 N.2       1 4B7        -0.2981
     20 C16        12.3950   48.5470    0.9100 C.2       1 4B7         0.2125
     21 S          14.0090   48.4930    1.4730 S.3       1 4B7         0.0354
     22 N3         11.7140   49.7460    0.5860 N.pl3     1 4B7        -0.2165
     23 C17        12.1980   51.0640    0.7470 C.ar      1 4B7         0.1348
     24 C27        11.3880   52.1580    0.2760 C.ar      1 4B7         0.0208
     25 C20        11.9680   53.4560    0.3210 C.ar      1 4B7         0.1091
     26 N5         13.2460   53.6760    0.8220 N.ar      1 4B7        -0.2701
     27 C18        13.9440   52.5680    1.2730 C.ar      1 4B7         0.0703
     28 C19        15.3650   52.8110    1.7470 C.3       1 4B7        -0.0028
     29 N4         13.4730   51.2770    1.2690 N.ar      1 4B7        -0.2662
     30 N6         11.3280   54.6430   -0.1690 N.pl3     1 4B7        -0.2818
     31 C26        11.8950   56.0140   -0.0530 C.3       1 4B7         0.0716
     32 C25        10.9700   56.8010    0.8680 C.3       1 4B7        -0.0126
     33 N7          9.5990   56.8490    0.2690 N.4       1 4B7         0.2299
     34 C22         9.0780   55.4580    0.0900 C.3       1 4B7        -0.0126
     35 C21        10.0100   54.6860   -0.8360 C.3       1 4B7         0.0716
     36 H1         15.0540   44.7841    0.4600 H         1 4B7         0.2210
     37 H2         16.5629   43.3835   -0.4327 H         1 4B7         0.0481
     38 H3         18.5524   41.9650   -0.2135 H         1 4B7         0.0518
     39 H4         18.5738   39.9388    2.6660 H         1 4B7         0.0549
     40 H5         19.0292   38.5917    4.7082 H         1 4B7         0.0590
     41 H6         21.0614   38.9900    6.0385 H         1 4B7         0.0525
     42 H7         22.6991   40.7134    5.3662 H         1 4B7         0.0590
     43 H8         22.3219   42.0683    3.3183 H         1 4B7         0.0549
     44 H9         19.1961   43.4581    3.7647 H         1 4B7         0.0518
     45 H10        17.1625   44.8557    3.5616 H         1 4B7         0.0481
     46 H11        12.5844   45.2724    0.8984 H         1 4B7         0.0652
     47 H12        10.7675   49.6470    0.1920 H         1 4B7         0.2300
     48 H13        10.3822   51.9993   -0.0958 H         1 4B7         0.0519
     49 H14        15.5913   53.8860    1.6914 H         1 4B7         0.0460
     50 H15        16.0654   52.2553    1.1062 H         1 4B7         0.0460
     51 H16        15.4684   52.4679    2.7870 H         1 4B7         0.0460
     52 H17        11.9371   56.4907   -1.0434 H         1 4B7         0.0577
     53 H18        12.9069   55.9695    0.3759 H         1 4B7         0.0577
     54 H19        11.3546   57.8246    0.9878 H         1 4B7         0.0834
     55 H20        10.9245   56.3090    1.8508 H         1 4B7         0.0834
     56 H21         9.6407   57.3090   -0.6269 H         1 4B7         0.2015
     57 H22         8.9835   57.3611    0.8814 H         1 4B7         0.2015
     58 H23         8.0711   55.4967   -0.3512 H         1 4B7         0.0834
     59 H24         9.0311   54.9547    1.0670 H         1 4B7         0.0834
     60 H25         9.6301   53.6655   -0.9920 H         1 4B7         0.0577
     61 H26        10.0919   55.1990   -1.8056 H         1 4B7         0.0577
@<TRIPOS>BOND
     1    1    2 2  
     2    2    3 am 
     3    2   17 1  
     4    3    4 1  
     5    4    5 ar 
     6    4   16 ar 
     7    5    6 ar 
     8    6    7 ar 
     9    7    8 1  
    10    7   15 ar 
    11    8    9 1  
    12    9   10 ar 
    13    9   14 ar 
    14   10   11 ar 
    15   11   12 ar 
    16   12   13 ar 
    17   13   14 ar 
    18   15   16 ar 
    19   17   18 2  
    20   17   21 1  
    21   18   19 1  
    22   19   20 2  
    23   20   21 1  
    24   20   22 1  
    25   22   23 1  
    26   23   24 ar 
    27   23   29 ar 
    28   24   25 ar 
    29   25   26 ar 
    30   25   30 1  
    31   26   27 ar 
    32   27   28 1  
    33   27   29 ar 
    34   30   31 1  
    35   30   35 1  
    36   31   32 1  
    37   32   33 1  
    38   33   34 1  
    39   34   35 1  
    40    3   36 1  
    41    5   37 1  
    42    6   38 1  
    43   10   39 1  
    44   11   40 1  
    45   12   41 1  
    46   13   42 1  
    47   14   43 1  
    48   15   44 1  
    49   16   45 1  
    50   18   46 1  
    51   22   47 1  
    52   24   48 1  
    53   28   49 1  
    54   28   50 1  
    55   28   51 1  
    56   31   52 1  
    57   31   53 1  
    58   32   54 1  
    59   32   55 1  
    60   33   56 1  
    61   33   57 1  
    62   34   58 1  
    63   34   59 1  
    64   35   60 1  
    65   35   61 1  
@<TRIPOS>SUBSTRUCTURE
     1 4B7         1

