### 
### Created by X-TOOL on Mon Sep 10 21:13:24 2018
### 

@<TRIPOS>MOLECULE
4ycl_ligand
   48    52     1     0     0
SMALL
GAST_HUCK


@<TRIPOS>ATOM
      1 O2         25.0180  -17.9540   15.6270 O.2       1 CZA        -0.3813
      2 C6         25.0750  -17.6690   14.4050 C.2       1 CZA         0.1831
      3 C3         26.1220  -17.7680   13.3650 C.3       1 CZA         0.1786
      4 C2         27.4220  -18.4530   13.4790 C.2       1 CZA         0.1313
      5 O1         28.1780  -18.0680   14.3440 O.2       1 CZA        -0.3878
      6 C1         28.0260  -19.2160   12.2540 C.3       1 CZA         0.0124
      7 C5         23.8280  -17.3920   13.5910 C.3       1 CZA         0.0662
      8 C7         22.9280  -18.5970   13.3540 C.3       1 CZA         0.0449
      9 C15        21.9010  -18.9400   14.4040 C.2       1 CZA        -0.0375
     10 C16        21.7980  -19.8380   15.4100 C.2       1 CZA         0.0140
     11 N2         20.5640  -19.6650   16.0470 N.pl3     1 CZA        -0.2922
     12 C17        19.8270  -18.6420   15.4640 C.ar      1 CZA         0.0540
     13 C14        20.6880  -18.2050   14.4340 C.ar      1 CZA        -0.0168
     14 C18        18.5680  -18.0010   15.6270 C.ar      1 CZA        -0.0521
     15 C19        18.1770  -16.9290   14.7620 C.ar      1 CZA        -0.0846
     16 C20        19.0680  -16.5200   13.7430 C.ar      1 CZA        -0.0778
     17 C13        20.3190  -17.1680   13.5910 C.ar      1 CZA        -0.0527
     18 C12        21.3430  -16.8090   12.5390 C.3       1 CZA        -0.0130
     19 C8         22.2480  -18.0230   12.0720 C.3       1 CZA         0.0283
     20 C9         23.4530  -17.5940   11.1540 C.3       1 CZA        -0.0041
     21 C10        24.0010  -18.7080   10.2630 C.3       1 CZA        -0.0183
     22 C11        23.2070  -16.3760   10.2820 C.3       1 CZA        -0.0183
     23 N1         24.3570  -17.2210   12.2480 N.4       1 CZA         0.2840
     24 C4         25.6810  -17.0710   12.2950 C.3       1 CZA         0.1196
     25 O3         26.3800  -16.7710   11.1660 O.3       1 CZA        -0.3482
     26 H1         25.7006  -18.7074   12.9777 H         1 CZA         0.0843
     27 H2         28.9933  -19.6567   12.5372 H         1 CZA         0.0460
     28 H3         28.1732  -18.5133   11.4206 H         1 CZA         0.0460
     29 H4         27.3363  -20.0145   11.9430 H         1 CZA         0.0460
     30 H5         23.2715  -16.5282   13.9837 H         1 CZA         0.1113
     31 H6         23.5227  -19.4995   13.1497 H         1 CZA         0.0473
     32 H7         22.5523  -20.5755   15.6803 H         1 CZA         0.0767
     33 H8         20.2423  -20.2264   16.8484 H         1 CZA         0.2206
     34 H9         17.8977  -18.3272   16.4140 H         1 CZA         0.0475
     35 H10        17.2171  -16.4407   14.8858 H         1 CZA         0.0512
     36 H11        18.7937  -15.7097   13.0772 H         1 CZA         0.0436
     37 H12        21.9994  -16.0273   12.9491 H         1 CZA         0.0429
     38 H13        20.8111  -16.4170   11.6595 H         1 CZA         0.0429
     39 H14        21.6293  -18.7778   11.5646 H         1 CZA         0.0401
     40 H15        24.8352  -18.3189    9.6608 H         1 CZA         0.0287
     41 H16        23.2045  -19.0693    9.5959 H         1 CZA         0.0287
     42 H17        24.3578  -19.5377   10.8909 H         1 CZA         0.0287
     43 H18        22.8111  -15.5566   10.8999 H         1 CZA         0.0287
     44 H19        22.4788  -16.6280    9.4970 H         1 CZA         0.0287
     45 H20        24.1528  -16.0607    9.8172 H         1 CZA         0.0287
     46 H21        24.1682  -16.2356   12.1507 H         1 CZA         0.2096
     47 H22        25.7359  -16.0624   12.7306 H         1 CZA         0.1243
     48 H23        27.3038  -16.7003   11.3762 H         1 CZA         0.2157
@<TRIPOS>BOND
     1    1    2 2  
     2    2    3 1  
     3    2    7 1  
     4    3    4 1  
     5    3   24 1  
     6    4    5 2  
     7    4    6 1  
     8    7    8 1  
     9    7   23 1  
    10    8    9 1  
    11    8   19 1  
    12    9   10 2  
    13    9   13 1  
    14   10   11 1  
    15   11   12 1  
    16   12   13 ar 
    17   12   14 ar 
    18   13   17 ar 
    19   14   15 ar 
    20   15   16 ar 
    21   16   17 ar 
    22   17   18 1  
    23   18   19 1  
    24   19   20 1  
    25   20   21 1  
    26   20   22 1  
    27   20   23 1  
    28   23   24 1  
    29   24   25 1  
    30    3   26 1  
    31    6   27 1  
    32    6   28 1  
    33    6   29 1  
    34    7   30 1  
    35    8   31 1  
    36   10   32 1  
    37   11   33 1  
    38   14   34 1  
    39   15   35 1  
    40   16   36 1  
    41   18   37 1  
    42   18   38 1  
    43   19   39 1  
    44   21   40 1  
    45   21   41 1  
    46   21   42 1  
    47   22   43 1  
    48   22   44 1  
    49   22   45 1  
    50   23   46 1  
    51   24   47 1  
    52   25   48 1  
@<TRIPOS>SUBSTRUCTURE
     1 CZA         1

