### 
### Created by X-TOOL on Mon Sep 10 21:13:29 2018
### 

@<TRIPOS>MOLECULE
4ycm_ligand
   95    96     1     0     0
SMALL
GAST_HUCK


@<TRIPOS>ATOM
      1 C68        27.5030  -19.3610   64.5460 C.3       1 7BS         0.0395
      2 O67        27.6550  -18.1220   63.8600 O.3       1 7BS        -0.3670
      3 C20        28.0450  -18.2970   62.4890 C.3       1 7BS         0.0894
      4 C21        27.6070  -16.9730   61.8450 C.3       1 7BS        -0.0013
      5 C22        27.0960  -16.9840   60.4370 C.2       1 7BS        -0.0918
      6 C23        26.6620  -15.8180   59.9530 C.2       1 7BS        -0.0676
      7 C24        26.6650  -15.5680   58.4780 C.3       1 7BS         0.0972
      8 O29        25.7030  -16.5210   57.9630 O.3       1 7BS        -0.3337
      9 C33        25.4570  -16.9430   56.5990 C.3       1 7BS         0.1903
     10 C32        26.7480  -17.5160   55.9470 C.3       1 7BS         0.1345
     11 O36        27.8170  -16.5570   55.8840 O.3       1 7BS        -0.3841
     12 C31        26.4730  -17.9950   54.4930 C.3       1 7BS         0.1171
     13 O71        27.5510  -18.8070   53.9760 O.3       1 7BS        -0.3744
     14 C72        28.7440  -18.1310   53.5250 C.3       1 7BS         0.0370
     15 C30        25.2840  -18.9810   54.4800 C.3       1 7BS         0.1121
     16 O37        24.8700  -19.1930   53.1110 O.3       1 7BS        -0.3865
     17 C35        24.0760  -18.4270   55.2760 C.3       1 7BS         0.1130
     18 C38        22.9760  -19.5190   55.3780 C.3       1 7BS         0.0730
     19 O39        23.4920  -20.7150   55.9890 O.3       1 7BS        -0.3924
     20 O34        24.4460  -17.9690   56.6030 O.3       1 7BS        -0.3404
     21 C27        26.3410  -14.0830   58.1470 C.3       1 7BS         0.0818
     22 C26        27.0380  -13.7530   56.8610 C.2       1 7BS         0.2397
     23 O28        26.4590  -13.5400   55.8070 O.2       1 7BS        -0.3700
     24 O25        28.3560  -13.6260   57.0490 O.3       1 7BS        -0.2655
     25 C8         29.1510  -13.6440   55.8550 C.3       1 7BS         0.1048
     26 C9         30.5360  -14.0660   56.4010 C.3       1 7BS         0.0067
     27 C10        30.6100  -15.5190   56.8080 C.2       1 7BS        -0.0832
     28 C11        31.0800  -15.9610   57.9820 C.2       1 7BS        -0.0903
     29 C12        31.1980  -17.4010   58.3000 C.2       1 7BS        -0.0904
     30 C13        31.7270  -17.8740   59.4380 C.2       1 7BS        -0.0858
     31 C14        31.8390  -19.3510   59.7500 C.3       1 7BS        -0.0219
     32 C15        31.5150  -19.6710   61.2360 C.3       1 7BS        -0.0282
     33 C19        31.7200  -21.1780   61.5440 C.3       1 7BS        -0.0571
     34 C16        30.0680  -19.3110   61.4900 C.2       1 7BS        -0.1014
     35 C17        29.5540  -18.4590   62.3970 C.2       1 7BS        -0.0536
     36 C18        30.3560  -17.6600   63.4130 C.3       1 7BS        -0.0378
     37 C4         29.1490  -12.2760   55.2050 C.2       1 7BS        -0.0716
     38 C1         29.5580  -11.8710   53.9810 C.2       1 7BS        -0.0735
     39 C3         29.3060  -10.4320   53.5710 C.3       1 7BS        -0.0390
     40 C2         30.2310  -12.6520   52.8610 C.3       1 7BS        -0.0126
     41 C5         30.7070  -14.0750   52.9950 C.2       1 7BS        -0.0894
     42 C6         31.9370  -14.4750   52.6550 C.2       1 7BS        -0.0996
     43 C7         32.4740  -15.7960   53.1150 C.3       1 7BS        -0.0481
     44 H1         27.2049  -19.1694   65.5873 H         1 7BS         0.0526
     45 H2         28.4578  -19.9071   64.5326 H         1 7BS         0.0526
     46 H3         26.7290  -19.9633   64.0480 H         1 7BS         0.0526
     47 H4         27.5412  -19.1593   62.0279 H         1 7BS         0.0764
     48 H5         28.4773  -16.3006   61.8667 H         1 7BS         0.0435
     49 H6         26.8068  -16.5574   62.4750 H         1 7BS         0.0435
     50 H7         27.0794  -17.8946   59.8400 H         1 7BS         0.0453
     51 H8         26.3048  -15.0467   60.6337 H         1 7BS         0.0477
     52 H9         27.6581  -15.7949   58.0630 H         1 7BS         0.0748
     53 H10        25.1071  -16.0812   56.0118 H         1 7BS         0.0939
     54 H11        27.0799  -18.3736   56.5506 H         1 7BS         0.0671
     55 H12        27.5397  -15.8088   55.3684 H         1 7BS         0.2101
     56 H13        26.2853  -17.1254   53.8460 H         1 7BS         0.0650
     57 H14        29.4705  -18.8727   53.1616 H         1 7BS         0.0524
     58 H15        29.1834  -17.5661   54.3604 H         1 7BS         0.0524
     59 H16        28.4873  -17.4391   52.7093 H         1 7BS         0.0524
     60 H17        25.6026  -19.9356   54.9242 H         1 7BS         0.0647
     61 H18        25.5947  -19.5549   52.6146 H         1 7BS         0.2100
     62 H19        23.6674  -17.5687   54.7225 H         1 7BS         0.0647
     63 H20        22.6127  -19.7591   54.3679 H         1 7BS         0.0584
     64 H21        22.1433  -19.1352   55.9856 H         1 7BS         0.0584
     65 H22        22.8022  -21.3662   56.0400 H         1 7BS         0.2095
     66 H23        26.7066  -13.4290   58.9523 H         1 7BS         0.0564
     67 H24        25.2551  -13.9508   58.0317 H         1 7BS         0.0564
     68 H25        28.7753  -14.3850   55.1340 H         1 7BS         0.0753
     69 H26        30.7663  -13.4467   57.2804 H         1 7BS         0.0480
     70 H27        31.2877  -13.8857   55.6185 H         1 7BS         0.0480
     71 H28        30.2553  -16.2615   56.0947 H         1 7BS         0.0606
     72 H29        31.3870  -15.2324   58.7309 H         1 7BS         0.0402
     73 H30        30.8339  -18.1192   57.5668 H         1 7BS         0.0402
     74 H31        32.0941  -17.1602   60.1740 H         1 7BS         0.0606
     75 H32        32.8660  -19.6804   59.5340 H         1 7BS         0.0454
     76 H33        31.1348  -19.9015   59.1089 H         1 7BS         0.0454
     77 H34        32.1690  -19.0749   61.8894 H         1 7BS         0.0398
     78 H35        31.4832  -21.3718   62.6006 H         1 7BS         0.0248
     79 H36        32.7664  -21.4537   61.3462 H         1 7BS         0.0248
     80 H37        31.0557  -21.7768   60.9036 H         1 7BS         0.0248
     81 H38        29.3413  -19.8101   60.8507 H         1 7BS         0.0247
     82 H39        31.4294  -17.8468   63.2615 H         1 7BS         0.0376
     83 H40        30.0702  -17.9678   64.4296 H         1 7BS         0.0376
     84 H41        30.1485  -16.5877   63.2825 H         1 7BS         0.0376
     85 H42        28.7489  -11.4805   55.8319 H         1 7BS         0.0282
     86 H43        29.6960  -10.2663   52.5559 H         1 7BS         0.0375
     87 H44        29.8146   -9.7560   54.2740 H         1 7BS         0.0375
     88 H45        28.2247  -10.2305   53.5857 H         1 7BS         0.0375
     89 H46        31.1184  -12.0659   52.5801 H         1 7BS         0.0532
     90 H47        29.5142  -12.6546   52.0267 H         1 7BS         0.0532
     91 H48        30.0135  -14.8164   53.3892 H         1 7BS         0.0464
     92 H49        32.5579  -13.8307   52.0342 H         1 7BS         0.0456
     93 H50        33.4949  -15.9314   52.7285 H         1 7BS         0.0355
     94 H51        31.8296  -16.6046   52.7396 H         1 7BS         0.0355
     95 H52        32.4919  -15.8218   54.2145 H         1 7BS         0.0355
@<TRIPOS>BOND
     1    1    2 1  
     2    2    3 1  
     3    3    4 1  
     4    3   35 1  
     5    4    5 1  
     6    5    6 2  
     7    6    7 1  
     8    7    8 1  
     9    7   21 1  
    10    8    9 1  
    11    9   10 1  
    12    9   20 1  
    13   10   11 1  
    14   10   12 1  
    15   12   13 1  
    16   12   15 1  
    17   13   14 1  
    18   15   16 1  
    19   15   17 1  
    20   17   18 1  
    21   17   20 1  
    22   18   19 1  
    23   21   22 1  
    24   22   23 2  
    25   22   24 1  
    26   24   25 1  
    27   25   26 1  
    28   25   37 1  
    29   26   27 1  
    30   27   28 2  
    31   28   29 1  
    32   29   30 2  
    33   30   31 1  
    34   31   32 1  
    35   32   33 1  
    36   32   34 1  
    37   34   35 2  
    38   35   36 1  
    39   37   38 2  
    40   38   39 1  
    41   38   40 1  
    42   40   41 1  
    43   41   42 2  
    44   42   43 1  
    45    1   44 1  
    46    1   45 1  
    47    1   46 1  
    48    3   47 1  
    49    4   48 1  
    50    4   49 1  
    51    5   50 1  
    52    6   51 1  
    53    7   52 1  
    54    9   53 1  
    55   10   54 1  
    56   11   55 1  
    57   12   56 1  
    58   14   57 1  
    59   14   58 1  
    60   14   59 1  
    61   15   60 1  
    62   16   61 1  
    63   17   62 1  
    64   18   63 1  
    65   18   64 1  
    66   19   65 1  
    67   21   66 1  
    68   21   67 1  
    69   25   68 1  
    70   26   69 1  
    71   26   70 1  
    72   27   71 1  
    73   28   72 1  
    74   29   73 1  
    75   30   74 1  
    76   31   75 1  
    77   31   76 1  
    78   32   77 1  
    79   33   78 1  
    80   33   79 1  
    81   33   80 1  
    82   34   81 1  
    83   36   82 1  
    84   36   83 1  
    85   36   84 1  
    86   37   85 1  
    87   39   86 1  
    88   39   87 1  
    89   39   88 1  
    90   40   89 1  
    91   40   90 1  
    92   41   91 1  
    93   42   92 1  
    94   43   93 1  
    95   43   94 1  
    96   43   95 1  
@<TRIPOS>SUBSTRUCTURE
     1 7BS         1

