### 
### Created by X-TOOL on Mon Sep 10 21:13:29 2018
### 

@<TRIPOS>MOLECULE
4ycn_ligand
   71    71     1     0     0
SMALL
GAST_HUCK


@<TRIPOS>ATOM
      1 C7         32.4410  -15.7100   53.2880 C.3       1 7BL        -0.0481
      2 C6         31.8900  -14.4210   52.7540 C.2       1 7BL        -0.0996
      3 C5         30.6630  -14.0270   53.1140 C.2       1 7BL        -0.0894
      4 C2         30.1770  -12.6070   53.0090 C.3       1 7BL        -0.0126
      5 C1         29.5290  -11.8240   54.1430 C.2       1 7BL        -0.0735
      6 C3         29.2520  -10.3950   53.7150 C.3       1 7BL        -0.0390
      7 C4         29.0960  -12.2420   55.3550 C.2       1 7BL        -0.0716
      8 C8         29.0670  -13.6120   55.9930 C.3       1 7BL         0.1048
      9 C9         30.4450  -14.0560   56.5380 C.3       1 7BL         0.0067
     10 C10        30.4810  -15.5050   56.9660 C.2       1 7BL        -0.0832
     11 C11        31.0020  -15.9430   58.1230 C.2       1 7BL        -0.0903
     12 C12        31.1070  -17.3840   58.4510 C.2       1 7BL        -0.0904
     13 C13        31.6620  -17.8550   59.5740 C.2       1 7BL        -0.0858
     14 C14        31.7540  -19.3310   59.8990 C.3       1 7BL        -0.0219
     15 C15        31.4190  -19.6300   61.3820 C.3       1 7BL        -0.0282
     16 C16        29.9770  -19.2560   61.6360 C.2       1 7BL        -0.1014
     17 C17        29.4340  -18.4570   62.5710 C.2       1 7BL        -0.0536
     18 C18        30.2040  -17.6680   63.6200 C.3       1 7BL        -0.0378
     19 C20        27.9070  -18.3070   62.6460 C.3       1 7BL         0.0894
     20 C21        27.4630  -17.0000   61.9800 C.3       1 7BL        -0.0013
     21 C22        27.2160  -16.9850   60.5110 C.2       1 7BL        -0.0918
     22 C23        26.9070  -15.7870   60.0050 C.2       1 7BL        -0.0680
     23 C24        26.6010  -15.5910   58.5550 C.3       1 7BL         0.0906
     24 C27        26.2870  -14.0960   58.2680 C.3       1 7BL         0.0814
     25 C26        26.9620  -13.7480   56.9840 C.2       1 7BL         0.2397
     26 O25        28.2720  -13.5750   57.1820 O.3       1 7BL        -0.2655
     27 O28        26.3670  -13.5000   55.9520 O.2       1 7BL        -0.3700
     28 O29        25.5220  -16.4960   58.2110 O.3       1 7BL        -0.3804
     29 O67        27.4870  -18.0940   64.0040 O.3       1 7BL        -0.3670
     30 C68        27.4230  -19.2960   64.7620 C.3       1 7BL         0.0395
     31 C19        31.6250  -21.1270   61.7120 C.3       1 7BL        -0.0571
     32 H1         33.4531  -15.8699   52.8878 H         1 7BL         0.0355
     33 H2         31.7899  -16.5420   52.9816 H         1 7BL         0.0355
     34 H3         32.4842  -15.6634   54.3862 H         1 7BL         0.0355
     35 H4         32.4851  -13.8095   52.0773 H         1 7BL         0.0456
     36 H5         29.9771  -14.7769   53.5053 H         1 7BL         0.0464
     37 H6         29.4392  -12.6081   52.1931 H         1 7BL         0.0532
     38 H7         31.0553  -12.0169   52.7084 H         1 7BL         0.0532
     39 H8         28.7848   -9.8472   54.5466 H         1 7BL         0.0375
     40 H9         28.5730  -10.3965   52.8496 H         1 7BL         0.0375
     41 H10        30.1973   -9.9052   53.4386 H         1 7BL         0.0375
     42 H11        28.6963  -11.4481   55.9843 H         1 7BL         0.0282
     43 H12        28.6779  -14.3433   55.2693 H         1 7BL         0.0753
     44 H13        30.6951  -13.4293   57.4067 H         1 7BL         0.0480
     45 H14        31.1969  -13.9064   55.7492 H         1 7BL         0.0480
     46 H15        30.0551  -16.2444   56.2894 H         1 7BL         0.0606
     47 H16        31.3605  -15.2126   58.8468 H         1 7BL         0.0402
     48 H17        30.7090  -18.1025   57.7359 H         1 7BL         0.0402
     49 H18        32.0676  -17.1413   60.2896 H         1 7BL         0.0606
     50 H19        32.7778  -19.6755   59.6915 H         1 7BL         0.0454
     51 H20        31.0462  -19.8786   59.2594 H         1 7BL         0.0454
     52 H21        32.0743  -19.0275   62.0282 H         1 7BL         0.0398
     53 H22        29.2614  -19.7070   60.9502 H         1 7BL         0.0247
     54 H23        31.2828  -17.8373   63.4874 H         1 7BL         0.0376
     55 H24        29.9014  -18.0003   64.6240 H         1 7BL         0.0376
     56 H25        29.9845  -16.5961   63.5069 H         1 7BL         0.0376
     57 H26        27.4175  -19.1840   62.1974 H         1 7BL         0.0764
     58 H27        28.2447  -16.2532   62.1829 H         1 7BL         0.0435
     59 H28        26.5262  -16.6920   62.4674 H         1 7BL         0.0435
     60 H29        27.2821  -17.8815   59.8963 H         1 7BL         0.0453
     61 H30        26.8772  -14.9257   60.6708 H         1 7BL         0.0477
     62 H31        27.4850  -15.8674   57.9617 H         1 7BL         0.0744
     63 H32        26.6747  -13.4655   59.0817 H         1 7BL         0.0564
     64 H33        25.2008  -13.9489   58.1758 H         1 7BL         0.0564
     65 H34        24.7481  -16.2697   58.7134 H         1 7BL         0.2128
     66 H35        27.0970  -19.0661   65.7871 H         1 7BL         0.0526
     67 H36        28.4175  -19.7652   64.7901 H         1 7BL         0.0526
     68 H37        26.7049  -19.9862   64.2951 H         1 7BL         0.0526
     69 H38        31.3796  -21.3065   62.7691 H         1 7BL         0.0248
     70 H39        32.6738  -21.4023   61.5272 H         1 7BL         0.0248
     71 H40        30.9680  -21.7368   61.0744 H         1 7BL         0.0248
@<TRIPOS>BOND
     1    1    2 1  
     2    2    3 2  
     3    3    4 1  
     4    4    5 1  
     5    5    6 1  
     6    5    7 2  
     7    7    8 1  
     8    8    9 1  
     9    8   26 1  
    10    9   10 1  
    11   10   11 2  
    12   11   12 1  
    13   12   13 2  
    14   13   14 1  
    15   14   15 1  
    16   15   16 1  
    17   15   31 1  
    18   16   17 2  
    19   17   18 1  
    20   17   19 1  
    21   19   20 1  
    22   19   29 1  
    23   20   21 1  
    24   21   22 2  
    25   22   23 1  
    26   23   24 1  
    27   23   28 1  
    28   24   25 1  
    29   25   26 1  
    30   25   27 2  
    31   29   30 1  
    32    1   32 1  
    33    1   33 1  
    34    1   34 1  
    35    2   35 1  
    36    3   36 1  
    37    4   37 1  
    38    4   38 1  
    39    6   39 1  
    40    6   40 1  
    41    6   41 1  
    42    7   42 1  
    43    8   43 1  
    44    9   44 1  
    45    9   45 1  
    46   10   46 1  
    47   11   47 1  
    48   12   48 1  
    49   13   49 1  
    50   14   50 1  
    51   14   51 1  
    52   15   52 1  
    53   16   53 1  
    54   18   54 1  
    55   18   55 1  
    56   18   56 1  
    57   19   57 1  
    58   20   58 1  
    59   20   59 1  
    60   21   60 1  
    61   22   61 1  
    62   23   62 1  
    63   24   63 1  
    64   24   64 1  
    65   28   65 1  
    66   30   66 1  
    67   30   67 1  
    68   30   68 1  
    69   31   69 1  
    70   31   70 1  
    71   31   71 1  
@<TRIPOS>SUBSTRUCTURE
     1 7BL         1

