### 
### Created by X-TOOL on Mon Sep 10 21:13:24 2018
### 

@<TRIPOS>MOLECULE
4ycu_ligand
   41    43     1     0     0
SMALL
GAST_HUCK


@<TRIPOS>ATOM
      1 O4         12.0660    4.7950   26.1600 O.2       1 KRS        -0.3727
      2 C8         12.3790    3.6330   25.9600 C.2       1 KRS         0.2447
      3 C9         12.9240    2.7720   27.0560 C.ar      1 KRS         0.0804
      4 C5         13.1790    1.3500   26.7510 C.ar      1 KRS        -0.0346
      5 C4         13.6840    0.5300   27.7530 C.ar      1 KRS        -0.0364
      6 C3         13.9460    1.0340   29.0280 C.ar      1 KRS         0.0783
      7 O2         14.4400    0.1950   29.9810 O.3       1 KRS        -0.3340
      8 C2         13.7160    2.3720   29.3570 C.ar      1 KRS        -0.0057
      9 C1         13.2130    3.2690   28.4210 C.ar      1 KRS         0.0962
     10 O1         12.9930    4.5720   28.7510 O.3       1 KRS        -0.3317
     11 O3         12.2250    3.0570   24.6310 O.3       1 KRS        -0.2762
     12 C7         11.8340    1.6790   24.6570 C.3       1 KRS         0.0982
     13 C6         12.8900    0.8230   25.3610 C.3       1 KRS         0.0108
     14 C10        11.6400    1.1780   23.2310 C.3       1 KRS         0.0060
     15 C11        10.4830    1.9010   22.5500 C.3       1 KRS         0.0619
     16 O5          9.2350    1.4040   23.0370 O.3       1 KRS        -0.3735
     17 C12         9.0710    0.0030   22.8180 C.3       1 KRS         0.0563
     18 C16         7.7760   -0.4640   23.4720 C.3       1 KRS        -0.0387
     19 C13         9.0610   -0.2840   21.3220 C.3       1 KRS        -0.0268
     20 C14        10.3290    0.2430   20.6630 C.3       1 KRS        -0.0484
     21 C15        10.5690    1.7000   21.0410 C.3       1 KRS        -0.0264
     22 H1         13.8771   -0.5155   27.5414 H         1 KRS         0.0406
     23 H2         14.5667    0.6763   30.7902 H         1 KRS         0.2497
     24 H3         13.9338    2.7176   30.3611 H         1 KRS         0.0422
     25 H4         12.6509    5.0354   27.9955 H         1 KRS         0.2506
     26 H5         10.8831    1.5898   25.2027 H         1 KRS         0.0672
     27 H6         12.5219   -0.2107   25.4378 H         1 KRS         0.0466
     28 H7         13.8178    0.8390   24.7703 H         1 KRS         0.0466
     29 H8         11.4259    0.0993   23.2548 H         1 KRS         0.0320
     30 H9         12.5622    1.3563   22.6586 H         1 KRS         0.0320
     31 H10        10.5511    2.9759   22.7735 H         1 KRS         0.0597
     32 H11         9.9144   -0.5343   23.2763 H         1 KRS         0.0593
     33 H12         7.6488   -1.5436   23.3037 H         1 KRS         0.0254
     34 H13         6.9264    0.0783   23.0315 H         1 KRS         0.0254
     35 H14         7.8181   -0.2639   24.5528 H         1 KRS         0.0254
     36 H15         8.1875    0.2053   20.8665 H         1 KRS         0.0290
     37 H16         8.9968   -1.3706   21.1634 H         1 KRS         0.0290
     38 H17        10.2267    0.1659   19.5705 H         1 KRS         0.0267
     39 H18        11.1860   -0.3616   20.9946 H         1 KRS         0.0267
     40 H19        11.5695    1.9998   20.6958 H         1 KRS         0.0290
     41 H20         9.8091    2.3271   20.5519 H         1 KRS         0.0290
@<TRIPOS>BOND
     1    1    2 2  
     2    2    3 1  
     3    2   11 1  
     4    3    4 ar 
     5    3    9 ar 
     6    4    5 ar 
     7    4   13 1  
     8    5    6 ar 
     9    6    7 1  
    10    6    8 ar 
    11    8    9 ar 
    12    9   10 1  
    13   11   12 1  
    14   12   13 1  
    15   12   14 1  
    16   14   15 1  
    17   15   16 1  
    18   15   21 1  
    19   16   17 1  
    20   17   18 1  
    21   17   19 1  
    22   19   20 1  
    23   20   21 1  
    24    5   22 1  
    25    7   23 1  
    26    8   24 1  
    27   10   25 1  
    28   12   26 1  
    29   13   27 1  
    30   13   28 1  
    31   14   29 1  
    32   14   30 1  
    33   15   31 1  
    34   17   32 1  
    35   18   33 1  
    36   18   34 1  
    37   18   35 1  
    38   19   36 1  
    39   19   37 1  
    40   20   38 1  
    41   20   39 1  
    42   21   40 1  
    43   21   41 1  
@<TRIPOS>SUBSTRUCTURE
     1 KRS         1

