### 
### Created by X-TOOL on Mon Sep 10 21:13:25 2018
### 

@<TRIPOS>MOLECULE
4ycv_ligand
   41    43     1     0     0
SMALL
GAST_HUCK


@<TRIPOS>ATOM
      1 O4         16.0940  -10.6280   63.3360 O.2       1 KRS        -0.3727
      2 C8         15.6120  -11.7490   63.3340 C.2       1 KRS         0.2447
      3 C9         15.4970  -12.5810   64.5760 C.ar      1 KRS         0.0804
      4 C5         14.7030  -13.8240   64.5090 C.ar      1 KRS        -0.0346
      5 C4         14.5950  -14.6120   65.6480 C.ar      1 KRS        -0.0364
      6 C3         15.2200  -14.2440   66.8420 C.ar      1 KRS         0.0783
      7 O2         15.0910  -15.0410   67.9380 O.3       1 KRS        -0.3340
      8 C2         15.9800  -13.0820   66.9540 C.ar      1 KRS        -0.0057
      9 C1         16.1450  -12.2330   65.8660 C.ar      1 KRS         0.0962
     10 O1         16.8880  -11.0980   65.9790 O.3       1 KRS        -0.3317
     11 O3         15.1160  -12.3240   62.0960 O.3       1 KRS        -0.2762
     12 C7         13.8650  -12.9770   62.3150 C.3       1 KRS         0.0982
     13 C6         14.0340  -14.2080   63.2080 C.3       1 KRS         0.0108
     14 C10        13.3010  -13.3790   60.9590 C.3       1 KRS         0.0060
     15 C11        13.0940  -12.1100   60.1330 C.3       1 KRS         0.0619
     16 O5         11.9730  -11.3680   60.6330 O.3       1 KRS        -0.3735
     17 C12        10.7510  -12.1050   60.5820 C.3       1 KRS         0.0563
     18 C16         9.6480  -11.3210   61.2730 C.3       1 KRS        -0.0387
     19 C13        10.4000  -12.3310   59.1210 C.3       1 KRS        -0.0268
     20 C14        11.5150  -13.1400   58.4750 C.3       1 KRS        -0.0484
     21 C15        12.8620  -12.4520   58.6650 C.3       1 KRS        -0.0264
     22 H1         14.0161  -15.5277   65.6097 H         1 KRS         0.0406
     23 H2         15.4419  -15.9025   67.7448 H         1 KRS         0.2497
     24 H3         16.4481  -12.8371   67.9006 H         1 KRS         0.0422
     25 H4         16.8945  -10.6409   65.1462 H         1 KRS         0.2506
     26 H5         13.1722  -12.2772   62.8052 H         1 KRS         0.0672
     27 H6         13.0452  -14.6397   63.4219 H         1 KRS         0.0466
     28 H7         14.6541  -14.9522   62.6867 H         1 KRS         0.0466
     29 H8         12.3397  -13.8964   61.0940 H         1 KRS         0.0320
     30 H9         14.0078  -14.0468   60.4448 H         1 KRS         0.0320
     31 H10        13.9973  -11.4875   60.2132 H         1 KRS         0.0597
     32 H11        10.8795  -13.0741   61.0863 H         1 KRS         0.0593
     33 H12         8.7096  -11.8933   61.2306 H         1 KRS         0.0254
     34 H13         9.5115  -10.3548   60.7652 H         1 KRS         0.0254
     35 H14         9.9244  -11.1473   62.3234 H         1 KRS         0.0254
     36 H15        10.3004  -11.3623   58.6094 H         1 KRS         0.0290
     37 H16         9.4514  -12.8832   59.0486 H         1 KRS         0.0290
     38 H17        11.3103  -13.2414   57.3990 H         1 KRS         0.0267
     39 H18        11.5512  -14.1376   58.9370 H         1 KRS         0.0267
     40 H19        13.6618  -13.1241   58.3207 H         1 KRS         0.0290
     41 H20        12.8806  -11.5259   58.0718 H         1 KRS         0.0290
@<TRIPOS>BOND
     1    1    2 2  
     2    2    3 1  
     3    2   11 1  
     4    3    4 ar 
     5    3    9 ar 
     6    4    5 ar 
     7    4   13 1  
     8    5    6 ar 
     9    6    7 1  
    10    6    8 ar 
    11    8    9 ar 
    12    9   10 1  
    13   11   12 1  
    14   12   13 1  
    15   12   14 1  
    16   14   15 1  
    17   15   16 1  
    18   15   21 1  
    19   16   17 1  
    20   17   18 1  
    21   17   19 1  
    22   19   20 1  
    23   20   21 1  
    24    5   22 1  
    25    7   23 1  
    26    8   24 1  
    27   10   25 1  
    28   12   26 1  
    29   13   27 1  
    30   13   28 1  
    31   14   29 1  
    32   14   30 1  
    33   15   31 1  
    34   17   32 1  
    35   18   33 1  
    36   18   34 1  
    37   18   35 1  
    38   19   36 1  
    39   19   37 1  
    40   20   38 1  
    41   20   39 1  
    42   21   40 1  
    43   21   41 1  
@<TRIPOS>SUBSTRUCTURE
     1 KRS         1

