### 
### Created by X-TOOL on Mon Sep 10 21:13:25 2018
### 

@<TRIPOS>MOLECULE
4ycw_ligand
   41    43     1     0     0
SMALL
GAST_HUCK


@<TRIPOS>ATOM
      1 O4          6.1330    9.9590  -11.3690 O.2       1 KRS        -0.3727
      2 C8          6.7280    9.3570  -12.2470 C.2       1 KRS         0.2447
      3 C9          8.2020    9.1190  -12.1670 C.ar      1 KRS         0.0804
      4 C5          8.8730    8.4580  -13.3030 C.ar      1 KRS        -0.0346
      5 C4         10.2440    8.2370  -13.2430 C.ar      1 KRS        -0.0364
      6 C3         10.9820    8.6260  -12.1240 C.ar      1 KRS         0.0783
      7 O2         12.3230    8.3890  -12.1010 O.3       1 KRS        -0.3340
      8 C2         10.3860    9.2540  -11.0290 C.ar      1 KRS        -0.0057
      9 C1          9.0210    9.5200  -11.0010 C.ar      1 KRS         0.0962
     10 O1          8.4480   10.1330   -9.9280 O.3       1 KRS        -0.3317
     11 O3          6.0030    8.8740  -13.4130 O.3       1 KRS        -0.2762
     12 C7          6.6240    7.7350  -14.0180 C.3       1 KRS         0.0982
     13 C6          8.0430    8.0490  -14.4950 C.3       1 KRS         0.0108
     14 C10         5.7740    7.2720  -15.1970 C.3       1 KRS         0.0060
     15 C11         4.3780    6.8750  -14.7230 C.3       1 KRS         0.0619
     16 O5          4.4510    5.6970  -13.9140 O.3       1 KRS        -0.3735
     17 C12         4.9450    4.5540  -14.6150 C.3       1 KRS         0.0563
     18 C16         5.1120    3.3890  -13.6460 C.3       1 KRS        -0.0387
     19 C13         3.9890    4.1980  -15.7450 C.3       1 KRS        -0.0268
     20 C14         3.8570    5.3850  -16.6900 C.3       1 KRS        -0.0484
     21 C15         3.4580    6.6360  -15.9180 C.3       1 KRS        -0.0264
     22 H1         10.7460    7.7568  -14.0752 H         1 KRS         0.0406
     23 H2         12.7358    8.8408  -12.8277 H         1 KRS         0.2497
     24 H3         10.9999    9.5404  -10.1827 H         1 KRS         0.0422
     25 H4          7.5159   10.2328  -10.0822 H         1 KRS         0.2506
     26 H5          6.6766    6.9265  -13.2740 H         1 KRS         0.0672
     27 H6          8.4824    7.1560  -14.9635 H         1 KRS         0.0466
     28 H7          8.0147    8.8704  -15.2261 H         1 KRS         0.0466
     29 H8          6.2555    6.4049  -15.6726 H         1 KRS         0.0320
     30 H9          5.6898    8.0907  -15.9268 H         1 KRS         0.0320
     31 H10         3.9642    7.6950  -14.1178 H         1 KRS         0.0597
     32 H11         5.9272    4.7959  -15.0472 H         1 KRS         0.0593
     33 H12         5.4923    2.5116  -14.1896 H         1 KRS         0.0254
     34 H13         4.1394    3.1464  -13.1931 H         1 KRS         0.0254
     35 H14         5.8249    3.6683  -12.8562 H         1 KRS         0.0254
     36 H15         3.0022    3.9508  -15.3265 H         1 KRS         0.0290
     37 H16         4.3806    3.3312  -16.2974 H         1 KRS         0.0290
     38 H17         3.0877    5.1639  -17.4445 H         1 KRS         0.0267
     39 H18         4.8213    5.5596  -17.1897 H         1 KRS         0.0267
     40 H19         3.5140    7.5041  -16.5912 H         1 KRS         0.0290
     41 H20         2.4259    6.5184  -15.5563 H         1 KRS         0.0290
@<TRIPOS>BOND
     1    1    2 2  
     2    2    3 1  
     3    2   11 1  
     4    3    4 ar 
     5    3    9 ar 
     6    4    5 ar 
     7    4   13 1  
     8    5    6 ar 
     9    6    7 1  
    10    6    8 ar 
    11    8    9 ar 
    12    9   10 1  
    13   11   12 1  
    14   12   13 1  
    15   12   14 1  
    16   14   15 1  
    17   15   16 1  
    18   15   21 1  
    19   16   17 1  
    20   17   18 1  
    21   17   19 1  
    22   19   20 1  
    23   20   21 1  
    24    5   22 1  
    25    7   23 1  
    26    8   24 1  
    27   10   25 1  
    28   12   26 1  
    29   13   27 1  
    30   13   28 1  
    31   14   29 1  
    32   14   30 1  
    33   15   31 1  
    34   17   32 1  
    35   18   33 1  
    36   18   34 1  
    37   18   35 1  
    38   19   36 1  
    39   19   37 1  
    40   20   38 1  
    41   20   39 1  
    42   21   40 1  
    43   21   41 1  
@<TRIPOS>SUBSTRUCTURE
     1 KRS         1

