### 
### Created by X-TOOL on Mon Sep 10 21:13:30 2018
### 

@<TRIPOS>MOLECULE
4ydf_ligand
   75    79     1     0     0
SMALL
GAST_HUCK


@<TRIPOS>ATOM
      1 C1         59.3590   31.3390   25.2260 C.3       1 4B1         0.0639
      2 C2         57.8020   34.1830   25.1800 C.3       1 4B1         0.1076
      3 C3         58.0530   31.0170   25.4760 C.ar      1 4B1        -0.0244
      4 C4         59.2540   33.8920   24.9960 C.3       1 4B1         0.1076
      5 N1         58.1730   33.4280   23.0130 N.4       1 4B1         0.2298
      6 C5         57.1300   33.6860   23.9370 C.3       1 4B1        -0.0110
      7 C6         59.3730   34.0190   23.5320 C.3       1 4B1        -0.0110
      8 N2         57.4860   35.5630   25.6260 N.am      1 4B1        -0.2122
      9 N3         59.7730   32.6640   25.6600 N.am      1 4B1        -0.2122
     10 S1         60.7730   32.7070   26.6070 S.o2      1 4B1         0.0750
     11 C7         57.5330   31.0540   26.7210 C.ar      1 4B1        -0.0588
     12 C8         57.2750   30.6250   24.4510 C.ar      1 4B1        -0.0588
     13 C9         56.2380   30.7050   26.9360 C.ar      1 4B1        -0.0685
     14 C10        55.9750   30.3050   24.6960 C.ar      1 4B1        -0.0685
     15 C11        55.4270   30.3320   25.9310 C.ar      1 4B1        -0.0687
     16 C12        62.0370   32.9520   25.9370 C.ar      1 4B1         0.1138
     17 C13        62.5960   31.8840   25.3040 C.ar      1 4B1        -0.0270
     18 C14        62.6510   34.1740   25.9220 C.ar      1 4B1        -0.0270
     19 C15        63.7840   32.0750   24.6790 C.ar      1 4B1        -0.0170
     20 C16        63.8440   34.3270   25.2840 C.ar      1 4B1        -0.0170
     21 C17        64.4270   33.2760   24.6650 C.ar      1 4B1         0.1997
     22 N4         65.5510   33.4040   24.0210 N.2       1 4B1         0.3148
     23 O1         66.0630   32.3310   23.2720 O.2       1 4B1         0.1782
     24 O2         66.2080   34.6220   24.0230 O.2       1 4B1         0.1782
     25 C18        57.9180   36.6840   24.8320 C.3       1 4B1         0.0639
     26 S2         56.7100   35.7090   26.6680 S.o2      1 4B1         0.0750
     27 C19        59.2080   37.0470   24.9540 C.ar      1 4B1        -0.0244
     28 C20        59.8300   37.0230   26.1540 C.ar      1 4B1        -0.0588
     29 C21        59.8710   37.4950   23.8570 C.ar      1 4B1        -0.0588
     30 C22        61.1200   37.4340   26.3010 C.ar      1 4B1        -0.0685
     31 C23        61.1630   37.9070   23.9840 C.ar      1 4B1        -0.0685
     32 C24        61.7940   37.8770   25.2070 C.ar      1 4B1        -0.0687
     33 C25        55.2580   35.2290   26.3880 C.ar      1 4B1         0.1138
     34 C26        54.8920   34.0000   26.8390 C.ar      1 4B1        -0.0270
     35 C27        54.3210   35.9880   25.7170 C.ar      1 4B1        -0.0270
     36 C28        53.6290   33.5440   26.6350 C.ar      1 4B1        -0.0170
     37 C29        53.0570   35.5130   25.4820 C.ar      1 4B1        -0.0170
     38 C30        52.7120   34.2740   25.9300 C.ar      1 4B1         0.1997
     39 O3         57.2770   34.9020   27.7310 O.2       1 4B1        -0.1493
     40 O4         56.6150   37.0900   27.1920 O.2       1 4B1        -0.1493
     41 O5         60.5660   33.7550   27.5920 O.2       1 4B1        -0.1493
     42 O6         60.9510   31.4720   27.4080 O.2       1 4B1        -0.1493
     43 N5         51.5210   33.7720   25.7260 N.2       1 4B1         0.3148
     44 O7         50.6270   34.4580   24.9580 O.2       1 4B1         0.1782
     45 O8         51.1130   32.5970   26.3840 O.2       1 4B1         0.1782
     46 H1         59.5224   31.2720   24.1403 H         1 4B1         0.0641
     47 H2         59.9937   30.6012   25.7386 H         1 4B1         0.0641
     48 H3         57.4499   33.5404   26.0004 H         1 4B1         0.0590
     49 H4         59.8275   34.7147   25.4480 H         1 4B1         0.0590
     50 H5         57.9483   33.8362   22.1192 H         1 4B1         0.2015
     51 H6         58.2987   32.4336   22.9063 H         1 4B1         0.2015
     52 H7         56.4459   34.4501   23.5393 H         1 4B1         0.0833
     53 H8         56.5677   32.7643   24.1475 H         1 4B1         0.0833
     54 H9         60.2595   33.4795   23.1672 H         1 4B1         0.0833
     55 H10        59.4415   35.0771   23.2393 H         1 4B1         0.0833
     56 H11        58.1527   31.3642   27.5545 H         1 4B1         0.0557
     57 H12        57.6770   30.5649   23.4461 H         1 4B1         0.0557
     58 H13        55.8474   30.7279   27.9469 H         1 4B1         0.0599
     59 H14        55.3489   30.0144   23.8601 H         1 4B1         0.0599
     60 H15        54.3898   30.0673   26.1019 H         1 4B1         0.0559
     61 H16        62.1087   30.9157   25.2999 H         1 4B1         0.0652
     62 H17        62.1883   35.0198   26.4175 H         1 4B1         0.0652
     63 H18        64.2420   31.2357   24.1683 H         1 4B1         0.0693
     64 H19        64.3288   35.2965   25.2723 H         1 4B1         0.0693
     65 H20        57.2998   37.5496   25.1123 H         1 4B1         0.0641
     66 H21        57.7404   36.4332   23.7758 H         1 4B1         0.0641
     67 H22        59.2875   36.6671   27.0224 H         1 4B1         0.0557
     68 H23        59.3781   37.5244   22.8920 H         1 4B1         0.0557
     69 H24        61.6003   37.4083   27.2724 H         1 4B1         0.0599
     70 H25        61.7003   38.2625   23.1122 H         1 4B1         0.0599
     71 H26        62.8232   38.2050   25.2971 H         1 4B1         0.0559
     72 H27        55.6111   33.3813   27.3636 H         1 4B1         0.0652
     73 H28        54.5898   36.9789   25.3691 H         1 4B1         0.0652
     74 H29        53.3414   32.5804   27.0398 H         1 4B1         0.0693
     75 H30        52.3373   36.1190   24.9436 H         1 4B1         0.0693
@<TRIPOS>BOND
     1    1    3 1  
     2    9    1 1  
     3    4    2 1  
     4    2    6 1  
     5    2    8 1  
     6    3   11 ar 
     7    3   12 ar 
     8    4    7 1  
     9    4    9 1  
    10    6    5 1  
    11    5    7 1  
    12    8   25 1  
    13    8   26 am 
    14    9   10 am 
    15   10   16 1  
    16   10   41 2  
    17   10   42 2  
    18   11   13 ar 
    19   12   14 ar 
    20   13   15 ar 
    21   14   15 ar 
    22   16   17 ar 
    23   16   18 ar 
    24   17   19 ar 
    25   18   20 ar 
    26   19   21 ar 
    27   20   21 ar 
    28   21   22 1  
    29   22   23 2  
    30   22   24 2  
    31   25   27 1  
    32   26   33 1  
    33   26   39 2  
    34   26   40 2  
    35   27   28 ar 
    36   27   29 ar 
    37   28   30 ar 
    38   29   31 ar 
    39   30   32 ar 
    40   31   32 ar 
    41   33   34 ar 
    42   33   35 ar 
    43   34   36 ar 
    44   35   37 ar 
    45   36   38 ar 
    46   37   38 ar 
    47   38   43 1  
    48   43   44 2  
    49   43   45 2  
    50    1   46 1  
    51    1   47 1  
    52    2   48 1  
    53    4   49 1  
    54    5   50 1  
    55    5   51 1  
    56    6   52 1  
    57    6   53 1  
    58    7   54 1  
    59    7   55 1  
    60   11   56 1  
    61   12   57 1  
    62   13   58 1  
    63   14   59 1  
    64   15   60 1  
    65   17   61 1  
    66   18   62 1  
    67   19   63 1  
    68   20   64 1  
    69   25   65 1  
    70   25   66 1  
    71   28   67 1  
    72   29   68 1  
    73   30   69 1  
    74   31   70 1  
    75   32   71 1  
    76   34   72 1  
    77   35   73 1  
    78   36   74 1  
    79   37   75 1  
@<TRIPOS>SUBSTRUCTURE
     1 4B1         1

