### 
### Created by X-TOOL on Mon Sep 10 21:13:30 2018
### 

@<TRIPOS>MOLECULE
4ydg_ligand
   75    79     1     0     0
SMALL
GAST_HUCK


@<TRIPOS>ATOM
      1 C2          2.7790   71.5850  186.4760 C.ar      1 G3G        -0.0429
      2 C6          3.9230   71.7740  185.7080 C.ar      1 G3G         0.0353
      3 C5          4.6080   70.6750  185.2040 C.ar      1 G3G        -0.0429
      4 C20         4.1490   69.3880  185.4650 C.ar      1 G3G        -0.0471
      5 C27         3.0000   69.1980  186.2270 C.ar      1 G3G         0.0951
      6 C18         2.3220   70.2980  186.7390 C.ar      1 G3G        -0.0471
      7 S9          2.4760   67.7210  186.5390 S.o2      1 G3G         0.0669
      8 O40         3.5880   66.9600  187.0290 O.2       1 G3G        -0.1516
      9 O11         1.4560   67.7810  187.5470 O.2       1 G3G        -0.1516
     10 N32         1.9100   67.0640  185.2810 N.am      1 G3G        -0.2141
     11 C33         2.6750   66.0830  184.5090 C.3       1 G3G         0.0637
     12 C34         2.4500   64.6440  184.9390 C.ar      1 G3G        -0.0244
     13 C38         2.6060   64.2640  186.2670 C.ar      1 G3G        -0.0588
     14 C39         2.3930   62.9460  186.6510 C.ar      1 G3G        -0.0685
     15 C37         2.0150   62.0010  185.7060 C.ar      1 G3G        -0.0687
     16 C36         1.8530   62.3760  184.3770 C.ar      1 G3G        -0.0685
     17 C35         2.0670   63.6960  183.9960 C.ar      1 G3G        -0.0588
     18 C24         0.5810   67.4280  184.7760 C.3       1 G3G         0.1074
     19 C25         0.7650   67.8730  183.3280 C.3       1 G3G        -0.0110
     20 N22         0.0920   66.8600  182.5390 N.4       1 G3G         0.2298
     21 C21        -0.7630   65.9770  183.3070 C.3       1 G3G        -0.0110
     22 C23        -0.3400   66.2030  184.7550 C.3       1 G3G         0.1074
     23 N28        -1.5700   66.4520  185.5130 N.am      1 G3G        -0.2141
     24 C7         -2.4130   67.5680  185.0770 C.3       1 G3G         0.0637
     25 C12        -2.1350   68.8830  185.7840 C.ar      1 G3G        -0.0244
     26 C14        -1.7470   69.9950  185.0430 C.ar      1 G3G        -0.0588
     27 C30        -1.4900   71.2060  185.6760 C.ar      1 G3G        -0.0685
     28 C31        -1.6280   71.3120  187.0550 C.ar      1 G3G        -0.0687
     29 C29        -2.0210   70.2050  187.7980 C.ar      1 G3G        -0.0685
     30 C13        -2.2770   68.9970  187.1620 C.ar      1 G3G        -0.0588
     31 S8         -1.9610   65.5320  186.6670 S.o2      1 G3G         0.0669
     32 C26        -2.5090   64.1390  186.1110 C.ar      1 G3G         0.0951
     33 C17        -3.8650   63.9850  185.8460 C.ar      1 G3G        -0.0471
     34 C1         -4.3510   62.7730  185.3670 C.ar      1 G3G        -0.0429
     35 C4         -3.4800   61.7110  185.1570 C.ar      1 G3G         0.0353
     36 C3         -2.1250   61.8610  185.4250 C.ar      1 G3G        -0.0429
     37 C19        -1.6390   63.0730  185.9050 C.ar      1 G3G        -0.0471
     38 O41        -0.8100   65.2840  187.4890 O.2       1 G3G        -0.1516
     39 O10        -2.9950   66.1250  187.4660 O.2       1 G3G        -0.1516
     40 N42        -3.9530   60.5300  184.6900 N.pl3     1 G3G        -0.3369
     41 N43         4.3690   73.0290  185.4530 N.pl3     1 G3G        -0.3369
     42 H1          2.2433   72.4412  186.8698 H         1 G3G         0.0515
     43 H2          5.5009   70.8207  184.6069 H         1 G3G         0.0515
     44 H3          4.6870   68.5319  185.0743 H         1 G3G         0.0602
     45 H4          1.4349   70.1525  187.3448 H         1 G3G         0.0602
     46 H5          3.7447   66.3137  184.6207 H         1 G3G         0.0641
     47 H6          2.3883   66.1763  183.4511 H         1 G3G         0.0641
     48 H7          2.8957   65.0007  187.0076 H         1 G3G         0.0557
     49 H8          2.5217   62.6554  187.6874 H         1 G3G         0.0599
     50 H9          1.8465   60.9725  186.0042 H         1 G3G         0.0559
     51 H10         1.5599   61.6393  183.6378 H         1 G3G         0.0599
     52 H11         1.9349   63.9873  182.9603 H         1 G3G         0.0557
     53 H12         0.1419   68.2301  185.3873 H         1 G3G         0.0590
     54 H13         1.8333   67.9185  183.0697 H         1 G3G         0.0833
     55 H14         0.3059   68.8592  183.1647 H         1 G3G         0.0833
     56 H15         0.7931   66.3000  182.0798 H         1 G3G         0.2015
     57 H16        -0.4743   67.3240  181.8461 H         1 G3G         0.2015
     58 H17        -0.6033   64.9288  183.0141 H         1 G3G         0.0833
     59 H18        -1.8216   66.2401  183.1653 H         1 G3G         0.0833
     60 H19         0.1865   65.3247  185.1568 H         1 G3G         0.0590
     61 H20        -3.4633   67.2961  185.2584 H         1 G3G         0.0641
     62 H21        -2.2539   67.7176  183.9989 H         1 G3G         0.0641
     63 H22        -1.6446   69.9168  183.9667 H         1 G3G         0.0557
     64 H23        -1.1821   72.0672  185.0942 H         1 G3G         0.0599
     65 H24        -1.4296   72.2558  187.5499 H         1 G3G         0.0559
     66 H25        -2.1277   70.2844  188.8738 H         1 G3G         0.0599
     67 H26        -2.5895   68.1376  187.7441 H         1 G3G         0.0557
     68 H27        -4.5456   64.8120  186.0132 H         1 G3G         0.0602
     69 H28        -5.4083   62.6571  185.1577 H         1 G3G         0.0515
     70 H29        -1.4456   61.0326  185.2599 H         1 G3G         0.0515
     71 H30        -0.5823   63.1868  186.1185 H         1 G3G         0.0602
     72 H31        -4.9577   60.4199  184.4916 H         1 G3G         0.1719
     73 H32        -3.3078   59.7425  184.5334 H         1 G3G         0.1719
     74 H33         3.8600   73.8424  185.8274 H         1 G3G         0.1719
     75 H34         5.2167   73.1688  184.8849 H         1 G3G         0.1719
@<TRIPOS>BOND
     1    1    2 ar 
     2    1    6 ar 
     3    2    3 ar 
     4    2   41 1  
     5    3    4 ar 
     6    4    5 ar 
     7    5    6 ar 
     8    5    7 1  
     9    7    8 2  
    10    7    9 2  
    11    7   10 am 
    12   10   11 1  
    13   10   18 1  
    14   11   12 1  
    15   12   13 ar 
    16   12   17 ar 
    17   13   14 ar 
    18   14   15 ar 
    19   15   16 ar 
    20   16   17 ar 
    21   18   19 1  
    22   18   22 1  
    23   19   20 1  
    24   20   21 1  
    25   21   22 1  
    26   22   23 1  
    27   23   24 1  
    28   23   31 am 
    29   24   25 1  
    30   25   26 ar 
    31   25   30 ar 
    32   26   27 ar 
    33   27   28 ar 
    34   28   29 ar 
    35   29   30 ar 
    36   31   32 1  
    37   31   38 2  
    38   31   39 2  
    39   32   33 ar 
    40   32   37 ar 
    41   33   34 ar 
    42   34   35 ar 
    43   35   36 ar 
    44   35   40 1  
    45   36   37 ar 
    46    1   42 1  
    47    3   43 1  
    48    4   44 1  
    49    6   45 1  
    50   11   46 1  
    51   11   47 1  
    52   13   48 1  
    53   14   49 1  
    54   15   50 1  
    55   16   51 1  
    56   17   52 1  
    57   18   53 1  
    58   19   54 1  
    59   19   55 1  
    60   20   56 1  
    61   20   57 1  
    62   21   58 1  
    63   21   59 1  
    64   22   60 1  
    65   24   61 1  
    66   24   62 1  
    67   26   63 1  
    68   27   64 1  
    69   28   65 1  
    70   29   66 1  
    71   30   67 1  
    72   33   68 1  
    73   34   69 1  
    74   36   70 1  
    75   37   71 1  
    76   40   72 1  
    77   40   73 1  
    78   41   74 1  
    79   41   75 1  
@<TRIPOS>SUBSTRUCTURE
     1 G3G         1

