### 
### Created by X-TOOL on Mon Sep 10 21:13:21 2018
### 

@<TRIPOS>MOLECULE
4ydn_ligand
   32    34     1     0     0
SMALL
GAST_HUCK


@<TRIPOS>ATOM
      1 O1         -0.1280    0.1830  -11.9540 O.3       1 2WN        -0.3278
      2 C2          0.0000    0.0000  -10.6000 C.ar      1 2WN         0.1217
      3 C3         -0.3840    1.1880   -9.8270 C.ar      1 2WN         0.0739
      4 C4         -0.3030    1.0960   -8.4450 C.ar      1 2WN        -0.0378
      5 C5          0.0000    0.0000   -7.8650 C.ar      1 2WN         0.0357
      6 C6          0.4460   -1.1970   -8.6570 C.ar      1 2WN        -0.0378
      7 C7          0.3690   -1.1120  -10.0360 C.ar      1 2WN         0.0739
      8 CL8         0.7890   -2.4720  -10.9870 Cl        1 2WN        -0.0773
      9 CL9        -0.8940    2.6590  -10.5590 Cl        1 2WN        -0.0773
     10 C10         0.2000   -0.2140   -6.5410 C.2       1 2WN         0.2122
     11 O11        -0.4850    0.4990   -5.6730 O.3       1 2WN        -0.1980
     12 C12         0.0000    0.0000   -4.5360 C.2       1 2WN         0.2121
     13 N13         0.8580   -0.9160   -4.7310 N.2       1 2WN        -0.2398
     14 N14         1.0080   -1.0610   -5.9060 N.2       1 2WN        -0.2398
     15 C15        -0.4750    0.4510   -3.3510 C.ar      1 2WN         0.0345
     16 C16        -0.9510    1.7440   -3.2040 C.ar      1 2WN        -0.0520
     17 C17        -1.3970    2.1830   -1.9660 C.ar      1 2WN        -0.0248
     18 C18        -1.3660    1.3240   -0.8720 C.ar      1 2WN         0.1312
     19 C19        -0.8900    0.0260   -1.0240 C.ar      1 2WN        -0.0248
     20 C20        -0.4450   -0.4130   -2.2630 C.ar      1 2WN        -0.0520
     21 O21        -1.7990    1.7500    0.3450 O.3       1 2WN        -0.1396
     22 S22        -0.6120    1.7540    1.3100 S.o2      1 2WN         0.2678
     23 O23         0.6200    2.2710    0.5640 O.2       1 2WN        -0.1094
     24 O25        -0.3480    0.3300    1.8040 O.2       1 2WN        -0.1094
     25 F26        -0.8740    2.5440    2.3530 F         1 2WN        -0.0329
     26 H1          0.4288    0.9017  -12.2293 H         1 2WN         0.2511
     27 H2         -0.5017    1.9757   -7.8435 H         1 2WN         0.0640
     28 H3          0.8135   -2.0915   -8.1673 H         1 2WN         0.0640
     29 H4         -0.9749    2.4128   -4.0568 H         1 2WN         0.0632
     30 H5         -1.7694    3.1945   -1.8510 H         1 2WN         0.0558
     31 H6         -0.8666   -0.6444   -0.1725 H         1 2WN         0.0558
     32 H7         -0.0757   -1.4252   -2.3816 H         1 2WN         0.0632
@<TRIPOS>BOND
     1    1    2 1  
     2    2    3 ar 
     3    2    7 ar 
     4    3    4 ar 
     5    3    9 1  
     6    4    5 ar 
     7    5    6 ar 
     8    5   10 1  
     9    6    7 ar 
    10    7    8 1  
    11   10   11 1  
    12   10   14 2  
    13   11   12 1  
    14   12   13 2  
    15   12   15 1  
    16   13   14 1  
    17   15   16 ar 
    18   15   20 ar 
    19   16   17 ar 
    20   17   18 ar 
    21   18   19 ar 
    22   18   21 1  
    23   19   20 ar 
    24   21   22 1  
    25   22   23 2  
    26   22   24 2  
    27   22   25 1  
    28    1   26 1  
    29    4   27 1  
    30    6   28 1  
    31   16   29 1  
    32   17   30 1  
    33   19   31 1  
    34   20   32 1  
@<TRIPOS>SUBSTRUCTURE
     1 2WN         1

