### 
### Created by X-TOOL on Mon Sep 10 21:13:23 2018
### 

@<TRIPOS>MOLECULE
4ydq_ligand
   42    44     1     0     0
SMALL
GAST_HUCK


@<TRIPOS>ATOM
      1 O4'       179.1800    9.7600   31.0350 O.2       1 HFG        -0.3883
      2 C21       178.5260   10.7990   31.4530 C.2       1 HFG         0.1424
      3 C3'       177.0830   11.0780   31.0040 C.3       1 HFG         0.0693
      4 C2'       176.3140    9.8310   30.5370 C.3       1 HFG         0.0198
      5 N1'       176.9300    9.2480   29.3330 N.4       1 HFG         0.2327
      6 C6'       176.1080    8.1050   28.7960 C.3       1 HFG        -0.0331
      7 C5'       175.6970    7.0840   29.8450 C.3       1 HFG        -0.0100
      8 C4'       175.1980    7.7080   31.0790 C.3       1 HFG        -0.0166
      9 C39       176.1480    8.7980   31.6030 C.3       1 HFG         0.1000
     10 O7'       175.5980    9.3790   32.7730 O.3       1 HFG        -0.3860
     11 C1'       179.1640   11.8130   32.4120 C.3       1 HFG         0.1436
     12 N3        180.5650   11.6350   32.3650 N.am      1 HFG        -0.1656
     13 C4        181.3270   12.1480   31.2530 C.2       1 HFG         0.2448
     14 O11       180.7490   12.7450   30.3530 O.2       1 HFG        -0.3834
     15 C10       182.7740   11.9580   31.2140 C.ar      1 HFG         0.0678
     16 C5        183.5500   12.4690   30.1100 C.ar      1 HFG        -0.0317
     17 C2        181.2080   10.9270   33.3940 C.2       1 HFG         0.1326
     18 N1        182.5900   10.7240   33.3480 N.2       1 HFG        -0.2945
     19 C9        183.3950   11.2790   32.2060 C.ar      1 HFG         0.0272
     20 C8        184.7410   11.0790   32.1900 C.ar      1 HFG        -0.0396
     21 C7        185.5100   11.5820   31.1140 C.ar      1 HFG         0.0245
     22 BR1       187.4090   11.2210   31.1760 Br        1 HFG        -0.0476
     23 C6        184.8840   12.2820   30.0950 C.ar      1 HFG         0.0478
     24 CL1       185.9260   12.9170   28.7790 Cl        1 HFG        -0.0733
     25 H1        177.1139   11.7958   30.1710 H         1 HFG         0.0552
     26 H2        176.5384   11.5218   31.8504 H         1 HFG         0.0552
     27 H3        175.3041   10.1664   30.2585 H         1 HFG         0.0903
     28 H4        177.8503    8.9093   29.5662 H         1 HFG         0.2019
     29 H5        177.0039    9.9607   28.6240 H         1 HFG         0.2019
     30 H6        176.6983    7.5883   28.0249 H         1 HFG         0.0814
     31 H7        175.1956    8.5197   28.3427 H         1 HFG         0.0814
     32 H8        176.5705    6.4631   30.0930 H         1 HFG         0.0318
     33 H9        174.9027    6.4489   29.4258 H         1 HFG         0.0318
     34 H10       175.0901    6.9313   31.8504 H         1 HFG         0.0294
     35 H11       174.2167    8.1613   30.8752 H         1 HFG         0.0294
     36 H12       177.1262    8.3550   31.8416 H         1 HFG         0.0652
     37 H13       174.7545    9.7646   32.5673 H         1 HFG         0.2100
     38 H14       178.7996   11.6397   33.4353 H         1 HFG         0.0870
     39 H15       178.9068   12.8358   32.0994 H         1 HFG         0.0870
     40 H16       183.0634   12.9991   29.2992 H         1 HFG         0.0660
     41 H17       180.6286   10.5357   34.2289 H         1 HFG         0.1524
     42 H18       185.2213   10.5375   32.9969 H         1 HFG         0.0602
@<TRIPOS>BOND
     1    1    2 2  
     2    2    3 1  
     3    2   11 1  
     4    3    4 1  
     5    4    5 1  
     6    4    9 1  
     7    5    6 1  
     8    6    7 1  
     9    7    8 1  
    10    8    9 1  
    11    9   10 1  
    12   11   12 1  
    13   12   13 am 
    14   12   17 1  
    15   13   14 2  
    16   13   15 1  
    17   15   16 ar 
    18   15   19 ar 
    19   16   23 ar 
    20   17   18 2  
    21   18   19 1  
    22   19   20 ar 
    23   20   21 ar 
    24   21   22 1  
    25   21   23 ar 
    26   23   24 1  
    27    3   25 1  
    28    3   26 1  
    29    4   27 1  
    30    5   28 1  
    31    5   29 1  
    32    6   30 1  
    33    6   31 1  
    34    7   32 1  
    35    7   33 1  
    36    8   34 1  
    37    8   35 1  
    38    9   36 1  
    39   10   37 1  
    40   11   38 1  
    41   11   39 1  
    42   16   40 1  
    43   17   41 1  
    44   20   42 1  
@<TRIPOS>SUBSTRUCTURE
     1 HFG         1

