### 
### Created by X-TOOL on Sun Nov 13 14:29:27 2016
### 

@<TRIPOS>MOLECULE
4ye3_ligand
   81    84     1     0     0
SMALL
GAST_HUCK


@<TRIPOS>ATOM
      1 C2         -9.3750  -14.8420   -8.2680 C.ar      1 G04         0.0908
      2 C3         -8.8310  -15.9310   -7.6360 C.ar      1 G04        -0.0313
      3 C4         -8.3740  -15.8280   -6.3320 C.ar      1 G04        -0.0440
      4 C5         -8.5040  -14.5990   -5.6510 C.ar      1 G04         0.0971
      5 C6         -9.0800  -13.5160   -6.2980 C.ar      1 G04        -0.0440
      6 C7         -9.5340  -13.6230   -7.6120 C.ar      1 G04        -0.0313
      7 S8         -8.1420  -14.5310   -4.0200 S.o2      1 G04         0.0657
      8 O9         -7.0100  -15.3970   -3.8170 O.2       1 G04        -0.1515
      9 O10        -7.9830  -13.1590   -3.6840 O.2       1 G04        -0.1515
     10 N11        -9.3740  -15.1130   -3.2640 N.am      1 G04        -0.2325
     11 C12       -10.6020  -14.2630   -3.3230 C.3       1 G04         0.0319
     12 C13       -11.5250  -14.2850   -2.1110 C.3       1 G04        -0.0296
     13 C14       -10.8590  -13.5230   -0.9320 C.3       1 G04        -0.0612
     14 C15       -12.8730  -13.6680   -2.4280 C.3       1 G04        -0.0612
     15 C16        -9.3920  -16.5330   -2.9030 C.3       1 G04         0.0578
     16 C17        -9.2670  -16.8690   -1.4300 C.3       1 G04         0.0967
     17 O18        -9.5920  -18.2790   -1.2490 O.3       1 G04        -0.3877
     18 C19        -7.8360  -16.6140   -0.9170 C.3       1 G04         0.0807
     19 N20        -7.7110  -16.7240    0.5880 N.am      1 G04        -0.2550
     20 C21        -7.7640  -15.5650    1.3660 C.2       1 G04         0.3203
     21 O22        -8.4560  -14.4220    1.1210 O.2       1 G04        -0.3775
     22 O23        -7.6120  -16.1240    2.7030 O.3       1 G04        -0.2578
     23 C24        -7.4130  -15.1780    3.7500 C.3       1 G04         0.1213
     24 C25        -8.4760  -15.3760    4.8180 C.3       1 G04         0.0816
     25 O26        -8.1010  -16.5590    5.4770 O.3       1 G04        -0.3479
     26 C27        -6.6840  -16.6050    5.5290 C.3       1 G04         0.1673
     27 O28        -6.2390  -17.8620    5.0070 O.3       1 G04        -0.3483
     28 C29        -5.4410  -17.7190    3.7930 C.3       1 G04         0.0773
     29 C30        -5.0510  -16.2560    3.8070 C.3       1 G04         0.0919
     30 C31        -6.1680  -15.5440    4.5610 C.3       1 G04         0.0710
     31 C32        -6.8070  -17.6360   -1.3920 C.3       1 G04         0.0064
     32 C33        -4.8810  -18.2130    0.1150 C.ar      1 G04        -0.0603
     33 C34        -3.6430  -17.8960    0.6870 C.ar      1 G04        -0.0686
     34 C35        -2.9380  -16.7290    0.3550 C.ar      1 G04        -0.0687
     35 C36        -3.5100  -15.8490   -0.5690 C.ar      1 G04        -0.0686
     36 C37        -4.7540  -16.1130   -1.1210 C.ar      1 G04        -0.0603
     37 C38        -5.4280  -17.3040   -0.8100 C.ar      1 G04        -0.0408
     38 O39        -9.7870  -14.9990   -9.5710 O.3       1 G04        -0.3212
     39 C40       -10.4840  -13.9170  -10.1650 C.3       1 G04         0.0594
     40 O41        -3.9120  -16.1370    4.6020 O.3       1 G04        -0.3770
     41 C42        -2.8690  -15.7380    3.7710 C.3       1 G04         0.0369
     42 H1         -8.7582  -16.8774   -8.1595 H         1 G04         0.0542
     43 H2         -7.9218  -16.6818   -5.8406 H         1 G04         0.0608
     44 H3         -9.1788  -12.5721   -5.7743 H         1 G04         0.0608
     45 H4         -9.9986  -12.7798   -8.1103 H         1 G04         0.0542
     46 H5        -11.1902  -14.5918   -4.1924 H         1 G04         0.0480
     47 H6        -10.2772  -13.2227   -3.4722 H         1 G04         0.0480
     48 H7        -11.6832  -15.3317   -1.8122 H         1 G04         0.0311
     49 H8        -11.5282  -13.5411   -0.0591 H         1 G04         0.0233
     50 H9        -10.6713  -12.4805   -1.2285 H         1 G04         0.0233
     51 H10        -9.9061  -14.0080   -0.6736 H         1 G04         0.0233
     52 H11       -13.3381  -14.2124   -3.2631 H         1 G04         0.0233
     53 H12       -12.7366  -12.6132   -2.7086 H         1 G04         0.0233
     54 H13       -13.5224  -13.7308   -1.5424 H         1 G04         0.0233
     55 H14        -8.5558  -17.0194   -3.4266 H         1 G04         0.0504
     56 H15       -10.3432  -16.9544   -3.2601 H         1 G04         0.0504
     57 H16        -9.9715  -16.2494   -0.8558 H         1 G04         0.0634
     58 H17        -8.9885  -18.8095   -1.7559 H         1 G04         0.2100
     59 H18        -7.5398  -15.6071   -1.2463 H         1 G04         0.0604
     60 H19        -7.5917  -17.6176    1.0208 H         1 G04         0.1873
     61 H20        -7.3824  -14.1519    3.3548 H         1 G04         0.0676
     62 H21        -9.4704  -15.4850    4.3606 H         1 G04         0.0590
     63 H22        -8.4855  -14.5278    5.5183 H         1 G04         0.0590
     64 H23        -6.3163  -16.4405    6.5526 H         1 G04         0.0914
     65 H24        -6.0353  -17.9604    2.8994 H         1 G04         0.0587
     66 H25        -4.5513  -18.3649    3.8272 H         1 G04         0.0587
     67 H26        -4.8979  -15.8527    2.7951 H         1 G04         0.0624
     68 H27        -5.7720  -14.6542    5.0722 H         1 G04         0.0405
     69 H28        -6.7531  -17.6146   -2.4905 H         1 G04         0.0449
     70 H29        -7.1104  -18.6396   -1.0592 H         1 G04         0.0449
     71 H30        -5.4008  -19.1278    0.3758 H         1 G04         0.0557
     72 H31        -3.2134  -18.5769    1.4128 H         1 G04         0.0599
     73 H32        -1.9745  -16.5151    0.8034 H         1 G04         0.0559
     74 H33        -2.9752  -14.9511   -0.8567 H         1 G04         0.0599
     75 H34        -5.2081  -15.3964   -1.7958 H         1 G04         0.0557
     76 H35       -10.7514  -14.1771  -11.1998 H         1 G04         0.0577
     77 H36        -9.8423  -13.0236  -10.1657 H         1 G04         0.0577
     78 H37       -11.3991  -13.7108   -9.5906 H         1 G04         0.0577
     79 H38        -1.9481  -15.6324    4.3633 H         1 G04         0.0524
     80 H39        -3.1189  -14.7727    3.3066 H         1 G04         0.0524
     81 H40        -2.7156  -16.4936    2.9864 H         1 G04         0.0524
@<TRIPOS>BOND
     1    2    1 ar 
     2    6    1 ar 
     3    1   38 1  
     4    3    2 ar 
     5    4    3 ar 
     6    4    5 ar 
     7    7    4 1  
     8    5    6 ar 
     9    7    8 2  
    10    7    9 2  
    11   10    7 am 
    12   10   11 1  
    13   15   10 1  
    14   11   12 1  
    15   12   13 1  
    16   12   14 1  
    17   16   15 1  
    18   16   17 1  
    19   18   16 1  
    20   18   19 1  
    21   31   18 1  
    22   19   20 am 
    23   20   21 2  
    24   20   22 1  
    25   22   23 1  
    26   23   24 1  
    27   23   30 1  
    28   24   25 1  
    29   26   25 1  
    30   26   27 1  
    31   30   26 1  
    32   28   27 1  
    33   29   28 1  
    34   30   29 1  
    35   29   40 1  
    36   37   31 1  
    37   32   33 ar 
    38   32   37 ar 
    39   33   34 ar 
    40   34   35 ar 
    41   35   36 ar 
    42   36   37 ar 
    43   38   39 1  
    44   40   41 1  
    45    2   42 1  
    46    3   43 1  
    47    5   44 1  
    48    6   45 1  
    49   11   46 1  
    50   11   47 1  
    51   12   48 1  
    52   13   49 1  
    53   13   50 1  
    54   13   51 1  
    55   14   52 1  
    56   14   53 1  
    57   14   54 1  
    58   15   55 1  
    59   15   56 1  
    60   16   57 1  
    61   17   58 1  
    62   18   59 1  
    63   19   60 1  
    64   23   61 1  
    65   24   62 1  
    66   24   63 1  
    67   26   64 1  
    68   28   65 1  
    69   28   66 1  
    70   29   67 1  
    71   30   68 1  
    72   31   69 1  
    73   31   70 1  
    74   32   71 1  
    75   33   72 1  
    76   34   73 1  
    77   35   74 1  
    78   36   75 1  
    79   39   76 1  
    80   39   77 1  
    81   39   78 1  
    82   41   79 1  
    83   41   80 1  
    84   41   81 1  
@<TRIPOS>SUBSTRUCTURE
     1 G04         1

