### 
### Created by X-TOOL on Mon Sep 10 21:13:26 2018
### 

@<TRIPOS>MOLECULE
4yec_ligand
   81    80     1     0     0
SMALL
GAST_HUCK


@<TRIPOS>ATOM
      1 C           2.6900    5.1450   14.9970 C.2       1 ACE         0.1751
      2 O           2.4460    6.3490   14.9860 O.2       1 ACE        -0.3972
      3 CH3         2.5830    4.3470   16.2630 C.3       1 ACE         0.0258
      4 N           2.6240    4.4360   13.8750 N.am      1 VAL        -0.2656
      5 CA          2.8130    5.0720   12.5740 C.3       1 VAL         0.1332
      6 C           1.8710    4.4580   11.5390 C.2       1 VAL         0.2041
      7 O           1.5450    3.2670   11.6110 O.2       1 VAL        -0.3944
      8 CB          4.2790    4.9320   12.1120 C.3       1 VAL        -0.0063
      9 CG1         4.6490    3.4670   12.0580 C.3       1 VAL        -0.0584
     10 CG2         4.5190    5.6240   10.7690 C.3       1 VAL        -0.0584
     11 N           1.4270    5.2760   10.5860 N.am      1 LEU        -0.2637
     12 CA          0.4790    4.8340    9.5690 C.3       1 LEU         0.1312
     13 C           1.1600    3.9700    8.5110 C.2       1 LEU         0.2040
     14 O           2.3510    4.1280    8.2200 O.2       1 LEU        -0.3944
     15 CB         -0.1940    6.0410    8.9010 C.3       1 LEU        -0.0101
     16 CG         -1.7190    6.0810    8.7580 C.3       1 LEU        -0.0425
     17 CD1        -2.3970    6.2960   10.1020 C.3       1 LEU        -0.0625
     18 CD2        -2.1380    7.1690    7.7740 C.3       1 LEU        -0.0625
     19 N           0.3930    3.0390    7.9570 N.am      1 THR        -0.2613
     20 CA          0.8340    2.2810    6.7910 C.3       1 THR         0.1565
     21 C          -0.1820    2.4730    5.6760 C.2       1 THR         0.2065
     22 O          -1.3170    2.8950    5.9400 O.2       1 THR        -0.3943
     23 CB          0.9930    0.7600    7.0680 C.3       1 THR         0.0924
     24 OG1        -0.2750    0.1970    7.4280 O.3       1 THR        -0.3874
     25 CG2         2.0380    0.4810    8.1650 C.3       1 THR        -0.0346
     26 CAK        -1.7730   -0.1460    4.2810 C.3       1 CKC         0.0118
     27 CAO        -1.6130    0.7910    3.1080 C.2       1 CKC         0.1272
     28 OAF        -2.2380    0.6280    2.0600 O.2       1 CKC        -0.3894
     29 CAR        -0.8380    2.0700    3.3050 C.3       1 CKC         0.1146
     30 NAC         0.0680    1.9640    4.4720 N.am      1 CKC        -0.2648
     31 CAL        -0.0290    2.3890    2.0500 C.3       1 CKC        -0.0133
     32 CAH        -0.7220    3.5330    1.3310 C.3       1 CKC        -0.0440
     33 CAG         0.1010    4.1000    0.1900 C.3       1 CKC        -0.0124
     34 CAI         1.3000    4.8390    0.7330 C.3       1 CKC        -0.0354
     35 NAM         1.8100    5.6370   -0.3870 N.4       1 CKC         0.2185
     36 H1          2.8415    3.2977   16.0579 H         1 ACE         0.0467
     37 H2          1.5533    4.4029   16.6457 H         1 ACE         0.0467
     38 H3          3.2758    4.7553   17.0135 H         1 ACE         0.0467
     39 H4          2.4425    3.4537   13.9222 H         1 VAL         0.1883
     40 H5          2.5774    6.1421   12.6707 H         1 VAL         0.0802
     41 H6          4.9216    5.4206   12.8591 H         1 VAL         0.0343
     42 H7          5.6936    3.3646   11.7289 H         1 VAL         0.0234
     43 H8          3.9884    2.9479   11.3480 H         1 VAL         0.0234
     44 H9          4.5343    3.0227   13.0577 H         1 VAL         0.0234
     45 H10         4.2390    6.6848   10.8480 H         1 VAL         0.0234
     46 H11         3.9078    5.1403    9.9928 H         1 VAL         0.0234
     47 H12         5.5828    5.5446   10.5005 H         1 VAL         0.0234
     48 H13         1.7532    6.2211   10.5671 H         1 LEU         0.1883
     49 H14        -0.2970    4.2300   10.0619 H         1 LEU         0.0800
     50 H15         0.2229    6.1165    7.8859 H         1 LEU         0.0315
     51 H16         0.0945    6.9288    9.4829 H         1 LEU         0.0315
     52 H17        -2.0494    5.1103    8.3598 H         1 LEU         0.0298
     53 H18        -3.4879    6.3194    9.9627 H         1 LEU         0.0232
     54 H19        -2.0619    7.2508   10.5332 H         1 LEU         0.0232
     55 H20        -2.1318    5.4733   10.7823 H         1 LEU         0.0232
     56 H21        -1.6404    7.0007    6.8075 H         1 LEU         0.0232
     57 H22        -1.8469    8.1532    8.1697 H         1 LEU         0.0232
     58 H23        -3.2287    7.1376    7.6351 H         1 LEU         0.0232
     59 H24        -0.5083    2.8528    8.3480 H         1 THR         0.1884
     60 H25         1.8078    2.6773    6.4677 H         1 THR         0.0826
     61 H26         1.3367    0.2776    6.1411 H         1 THR         0.0639
     62 H27        -0.1714   -0.7323    7.5960 H         1 THR         0.2101
     63 H28         2.1178   -0.6039    8.3279 H         1 THR         0.0257
     64 H29         1.7277    0.9703    9.1000 H         1 THR         0.0257
     65 H30         3.0147    0.8773    7.8503 H         1 THR         0.0257
     66 H31        -1.1251    0.1853    5.1059 H         1 CKC         0.0459
     67 H32        -1.4889   -1.1646    3.9781 H         1 CKC         0.0459
     68 H33        -2.8215   -0.1414    4.6137 H         1 CKC         0.0459
     69 H34        -1.5506    2.8882    3.4857 H         1 CKC         0.0791
     70 H35         0.9306    1.4741    4.3460 H         1 CKC         0.1884
     71 H36         0.0115    1.5055    1.3960 H         1 CKC         0.0313
     72 H37         0.9928    2.6861    2.3286 H         1 CKC         0.0313
     73 H38        -0.9163    4.3368    2.0564 H         1 CKC         0.0269
     74 H39        -1.6766    3.1658    0.9261 H         1 CKC         0.0269
     75 H40        -0.5192    4.7939   -0.3963 H         1 CKC         0.0317
     76 H41         0.4423    3.2778   -0.4562 H         1 CKC         0.0317
     77 H42         2.0654    4.1284    1.0784 H         1 CKC         0.0813
     78 H43         1.0035    5.4924    1.5667 H         1 CKC         0.0813
     79 H44         2.6185    6.1590   -0.0870 H         1 CKC         0.1994
     80 H45         1.0945    6.2752   -0.6981 H         1 CKC         0.1994
     81 H46         2.0676    5.0253   -1.1456 H         1 CKC         0.1994
@<TRIPOS>BOND
     1    1    2 2  
     2    1    3 1  
     3    4    1 am 
     4    5    4 1  
     5    6    5 1  
     6    5    8 1  
     7    6    7 2  
     8   11    6 am 
     9    8    9 1  
    10    8   10 1  
    11   12   11 1  
    12   13   12 1  
    13   12   15 1  
    14   13   14 2  
    15   19   13 am 
    16   15   16 1  
    17   16   17 1  
    18   16   18 1  
    19   20   19 1  
    20   21   20 1  
    21   20   23 1  
    22   21   22 2  
    23   30   21 am 
    24   23   24 1  
    25   23   25 1  
    26   27   26 1  
    27   27   28 2  
    28   29   27 1  
    29   29   30 1  
    30   29   31 1  
    31   31   32 1  
    32   32   33 1  
    33   33   34 1  
    34   34   35 1  
    35    3   36 1  
    36    3   37 1  
    37    3   38 1  
    38    4   39 1  
    39    5   40 1  
    40    8   41 1  
    41    9   42 1  
    42    9   43 1  
    43    9   44 1  
    44   10   45 1  
    45   10   46 1  
    46   10   47 1  
    47   11   48 1  
    48   12   49 1  
    49   15   50 1  
    50   15   51 1  
    51   16   52 1  
    52   17   53 1  
    53   17   54 1  
    54   17   55 1  
    55   18   56 1  
    56   18   57 1  
    57   18   58 1  
    58   19   59 1  
    59   20   60 1  
    60   23   61 1  
    61   24   62 1  
    62   25   63 1  
    63   25   64 1  
    64   25   65 1  
    65   26   66 1  
    66   26   67 1  
    67   26   68 1  
    68   29   69 1  
    69   30   70 1  
    70   31   71 1  
    71   31   72 1  
    72   32   73 1  
    73   32   74 1  
    74   33   75 1  
    75   33   76 1  
    76   34   77 1  
    77   34   78 1  
    78   35   79 1  
    79   35   80 1  
    80   35   81 1  
@<TRIPOS>SUBSTRUCTURE
     1 ACE         1

