### 
### Created by X-TOOL on Mon Sep 10 21:13:24 2018
### 

@<TRIPOS>MOLECULE
4yes_ligand
   50    52     1     0     0
SMALL
GAST_HUCK


@<TRIPOS>ATOM
      1 C10         4.2200   19.8170   49.5520 C.2       1 45S         0.2127
      2 C12         3.4920   18.9290   48.6850 C.2       1 45S         0.1135
      3 O11         5.3360   20.1470   49.1810 O.2       1 45S        -0.3968
      4 C22         2.1650   18.5500   48.6220 C.2       1 45S        -0.0725
      5 C23         2.0160   17.6620   47.5280 C.2       1 45S        -0.0751
      6 C24         3.2540   17.5410   46.9350 C.2       1 45S         0.0388
      7 N25         4.1280   18.3050   47.6530 N.pl3     1 45S        -0.2765
      8 C26         3.7120   16.7670   45.7770 C.3       1 45S        -0.0081
      9 N3          3.6510   20.2560   50.7350 N.am      1 45S        -0.2538
     10 C4          4.1950   21.3560   51.5060 C.3       1 45S         0.1326
     11 C6          5.6950   21.2390   51.5730 C.2       1 45S         0.2034
     12 O8          6.2950   20.2290   51.9240 O.2       1 45S        -0.3944
     13 C5          3.5800   21.1610   52.8730 C.3       1 45S        -0.0105
     14 C1          2.2260   20.5490   52.5860 C.3       1 45S        -0.0283
     15 C2          2.4850   19.6830   51.3790 C.3       1 45S         0.0356
     16 N7          6.3120   22.4000   51.1470 N.am      1 45S        -0.2749
     17 C9          7.7430   22.5270   51.2630 C.3       1 45S         0.0624
     18 C13         8.4980   22.5280   49.9720 C.ar      1 45S        -0.0134
     19 C14         9.1980   21.4230   49.5200 C.ar      1 45S         0.0054
     20 C20         9.2060   20.1300   50.2780 C.3       1 45S        -0.0037
     21 N21         8.2080   19.1800   49.7090 N.4       1 45S         0.2299
     22 C15         9.9240   21.4610   48.3480 C.ar      1 45S        -0.0611
     23 C16         9.9720   22.6340   47.6080 C.ar      1 45S        -0.0614
     24 C17         9.2500   23.7270   48.0400 C.ar      1 45S         0.0264
     25 CL          9.2710   25.1700   47.0540 Cl        1 45S        -0.0789
     26 C18         8.5290   23.6900   49.2160 C.ar      1 45S        -0.0509
     27 H1          1.3731   18.8762   49.2946 H         1 45S         0.0354
     28 H2          1.0971   17.1685   47.2150 H         1 45S         0.0220
     29 H3          5.1322   18.3976   47.4435 H         1 45S         0.2324
     30 H4          2.8615   16.2236   45.3396 H         1 45S         0.0421
     31 H5          4.4808   16.0483   46.0971 H         1 45S         0.0421
     32 H6          4.1373   17.4484   45.0255 H         1 45S         0.0421
     33 H7          3.9122   22.3282   51.0761 H         1 45S         0.0800
     34 H8          3.4706   22.1242   53.3928 H         1 45S         0.0313
     35 H9          4.1935   20.4823   53.4838 H         1 45S         0.0313
     36 H10         1.4819   21.3270   52.3603 H         1 45S         0.0287
     37 H11         1.8783   19.9449   53.4370 H         1 45S         0.0287
     38 H12         2.6858   18.6459   51.6858 H         1 45S         0.0522
     39 H13         1.6209   19.7034   50.6986 H         1 45S         0.0522
     40 H14         5.7697   23.1463   50.7612 H         1 45S         0.1876
     41 H15         8.1096   21.6852   51.8688 H         1 45S         0.0668
     42 H16         7.9580   23.4730   51.7815 H         1 45S         0.0668
     43 H17         8.9572   20.3272   51.3312 H         1 45S         0.0964
     44 H18        10.2083   19.6810   50.2158 H         1 45S         0.0964
     45 H19         8.2287   18.3182   50.2314 H         1 45S         0.2007
     46 H20         8.4335   18.9936   48.7444 H         1 45S         0.2007
     47 H21         7.2871   19.5857   49.7665 H         1 45S         0.2007
     48 H22        10.4543   20.5793   48.0067 H         1 45S         0.0540
     49 H23        10.5678   22.6904   46.7042 H         1 45S         0.0548
     50 H24         7.9875   24.5683   49.5484 H         1 45S         0.0544
@<TRIPOS>BOND
     1    1    2 1  
     2    1    3 2  
     3    1    9 am 
     4    2    4 2  
     5    2    7 1  
     6    4    5 1  
     7    5    6 2  
     8    6    7 1  
     9    6    8 1  
    10    9   10 1  
    11    9   15 1  
    12   10   11 1  
    13   10   13 1  
    14   11   12 2  
    15   11   16 am 
    16   13   14 1  
    17   14   15 1  
    18   16   17 1  
    19   17   18 1  
    20   18   19 ar 
    21   18   26 ar 
    22   19   20 1  
    23   19   22 ar 
    24   20   21 1  
    25   22   23 ar 
    26   23   24 ar 
    27   24   25 1  
    28   24   26 ar 
    29    4   27 1  
    30    5   28 1  
    31    7   29 1  
    32    8   30 1  
    33    8   31 1  
    34    8   32 1  
    35   10   33 1  
    36   13   34 1  
    37   13   35 1  
    38   14   36 1  
    39   14   37 1  
    40   15   38 1  
    41   15   39 1  
    42   16   40 1  
    43   17   41 1  
    44   17   42 1  
    45   20   43 1  
    46   20   44 1  
    47   21   45 1  
    48   21   46 1  
    49   21   47 1  
    50   22   48 1  
    51   23   49 1  
    52   26   50 1  
@<TRIPOS>SUBSTRUCTURE
     1 45S         1

