### 
### Created by X-TOOL on Mon Sep 10 21:13:25 2018
### 

@<TRIPOS>MOLECULE
4yff_ligand
   47    50     1     0     0
SMALL
GAST_HUCK


@<TRIPOS>ATOM
      1 C10        46.6320    9.4650   84.2960 C.ar      1 4CV         0.0670
      2 C13        43.9440    7.0170   84.8530 C.3       1 4CV         0.0670
      3 C15        44.1350    7.3740   82.5380 C.3       1 4CV         0.0670
      4 C17        47.7240    9.2730   85.1380 C.ar      1 4CV         0.0868
      5 C21        50.3430    8.0900   88.3730 C.ar      1 4CV         0.0509
      6 C26        48.0310    5.1160   87.0050 C.2       1 4CV         0.0197
      7 C28        48.7230    6.3330   87.2790 C.ar      1 4CV         0.0543
      8 C02        51.7810   12.4030   84.1080 C.3       1 4CV         0.0149
      9 N03        50.9210   12.1840   85.2890 N.am      1 4CV        -0.2520
     10 S04        49.3670   12.9250   85.2010 S.o2      1 4CV         0.0597
     11 O05        49.0060   13.3050   86.5580 O.2       1 4CV        -0.1521
     12 O06        49.2430   13.8570   84.0810 O.2       1 4CV        -0.1521
     13 C07        48.3090   11.5620   84.8380 C.ar      1 4CV         0.0856
     14 C08        47.2440   11.7730   84.0010 C.ar      1 4CV        -0.0586
     15 C09        46.4010   10.7120   83.7360 C.ar      1 4CV        -0.0510
     16 N11        45.7570    8.3860   84.0140 N.pl3     1 4CV        -0.3076
     17 C12        44.8610    8.1890   85.1540 C.3       1 4CV         0.0483
     18 O14        43.2250    7.2620   83.6400 O.3       1 4CV        -0.3759
     19 C16        45.0400    8.5780   82.7560 C.3       1 4CV         0.0483
     20 N18        47.9380    7.9890   85.6860 N.pl3     1 4CV        -0.2592
     21 C19        48.7590    7.6300   86.7680 C.ar      1 4CV         0.1356
     22 N20        49.5970    8.5000   87.3410 N.ar      1 4CV        -0.2704
     23 N22        50.3920    6.8880   88.9590 N.ar      1 4CV        -0.2762
     24 C23        49.5490    6.0460   88.3530 C.ar      1 4CV         0.1380
     25 N24        49.3640    4.7370   88.7030 N.pl3     1 4CV        -0.2615
     26 C25        48.4370    4.1510   87.8880 C.2       1 4CV         0.0382
     27 BR2        46.7430    4.8400   85.6340 Br        1 4CV        -0.0818
     28 C29        48.5660   10.3380   85.4070 C.ar      1 4CV        -0.0223
     29 H          43.2308    6.8896   85.6807 H         1 4CV         0.0579
     30 H          44.5449    6.1023   84.7427 H         1 4CV         0.0579
     31 H          43.5679    7.5044   81.6045 H         1 4CV         0.0579
     32 H          44.7461    6.4618   82.4715 H         1 4CV         0.0579
     33 H          51.0027    8.8393   88.7953 H         1 4CV         0.0977
     34 H          52.7451   11.8949   84.2572 H         1 4CV         0.0439
     35 H          51.9518   13.4813   83.9737 H         1 4CV         0.0439
     36 H          51.2865   11.9958   83.2137 H         1 4CV         0.0439
     37 H          51.2175   11.6471   86.0788 H         1 4CV         0.1667
     38 H          47.0683   12.7470   83.5589 H         1 4CV         0.0507
     39 H          45.5484   10.8558   83.0823 H         1 4CV         0.0480
     40 H          45.4518    7.9749   86.0568 H         1 4CV         0.0532
     41 H          44.2612    9.0969   85.3150 H         1 4CV         0.0532
     42 H          44.4344    9.4948   82.8084 H         1 4CV         0.0532
     43 H          45.7579    8.6596   81.9266 H         1 4CV         0.0532
     44 H          47.4268    7.2171   85.2346 H         1 4CV         0.2146
     45 H          48.0895    3.1199   87.9319 H         1 4CV         0.0991
     46 H          49.4207   10.2076   86.0608 H         1 4CV         0.0517
     47 H1         49.8545    4.2599   89.4728 H         1 4CV         0.2345
@<TRIPOS>BOND
     1    4    1 ar 
     2    1   15 ar 
     3    1   16 1  
     4   17    2 1  
     5    2   18 1  
     6    3   18 1  
     7   19    3 1  
     8   20    4 1  
     9    4   28 ar 
    10   22    5 ar 
    11    5   23 ar 
    12    7    6 1  
    13    6   26 2  
    14    6   27 1  
    15   21    7 ar 
    16    7   24 ar 
    17    9    8 1  
    18   10    9 am 
    19   10   11 2  
    20   10   12 2  
    21   13   10 1  
    22   13   14 ar 
    23   28   13 ar 
    24   15   14 ar 
    25   16   17 1  
    26   16   19 1  
    27   21   20 1  
    28   21   22 ar 
    29   23   24 ar 
    30   24   25 1  
    31   25   26 1  
    32    2   29 1  
    33    2   30 1  
    34    3   31 1  
    35    3   32 1  
    36    5   33 1  
    37    8   34 1  
    38    8   35 1  
    39    8   36 1  
    40    9   37 1  
    41   14   38 1  
    42   15   39 1  
    43   17   40 1  
    44   17   41 1  
    45   19   42 1  
    46   19   43 1  
    47   20   44 1  
    48   26   45 1  
    49   28   46 1  
    50   25   47 1  
@<TRIPOS>SUBSTRUCTURE
     1 4CV         1

