### 
### Created by X-TOOL on Mon Sep 10 21:13:25 2018
### 

@<TRIPOS>MOLECULE
4yfi_ligand
   33    35     1     0     0
SMALL
GAST_HUCK


@<TRIPOS>ATOM
      1 N18        11.8980   20.1570   10.9060 N.pl3     1 4CW        -0.2538
      2 C17        11.8150   18.8360   11.4030 C.ar      1 4CW         0.0666
      3 C13        10.5470   17.3730   12.8730 C.ar      1 4CW        -0.0695
      4 C10        12.5220   16.5800   11.7680 C.ar      1 4CW         0.0989
      5 C11        11.4430   16.3220   12.6160 C.ar      1 4CW        -0.0466
      6 C20        12.8070   20.5950    9.9260 C.ar      1 4CW         0.1520
      7 C28        11.9150   23.9340    8.8790 C.2       1 4CW         0.1074
      8 C25        13.5020   22.3470    8.4490 C.ar      1 4CW         0.1578
      9 C32        12.7490   17.8130   11.1310 C.ar      1 4CW        -0.0114
     10 C01        15.6400   16.3500   12.6720 C.3       1 4CW         0.0151
     11 N05        15.2320   15.8500   11.3400 N.am      1 4CW        -0.2507
     12 S07        13.6280   15.1960   11.4230 S.o2      1 4CW         0.0655
     13 O08        13.3090   14.7750   10.0650 O.2       1 4CW        -0.1505
     14 O09        13.4620   14.1380   12.4650 O.2       1 4CW        -0.1505
     15 C15        10.7320   18.6120   12.2530 C.ar      1 4CW        -0.0378
     16 N21        13.8260   19.8410    9.5320 N.ar      1 4CW        -0.2660
     17 C22        14.6670   20.2980    8.5750 C.ar      1 4CW         0.0545
     18 N24        14.5060   21.5500    8.0570 N.ar      1 4CW        -0.2706
     19 N26        13.0720   23.6730    8.1090 N.pl3     1 4CW        -0.2358
     20 N30        11.6310   22.8790    9.6730 N.2       1 4CW        -0.2953
     21 C31        12.5960   21.8650    9.4100 C.ar      1 4CW         0.1084
     22 H1         11.2425   20.8520   11.2911 H         1 4CW         0.2173
     23 H2          9.7141   17.2235   13.5505 H         1 4CW         0.0588
     24 H3         11.3015   15.3437   13.0610 H         1 4CW         0.0540
     25 H4         11.3353   24.8549    8.8376 H         1 4CW         0.1348
     26 H5         13.5930   17.9690   10.4689 H         1 4CW         0.0557
     27 H6         16.6577   16.7633   12.6125 H         1 4CW         0.0439
     28 H7         15.6223   15.5218   13.3958 H         1 4CW         0.0439
     29 H8         14.9433   17.1365   12.9976 H         1 4CW         0.0439
     30 H9         15.7968   15.8842   10.5155 H         1 4CW         0.1669
     31 H10        10.0228   19.4112   12.4356 H         1 4CW         0.0537
     32 H11        15.4724   19.6662    8.2183 H         1 4CW         0.0998
     33 H12        13.5192   24.3108    7.4351 H         1 4CW         0.2394
@<TRIPOS>BOND
     1    2    1 1  
     2    1    6 1  
     3    9    2 ar 
     4    2   15 ar 
     5    5    3 ar 
     6    3   15 ar 
     7    4    5 ar 
     8    4    9 ar 
     9   12    4 1  
    10    6   16 ar 
    11    6   21 ar 
    12   19    7 1  
    13    7   20 2  
    14    8   18 ar 
    15    8   19 1  
    16   21    8 ar 
    17   11   10 1  
    18   11   12 am 
    19   12   13 2  
    20   12   14 2  
    21   16   17 ar 
    22   17   18 ar 
    23   20   21 1  
    24    1   22 1  
    25    3   23 1  
    26    5   24 1  
    27    7   25 1  
    28    9   26 1  
    29   10   27 1  
    30   10   28 1  
    31   10   29 1  
    32   11   30 1  
    33   15   31 1  
    34   17   32 1  
    35   19   33 1  
@<TRIPOS>SUBSTRUCTURE
     1 4CW         1

