### 
### Created by X-TOOL on Mon Sep 10 21:13:23 2018
### 

@<TRIPOS>MOLECULE
4ygf_ligand
   19    19     1     0     0
SMALL
GAST_HUCK


@<TRIPOS>ATOM
      1 C1        -10.6140  -39.7310  -77.0970 C.2       1 AZM         0.2562
      2 C2        -11.4820  -41.2740  -78.8790 C.2       1 AZM         0.2252
      3 C3        -12.6220  -43.5080  -79.1400 C.2       1 AZM         0.2120
      4 C4        -13.1990  -44.5860  -80.0690 C.3       1 AZM         0.0337
      5 N1         -8.5240  -38.7950  -75.5160 N.am      1 AZM        -0.2565
      6 N2        -10.9110  -40.1110  -79.3180 N.2       1 AZM        -0.2573
      7 N3        -10.4540  -39.2840  -78.3730 N.2       1 AZM        -0.2476
      8 N4        -12.0430  -42.3150  -79.6900 N.am      1 AZM        -0.1925
      9 O1        -10.8430  -37.6150  -75.5950 O.2       1 AZM        -0.1452
     10 O2        -10.6760  -39.8250  -74.5010 O.2       1 AZM        -0.1452
     11 O3        -12.6640  -43.6880  -77.9570 O.2       1 AZM        -0.3804
     12 S1        -10.1690  -38.9510  -75.5990 S.o2      1 AZM         0.0991
     13 S2        -11.3930  -41.2220  -77.1570 S.3       1 AZM         0.0874
     14 H1        -13.5939  -45.4168  -79.4658 H         1 AZM         0.0474
     15 H2        -12.4062  -44.9600  -80.7336 H         1 AZM         0.0474
     16 H3        -14.0102  -44.1536  -80.6731 H         1 AZM         0.0474
     17 H4         -8.1021  -38.3662  -74.7172 H         1 AZM         0.1638
     18 H5         -7.9516  -39.1295  -76.2647 H         1 AZM         0.1638
     19 H6        -12.0303  -42.2050  -80.6839 H         1 AZM         0.2411
@<TRIPOS>BOND
     1    1    7 2  
     2    1   12 1  
     3   13    1 1  
     4    2    6 2  
     5    8    2 1  
     6    2   13 1  
     7    3    4 1  
     8    3    8 am 
     9    3   11 2  
    10   12    5 am 
    11    6    7 1  
    12   12    9 2  
    13   12   10 2  
    14    4   14 1  
    15    4   15 1  
    16    4   16 1  
    17    5   17 1  
    18    5   18 1  
    19    8   19 1  
@<TRIPOS>SUBSTRUCTURE
     1 AZM         1

