### 
### Created by X-TOOL on Mon Sep 10 21:13:26 2018
### 

@<TRIPOS>MOLECULE
4yh3_ligand
   49    52     1     0     0
SMALL
GAST_HUCK


@<TRIPOS>ATOM
      1 O3        -15.6270    4.8530   -0.2890 O.2       1 Y80        -0.3837
      2 C1        -14.9570    5.8940   -0.6130 C.2       1 Y80         0.2282
      3 N2        -15.0390    6.3250   -1.9210 N.am      1 Y80        -0.2365
      4 C4        -14.3360    7.3720   -2.4010 C.ar      1 Y80         0.0900
      5 C5        -14.6200    8.1200   -3.5380 C.ar      1 Y80        -0.0537
      6 C6        -13.7790    9.1740   -3.9170 C.ar      1 Y80        -0.0910
      7 C7        -12.6870    9.4950   -3.1480 C.ar      1 Y80        -0.0910
      8 C8        -12.3760    8.7630   -2.0030 C.ar      1 Y80        -0.0534
      9 C3        -13.1550    7.6890   -1.6110 C.ar      1 Y80         0.0943
     10 N1        -12.9110    6.9130   -0.4250 N.am      1 Y80        -0.2061
     11 C2        -14.0540    6.5490    0.3660 C.3       1 Y80         0.1460
     12 C9        -11.6380    6.4270   -0.0780 C.2       1 Y80         0.2266
     13 O1        -11.5090    5.8350    0.9710 O.2       1 Y80        -0.3806
     14 C10       -10.4290    6.5900   -0.9440 C.2       1 Y80         0.0561
     15 C19        -9.1220    7.1660   -0.4740 C.ar      1 Y80        -0.0147
     16 C24        -8.5620    8.1890   -1.1860 C.ar      1 Y80        -0.0565
     17 C23        -7.4300    8.8290   -0.7340 C.ar      1 Y80        -0.0634
     18 C22        -6.8340    8.3730    0.4150 C.ar      1 Y80        -0.0637
     19 C21        -7.3340    7.3310    1.1280 C.ar      1 Y80        -0.0634
     20 C20        -8.5210    6.7250    0.6790 C.ar      1 Y80        -0.0565
     21 C11       -10.7180    6.1210   -2.1800 C.2       1 Y80        -0.0369
     22 C12        -9.9880    5.8940   -3.4200 C.ar      1 Y80        -0.0235
     23 C17       -10.6830    5.8930   -4.6190 C.ar      1 Y80        -0.0565
     24 C16       -10.0390    5.5950   -5.8140 C.ar      1 Y80        -0.0265
     25 C15        -8.7180    5.1590   -5.7390 C.ar      1 Y80         0.0976
     26 O2         -8.1030    4.8590   -6.9190 O.3       1 Y80        -0.3167
     27 C18        -6.7800    4.3420   -7.0930 C.3       1 Y80         0.0612
     28 C14        -8.0800    5.0790   -4.5430 C.ar      1 Y80        -0.0265
     29 C13        -8.6900    5.4100   -3.3660 C.ar      1 Y80        -0.0565
     30 H1        -15.6499    5.8371   -2.5445 H         1 Y80         0.2217
     31 H2        -15.4954    7.8867   -4.1333 H         1 Y80         0.0452
     32 H3        -13.9902    9.7374   -4.8187 H         1 Y80         0.0450
     33 H4        -12.0579   10.3296   -3.4356 H         1 Y80         0.0450
     34 H5        -11.5110    9.0395   -1.4111 H         1 Y80         0.0452
     35 H6        -13.7712    5.8515    1.1682 H         1 Y80         0.0829
     36 H7        -14.5285    7.4392    0.8045 H         1 Y80         0.0829
     37 H8         -9.0154    8.5010   -2.1199 H         1 Y80         0.0605
     38 H9         -7.0186    9.6743   -1.2737 H         1 Y80         0.0612
     39 H10        -5.9323    8.8618    0.7658 H         1 Y80         0.0601
     40 H11        -6.8312    6.9755    2.0201 H         1 Y80         0.0612
     41 H12        -8.9611    5.9104    1.2428 H         1 Y80         0.0605
     42 H13       -11.7665    5.8412   -2.2712 H         1 Y80         0.0727
     43 H14       -11.7413    6.1274   -4.6248 H         1 Y80         0.0631
     44 H15       -10.5448    5.6978   -6.7672 H         1 Y80         0.0563
     45 H16        -6.5776    4.2061   -8.1656 H         1 Y80         0.0581
     46 H17        -6.6940    3.3738   -6.5781 H         1 Y80         0.0581
     47 H18        -6.0514    5.0487   -6.6691 H         1 Y80         0.0581
     48 H19        -7.0504    4.7406   -4.5212 H         1 Y80         0.0563
     49 H20        -8.1747    5.2976   -2.4189 H         1 Y80         0.0631
@<TRIPOS>BOND
     1    1    2 2  
     2    2    3 am 
     3    2   11 1  
     4    3    4 1  
     5    4    5 ar 
     6    4    9 ar 
     7    5    6 ar 
     8    6    7 ar 
     9    7    8 ar 
    10    8    9 ar 
    11    9   10 1  
    12   10   11 1  
    13   10   12 am 
    14   12   13 2  
    15   12   14 1  
    16   14   15 1  
    17   14   21 2  
    18   15   16 ar 
    19   15   20 ar 
    20   16   17 ar 
    21   17   18 ar 
    22   18   19 ar 
    23   19   20 ar 
    24   21   22 1  
    25   22   23 ar 
    26   22   29 ar 
    27   23   24 ar 
    28   24   25 ar 
    29   25   26 1  
    30   25   28 ar 
    31   26   27 1  
    32   28   29 ar 
    33    3   30 1  
    34    5   31 1  
    35    6   32 1  
    36    7   33 1  
    37    8   34 1  
    38   11   35 1  
    39   11   36 1  
    40   16   37 1  
    41   17   38 1  
    42   18   39 1  
    43   19   40 1  
    44   20   41 1  
    45   21   42 1  
    46   23   43 1  
    47   24   44 1  
    48   27   45 1  
    49   27   46 1  
    50   27   47 1  
    51   28   48 1  
    52   29   49 1  
@<TRIPOS>SUBSTRUCTURE
     1 Y80         1

