### 
### Created by X-TOOL on Mon Sep 10 21:13:25 2018
### 

@<TRIPOS>MOLECULE
4yh4_ligand
   40    43     1     0     0
SMALL
GAST_HUCK


@<TRIPOS>ATOM
      1 O1         11.3280   -5.9740    1.0380 O.2       1 Y81        -0.3715
      2 C2         11.2890   -6.3620   -0.0520 C.2       1 Y81         0.2413
      3 N          12.4400   -6.6360   -0.6160 N.am      1 Y81        -0.2032
      4 C1         13.7160   -6.3000    0.1390 C.3       1 Y81         0.1464
      5 C14        12.6220   -7.3560   -1.8520 C.ar      1 Y81         0.0949
      6 C19        13.7460   -7.0990   -2.6130 C.ar      1 Y81         0.0901
      7 C18        13.9970   -7.8020   -3.8210 C.ar      1 Y81        -0.0536
      8 C17        13.1390   -8.8420   -4.2550 C.ar      1 Y81        -0.0910
      9 C16        12.0780   -9.1340   -3.4610 C.ar      1 Y81        -0.0909
     10 C15        11.8110   -8.3680   -2.3090 C.ar      1 Y81        -0.0533
     11 N2         14.5250   -6.1700   -2.1960 N.am      1 Y81        -0.2365
     12 C          14.5240   -5.6400   -0.8780 C.2       1 Y81         0.2282
     13 O          15.2460   -4.6390   -0.5130 O.2       1 Y81        -0.3837
     14 C3          9.9340   -6.3220   -0.8330 C.ar      1 Y81         0.0833
     15 C13         9.8850   -5.8430   -2.1300 C.ar      1 Y81        -0.0151
     16 C6          8.6920   -5.7650   -2.7840 C.ar      1 Y81         0.0146
     17 C5          7.6310   -6.1770   -2.0580 C.ar      1 Y81         0.0226
     18 N1          7.6580   -6.5760   -0.7400 N.ar      1 Y81        -0.2905
     19 C4          8.8240   -6.7110   -0.1710 C.ar      1 Y81         0.0309
     20 C7          8.5840   -5.2630   -4.1790 C.ar      1 Y81        -0.0098
     21 C12         7.4940   -4.5130   -4.5870 C.ar      1 Y81        -0.0523
     22 C11         7.2610   -4.1450   -5.9340 C.ar      1 Y81        -0.0603
     23 C10         8.2590   -4.4900   -6.8360 C.ar      1 Y81        -0.0609
     24 C9          9.4030   -5.2720   -6.4380 C.ar      1 Y81        -0.0603
     25 C8          9.5030   -5.6330   -5.0980 C.ar      1 Y81        -0.0523
     26 H1         14.2098   -7.2107    0.5089 H         1 Y81         0.0830
     27 H2         13.5116   -5.6250    0.9832 H         1 Y81         0.0830
     28 H3         14.8602   -7.5381   -4.4213 H         1 Y81         0.0452
     29 H4         13.3214   -9.3797   -5.1784 H         1 Y81         0.0450
     30 H5         11.4296   -9.9646   -3.7155 H         1 Y81         0.0450
     31 H6         10.9104   -8.5903   -1.7482 H         1 Y81         0.0453
     32 H7         15.1822   -5.7902   -2.8470 H         1 Y81         0.2217
     33 H8         10.7963   -5.5295   -2.6264 H         1 Y81         0.0791
     34 H9          6.6695   -6.1955   -2.5583 H         1 Y81         0.0860
     35 H10         8.9008   -7.1320    0.8250 H         1 Y81         0.0869
     36 H11         6.7819   -4.1908   -3.8359 H         1 Y81         0.0631
     37 H12         6.3602   -3.6265   -6.2420 H         1 Y81         0.0620
     38 H13         8.1757   -4.1628   -7.8661 H         1 Y81         0.0624
     39 H14        10.1582   -5.5681   -7.1570 H         1 Y81         0.0620
     40 H15        10.3483   -6.2325   -4.7799 H         1 Y81         0.0631
@<TRIPOS>BOND
     1    1    2 2  
     2    2    3 am 
     3    2   14 1  
     4    3    4 1  
     5    3    5 1  
     6    4   12 1  
     7    5    6 ar 
     8    5   10 ar 
     9    6    7 ar 
    10    6   11 1  
    11    7    8 ar 
    12    8    9 ar 
    13    9   10 ar 
    14   11   12 am 
    15   12   13 2  
    16   14   15 ar 
    17   14   19 ar 
    18   15   16 ar 
    19   16   17 ar 
    20   16   20 1  
    21   17   18 ar 
    22   18   19 ar 
    23   20   21 ar 
    24   20   25 ar 
    25   21   22 ar 
    26   22   23 ar 
    27   23   24 ar 
    28   24   25 ar 
    29    4   26 1  
    30    4   27 1  
    31    7   28 1  
    32    8   29 1  
    33    9   30 1  
    34   10   31 1  
    35   11   32 1  
    36   15   33 1  
    37   17   34 1  
    38   19   35 1  
    39   21   36 1  
    40   22   37 1  
    41   23   38 1  
    42   24   39 1  
    43   25   40 1  
@<TRIPOS>SUBSTRUCTURE
     1 Y81         1

