### 
### Created by X-TOOL on Mon Sep 10 21:13:25 2018
### 

@<TRIPOS>MOLECULE
4yha_ligand
   23    23     1     0     0
SMALL
GAST_HUCK


@<TRIPOS>ATOM
      1 N1         50.6560   41.0620   91.0810 N.am      1 MZM        -0.2493
      2 S1         52.2830   41.1310   90.8950 S.o2      1 MZM         0.1310
      3 O1         52.8930   41.8310   91.9820 O.2       1 MZM        -0.1365
      4 O2         52.8650   39.8340   90.9260 O.2       1 MZM        -0.1365
      5 C1         52.6690   41.9830   89.4110 C.2       1 MZM         0.3379
      6 S2         53.3580   43.3390   89.3260 S.3       1 MZM         0.1839
      7 C2         53.4560   43.7000   87.8430 C.2       1 MZM         0.3501
      8 N2         52.8840   42.6250   87.1270 N.2       1 MZM        -0.1996
      9 C5         52.7770   42.5420   85.7210 C.3       1 MZM         0.0349
     10 N3         52.3790   41.5280   88.1220 N.2       1 MZM        -0.1220
     11 N4         54.0220   44.8670   87.2420 N.am      1 MZM        -0.1240
     12 C3         54.6060   45.9780   87.9280 C.2       1 MZM         0.2781
     13 O3         54.6690   46.0320   89.1350 O.2       1 MZM        -0.3375
     14 C4         55.1590   47.1480   87.1420 C.3       1 MZM         0.0502
     15 H1         50.1164   41.9039   91.0789 H         1 MZM         0.1646
     16 H2         50.2030   40.1780   91.1966 H         1 MZM         0.1646
     17 H3         52.2897   41.5951   85.4457 H         1 MZM         0.0456
     18 H4         53.7813   42.5811   85.2739 H         1 MZM         0.0456
     19 H5         52.1767   43.3851   85.3485 H         1 MZM         0.0456
     20 H6         54.0083   44.9110   86.2431 H         1 MZM         0.3258
     21 H7         55.5631   47.8986   87.8373 H         1 MZM         0.0490
     22 H8         54.3552   47.5993   86.5419 H         1 MZM         0.0490
     23 H9         55.9606   46.7962   86.4759 H         1 MZM         0.0490
@<TRIPOS>BOND
     1    1    2 am 
     2    2    3 2  
     3    2    4 2  
     4    2    5 1  
     5    5    6 1  
     6    5   10 2  
     7    6    7 1  
     8    7    8 2  
     9    7   11 am 
    10    8    9 1  
    11    8   10 1  
    12   11   12 am 
    13   12   13 2  
    14   12   14 1  
    15    1   15 1  
    16    1   16 1  
    17    9   17 1  
    18    9   18 1  
    19    9   19 1  
    20   11   20 1  
    21   14   21 1  
    22   14   22 1  
    23   14   23 1  
@<TRIPOS>SUBSTRUCTURE
     1 MZM         1

