### 
### Created by X-TOOL on Mon Sep 10 21:13:23 2018
### 

@<TRIPOS>MOLECULE
4yhf_ligand
   72    76     1     0     0
SMALL
GAST_HUCK


@<TRIPOS>ATOM
      1 C1         -9.8750  -14.7390  -12.4650 C.3       1 4C9        -0.0040
      2 C2        -11.1020  -14.1400  -13.7410 C.3       1 4C9        -0.0334
      3 C3        -10.3800  -13.8430  -15.1300 C.3       1 4C9        -0.0598
      4 C4         -7.4700  -13.8710  -12.9300 C.1       1 4C9         0.1149
      5 C5         -9.7860  -18.1110   -1.8520 C.ar      1 4C9        -0.0606
      6 C6        -10.6970  -18.7010   -0.9720 C.ar      1 4C9        -0.0269
      7 C7        -13.4310  -21.0270   -0.7220 C.ar      1 4C9         0.1167
      8 C8        -12.7260  -22.1350   -1.2230 C.ar      1 4C9        -0.0283
      9 N1         -5.2560  -18.4030   -4.7020 N.ar      1 4C9        -0.2657
     10 N2         -6.6400  -19.3960   -3.1350 N.pl3     1 4C9        -0.3126
     11 C9         -6.5190  -18.4750   -4.1340 C.ar      1 4C9         0.1272
     12 C10        -7.5910  -17.6410   -4.5770 C.ar      1 4C9         0.0857
     13 C11        -7.2200  -16.7660   -5.6350 C.ar      1 4C9         0.1627
     14 N3         -8.3740  -15.9810   -5.9280 N.pl3     1 4C9        -0.1803
     15 C12        -8.5030  -15.0020   -7.0210 C.3       1 4C9         0.1007
     16 C13        -8.7170  -15.7170   -8.3730 C.3       1 4C9         0.0651
     17 N4         -8.9790  -14.7960   -9.5030 N.am      1 4C9        -0.2683
     18 C14        -8.3490  -14.8720  -10.7280 C.2       1 4C9         0.2078
     19 C15        -8.5670  -14.0850  -12.0330 C.3       1 4C9         0.1720
     20 C16       -11.8130  -12.7430  -13.1480 C.3       1 4C9        -0.0598
     21 C17       -12.2510  -15.2640  -13.9490 C.3       1 4C9        -0.0598
     22 N5         -6.5290  -13.6830  -13.6220 N.1       1 4C9        -0.3005
     23 O1         -7.4940  -15.7880  -10.8680 O.2       1 4C9        -0.3942
     24 C18       -10.0280  -13.8010   -9.1790 C.3       1 4C9         0.0342
     25 C19        -9.7550  -13.0720   -7.8850 C.3       1 4C9        -0.0296
     26 C20        -9.7420  -14.1020   -6.7970 C.3       1 4C9        -0.0178
     27 N6         -9.4400  -16.4100   -5.1360 N.2       1 4C9        -0.1980
     28 C21        -9.0320  -17.3910   -4.2760 C.2       1 4C9         0.0657
     29 C22        -9.9620  -18.0260   -3.2480 C.ar      1 4C9        -0.0171
     30 C23       -11.8980  -19.2650   -1.3860 C.ar      1 4C9         0.1175
     31 O2        -12.7450  -19.8300   -0.4290 O.3       1 4C9        -0.2569
     32 C24       -14.8200  -21.1730   -0.5270 C.ar      1 4C9        -0.0283
     33 C25       -15.4370  -22.3860   -0.8310 C.ar      1 4C9        -0.0696
     34 C26       -14.7430  -23.4840   -1.3290 C.ar      1 4C9        -0.0722
     35 C27       -13.3680  -23.3430   -1.5230 C.ar      1 4C9        -0.0696
     36 C28       -12.1300  -19.2030   -2.7720 C.ar      1 4C9        -0.0269
     37 C29       -11.1940  -18.6020   -3.6480 C.ar      1 4C9        -0.0606
     38 N7         -5.9790  -16.6690   -6.2230 N.ar      1 4C9        -0.2677
     39 C30        -5.0540  -17.5220   -5.6990 C.ar      1 4C9         0.0564
     40 H1        -10.4602  -14.8272  -11.5378 H         1 4C9         0.0318
     41 H2         -9.5827  -15.7414  -12.8109 H         1 4C9         0.0318
     42 H3        -11.1228  -13.4927  -15.8618 H         1 4C9         0.0235
     43 H4         -9.9057  -14.7636  -15.5010 H         1 4C9         0.0235
     44 H5         -9.6131  -13.0676  -14.9862 H         1 4C9         0.0235
     45 H6         -8.8803  -17.6890   -1.4316 H         1 4C9         0.0598
     46 H7        -10.4554  -18.7198    0.0846 H         1 4C9         0.0557
     47 H8        -11.6568  -22.0523   -1.3814 H         1 4C9         0.0553
     48 H9         -7.5428  -19.5193   -2.6548 H         1 4C9         0.1842
     49 H10        -5.8285  -19.9681   -2.8609 H         1 4C9         0.1842
     50 H11        -7.5930  -14.3854   -7.0628 H         1 4C9         0.0680
     51 H12        -9.5762  -16.3965   -8.2735 H         1 4C9         0.0553
     52 H13        -7.8132  -16.3000   -8.6036 H         1 4C9         0.0553
     53 H14        -8.8257  -13.0568  -11.7399 H         1 4C9         0.0836
     54 H15       -12.5429  -12.3644  -13.8787 H         1 4C9         0.0235
     55 H16       -11.0379  -11.9817  -12.9758 H         1 4C9         0.0235
     56 H17       -12.3250  -12.9659  -12.2003 H         1 4C9         0.0235
     57 H18       -12.9747  -14.9139  -14.6998 H         1 4C9         0.0235
     58 H19       -12.7689  -15.4400  -12.9946 H         1 4C9         0.0235
     59 H20       -11.7893  -16.2009  -14.2939 H         1 4C9         0.0235
     60 H21       -10.9933  -14.3214   -9.0935 H         1 4C9         0.0522
     61 H22       -10.0794  -13.0645   -9.9945 H         1 4C9         0.0522
     62 H23       -10.5455  -12.3312   -7.6946 H         1 4C9         0.0286
     63 H24        -8.7808  -12.5638   -7.9358 H         1 4C9         0.0286
     64 H25        -9.6760  -13.6101   -5.8154 H         1 4C9         0.0296
     65 H26       -10.6591  -14.7077   -6.8427 H         1 4C9         0.0296
     66 H27       -15.4056  -20.3458   -0.1424 H         1 4C9         0.0553
     67 H28       -16.5054  -22.4775   -0.6721 H         1 4C9         0.0591
     68 H29       -15.2509  -24.4139   -1.5577 H         1 4C9         0.0528
     69 H30       -12.7919  -24.1760   -1.9093 H         1 4C9         0.0591
     70 H31       -13.0432  -19.6235   -3.1773 H         1 4C9         0.0557
     71 H32       -11.4378  -18.5807   -4.7040 H         1 4C9         0.0598
     72 H33        -4.0587  -17.4874   -6.1271 H         1 4C9         0.1030
@<TRIPOS>BOND
     1    1   19 1  
     2    2    3 1  
     3    2   20 1  
     4    2   21 1  
     5   19    4 1  
     6    4   22 3  
     7    5    6 ar 
     8   29    5 ar 
     9    6   30 ar 
    10    7    8 ar 
    11   31    7 1  
    12    7   32 ar 
    13    8   35 ar 
    14   11    9 ar 
    15   39    9 ar 
    16   11   10 1  
    17   12   11 ar 
    18   13   12 ar 
    19   28   12 1  
    20   14   13 1  
    21   13   38 ar 
    22   15   14 1  
    23   14   27 1  
    24   16   15 1  
    25   15   26 1  
    26   17   16 1  
    27   18   17 am 
    28   17   24 1  
    29   19   18 1  
    30   18   23 2  
    31   24   25 1  
    32   25   26 1  
    33   27   28 2  
    34   28   29 1  
    35   29   37 ar 
    36   30   31 1  
    37   36   30 ar 
    38   32   33 ar 
    39   33   34 ar 
    40   35   34 ar 
    41   37   36 ar 
    42   38   39 ar 
    43    1    2 1  
    44    1   40 1  
    45    1   41 1  
    46    3   42 1  
    47    3   43 1  
    48    3   44 1  
    49    5   45 1  
    50    6   46 1  
    51    8   47 1  
    52   10   48 1  
    53   10   49 1  
    54   15   50 1  
    55   16   51 1  
    56   16   52 1  
    57   19   53 1  
    58   20   54 1  
    59   20   55 1  
    60   20   56 1  
    61   21   57 1  
    62   21   58 1  
    63   21   59 1  
    64   24   60 1  
    65   24   61 1  
    66   25   62 1  
    67   25   63 1  
    68   26   64 1  
    69   26   65 1  
    70   32   66 1  
    71   33   67 1  
    72   34   68 1  
    73   35   69 1  
    74   36   70 1  
    75   37   71 1  
    76   39   72 1  
@<TRIPOS>SUBSTRUCTURE
     1 4C9         1

