### 
### Created by X-TOOL on Mon Sep 10 21:13:27 2018
### 

@<TRIPOS>MOLECULE
4yhm_ligand
   60    63     1     0     0
SMALL
GAST_HUCK


@<TRIPOS>ATOM
      1 N3         -4.5730   20.9890    9.6090 N.pl3     1 4CC        -0.2314
      2 C4         -3.8580   23.1460   10.6400 C.ar      1 4CC        -0.0367
      3 C5         -1.2470   22.0530   10.4080 C.ar      1 4CC        -0.0442
      4 C7         -3.8670   19.9270    9.1480 C.2       1 4CC         0.1462
      5 C8         -6.0320   21.1420    9.6560 C.3       1 4CC         0.0470
      6 C10        -1.4680   23.3440   10.9340 C.ar      1 4CC         0.0404
      7 C17         0.0180   22.8150   13.4430 C.ar      1 4CC         0.1412
      8 C20        -5.0360   17.5170    5.9930 C.ar      1 4CC        -0.0444
      9 C21         1.0120   21.9150   13.0570 C.ar      1 4CC        -0.0130
     10 C24        -3.0100   16.0490    4.7750 C.ar      1 4CC        -0.0685
     11 C26         1.1120   20.7040   13.7240 C.ar      1 4CC        -0.0563
     12 C28        -0.0320   26.3100   15.7330 C.2       1 4CC         0.0373
     13 C1         -3.6680   21.9010   10.0660 C.ar      1 4CC         0.0854
     14 C2         -2.3750   21.3360    9.9380 C.ar      1 4CC         0.0274
     15 N6         -2.5840   20.1090    9.3730 N.2       1 4CC        -0.3143
     16 C9         -2.7780   23.8430   11.0600 C.ar      1 4CC        -0.0564
     17 C11        -4.5480   18.7090    8.5590 C.3       1 4CC         0.1065
     18 C12        -0.5310   24.2840   11.5770 C.2       1 4CC         0.2306
     19 N13        -3.5970   17.7720    7.9590 N.pl3     1 4CC        -0.3031
     20 N14         0.0090   24.0500   12.8090 N.am      1 4CC        -0.2028
     21 O15        -0.5150   25.4220   11.1330 O.2       1 4CC        -0.3750
     22 C16        -3.8190   17.2750    6.6680 C.ar      1 4CC         0.0402
     23 C18         0.7120   25.1170   13.5400 C.3       1 4CC         0.0696
     24 C19        -2.8050   16.5390    6.0450 C.ar      1 4CC        -0.0444
     25 N22        -0.7690   22.5590   14.4840 N.ar      1 4CC        -0.2849
     26 C23        -0.4260   25.7320   14.3870 C.3       1 4CC         0.0263
     27 C25        -5.2410   17.0240    4.7140 C.ar      1 4CC        -0.0685
     28 C27        -0.6950   21.4080   15.1370 C.ar      1 4CC        -0.0071
     29 C29        -4.2310   16.2620    4.1020 C.ar      1 4CC         0.0122
     30 C30         0.2370   20.4470   14.7770 C.ar      1 4CC        -0.0504
     31 O31         0.1810   25.5950   16.7080 O.co2     1 4CC        -0.5689
     32 O32         0.0310   27.5230   15.8560 O.co2     1 4CC        -0.5689
     33 C33        -4.4130   15.7220    2.7300 C.cat     1 4CC         0.2283
     34 N34        -4.6670   16.5510    1.7160 N.pl3     1 4CC        -0.2736
     35 N35        -4.3200   14.4050    2.5010 N.pl3     1 4CC        -0.2736
     36 H1         -4.8556   23.5554   10.7510 H         1 4CC         0.0553
     37 H2         -0.2515   21.6261   10.3652 H         1 4CC         0.0596
     38 H3         -6.5082   20.2525    9.2178 H         1 4CC         0.0567
     39 H4         -6.3257   22.0345    9.0840 H         1 4CC         0.0567
     40 H5         -6.3555   21.2536   10.7014 H         1 4CC         0.0567
     41 H6         -5.8155   18.0926    6.4790 H         1 4CC         0.0515
     42 H7          1.6937   22.1585   12.2501 H         1 4CC         0.0598
     43 H8         -2.2207   15.4908    4.2846 H         1 4CC         0.0582
     44 H9          1.8561   19.9717   13.4321 H         1 4CC         0.0691
     45 H10        -2.9261   24.8186   11.5087 H         1 4CC         0.0574
     46 H11        -5.2544   19.0400    7.7835 H         1 4CC         0.0786
     47 H12        -5.0976   18.1906    9.3585 H         1 4CC         0.0786
     48 H13        -2.7630   17.4775    8.4868 H         1 4CC         0.1792
     49 H14         1.1414   25.8581   12.8498 H         1 4CC         0.0611
     50 H15         1.5079   24.7062   14.1786 H         1 4CC         0.0611
     51 H16        -1.8673   16.3565    6.5574 H         1 4CC         0.0515
     52 H17        -0.8822   26.5404   13.7968 H         1 4CC         0.0456
     53 H18        -1.1717   24.9437   14.5672 H         1 4CC         0.0456
     54 H19        -6.1696   17.2238    4.1917 H         1 4CC         0.0582
     55 H20        -1.3712   21.2159   15.9622 H         1 4CC         0.0774
     56 H21         0.2844   19.5043   15.3100 H         1 4CC         0.0578
     57 H22        -4.7933   16.1773    0.7645 H         1 4CC         0.3179
     58 H23        -4.7368   17.5647    1.8846 H         1 4CC         0.3179
     59 H24        -4.1241   13.7595    3.2794 H         1 4CC         0.3179
     60 H25        -4.4444   14.0382    1.5466 H         1 4CC         0.3179
@<TRIPOS>BOND
     1    1    4 1  
     2    1    5 1  
     3   13    1 1  
     4    2   13 ar 
     5   16    2 ar 
     6    6    3 ar 
     7    3   14 ar 
     8   15    4 2  
     9    4   17 1  
    10    6   16 ar 
    11   18    6 1  
    12    7    9 ar 
    13   20    7 1  
    14    7   25 ar 
    15   22    8 ar 
    16    8   27 ar 
    17    9   11 ar 
    18   24   10 ar 
    19   10   29 ar 
    20   11   30 ar 
    21   26   12 1  
    22   12   31 ar 
    23   12   32 ar 
    24   14   13 ar 
    25   14   15 1  
    26   17   19 1  
    27   20   18 am 
    28   18   21 2  
    29   19   22 1  
    30   23   20 1  
    31   22   24 ar 
    32   23   26 1  
    33   25   28 ar 
    34   27   29 ar 
    35   28   30 ar 
    36   29   33 1  
    37   33   34 ar 
    38   33   35 ar 
    39    2   36 1  
    40    3   37 1  
    41    5   38 1  
    42    5   39 1  
    43    5   40 1  
    44    8   41 1  
    45    9   42 1  
    46   10   43 1  
    47   11   44 1  
    48   16   45 1  
    49   17   46 1  
    50   17   47 1  
    51   19   48 1  
    52   23   49 1  
    53   23   50 1  
    54   24   51 1  
    55   26   52 1  
    56   26   53 1  
    57   27   54 1  
    58   28   55 1  
    59   30   56 1  
    60   34   57 1  
    61   34   58 1  
    62   35   59 1  
    63   35   60 1  
@<TRIPOS>SUBSTRUCTURE
     1 4CC         1

