### 
### Created by X-TOOL on Mon Sep 10 21:13:27 2018
### 

@<TRIPOS>MOLECULE
4yho_ligand
   60    63     1     0     0
SMALL
GAST_HUCK


@<TRIPOS>ATOM
      1 N3          4.4630  -20.7060   11.8120 N.pl3     1 4CC        -0.2314
      2 C4          3.5490  -22.8660   12.7840 C.ar      1 4CC        -0.0367
      3 C5          1.0640  -21.6250   12.2810 C.ar      1 4CC        -0.0442
      4 C7          3.7680  -19.5800   11.3260 C.2       1 4CC         0.1462
      5 C8          5.9080  -20.9490   11.8930 C.3       1 4CC         0.0470
      6 C10         1.1250  -22.9010   12.8470 C.ar      1 4CC         0.0404
      7 C17        -0.6340  -22.2460   15.1610 C.ar      1 4CC         0.1412
      8 C20         2.6680  -16.2840    8.1580 C.ar      1 4CC        -0.0444
      9 C21        -1.2640  -20.9900   15.1720 C.ar      1 4CC        -0.0130
     10 C24         5.0160  -16.8650    6.8040 C.ar      1 4CC        -0.0685
     11 C26        -0.9080  -20.1020   16.1750 C.ar      1 4CC        -0.0563
     12 C28        -3.7840  -25.5120   15.3670 C.2       1 4CC         0.0373
     13 C1          3.4780  -21.5960   12.2240 C.ar      1 4CC         0.0854
     14 C2          2.2600  -20.9690   11.9700 C.ar      1 4CC         0.0274
     15 N6          2.4620  -19.7070   11.4070 N.2       1 4CC        -0.3143
     16 C9          2.3600  -23.5050   13.0880 C.ar      1 4CC        -0.0564
     17 C11         4.4420  -18.3240   10.7610 C.3       1 4CC         0.1065
     18 C12        -0.1140  -23.6610   13.1980 C.2       1 4CC         0.2306
     19 N13         3.4600  -17.5060   10.0680 N.pl3     1 4CC        -0.3031
     20 N14        -0.9610  -23.1910   14.1640 N.am      1 4CC        -0.2028
     21 O15        -0.3520  -24.6920   12.5920 O.2       1 4CC        -0.3750
     22 C16         3.6510  -17.0480    8.7780 C.ar      1 4CC         0.0402
     23 C18        -2.3230  -23.7480   14.2490 C.3       1 4CC         0.0696
     24 C19         4.8390  -17.3120    8.1010 C.ar      1 4CC        -0.0444
     25 N22         0.2830  -22.6150   16.0670 N.ar      1 4CC        -0.2849
     26 C23        -2.4020  -24.8980   15.2410 C.3       1 4CC         0.0263
     27 C25         2.8470  -15.8450    6.8590 C.ar      1 4CC        -0.0685
     28 C27         0.5990  -21.7230   17.0230 C.ar      1 4CC        -0.0071
     29 C29         4.0380  -16.0950    6.1830 C.ar      1 4CC         0.0122
     30 C30         0.0340  -20.4640   17.1160 C.ar      1 4CC        -0.0504
     31 O31        -4.7150  -24.7830   15.7840 O.co2     1 4CC        -0.5689
     32 O32        -3.9170  -26.7180   15.0540 O.co2     1 4CC        -0.5689
     33 C33         4.2370  -15.6010    4.8060 C.cat     1 4CC         0.2283
     34 N34         4.2080  -14.3110    4.5660 N.pl3     1 4CC        -0.2736
     35 N35         4.4380  -16.4520    3.8300 N.pl3     1 4CC        -0.2736
     36 H1          4.5045  -23.3404   12.9763 H         1 4CC         0.0553
     37 H2          0.1081  -21.1522   12.0865 H         1 4CC         0.0596
     38 H3          6.4492  -20.0770   11.4971 H         1 4CC         0.0567
     39 H4          6.1639  -21.8395   11.3001 H         1 4CC         0.0567
     40 H5          6.1941  -21.1126   12.9425 H         1 4CC         0.0567
     41 H6          1.7600  -16.0323    8.6940 H         1 4CC         0.0515
     42 H7         -2.0017  -20.7251   14.4232 H         1 4CC         0.0598
     43 H8          5.9237  -17.1166    6.2675 H         1 4CC         0.0582
     44 H9         -1.3700  -19.1224   16.2202 H         1 4CC         0.0691
     45 H10         2.3883  -24.4974   13.5233 H         1 4CC         0.0574
     46 H11         5.2330  -18.6200   10.0562 H         1 4CC         0.0786
     47 H12         4.8833  -17.7445   11.5853 H         1 4CC         0.0786
     48 H13         2.5882  -17.2582   10.5573 H         1 4CC         0.1792
     49 H14        -2.6207  -24.1139   13.2553 H         1 4CC         0.0611
     50 H15        -3.0132  -22.9536   14.5692 H         1 4CC         0.0611
     51 H16         5.6280  -17.8699    8.5923 H         1 4CC         0.0515
     52 H17        -1.7032  -25.6831   14.9164 H         1 4CC         0.0456
     53 H18        -2.0988  -24.5231   16.2297 H         1 4CC         0.0456
     54 H19         2.0520  -15.3008    6.3621 H         1 4CC         0.0582
     55 H20         1.3387  -22.0071   17.7627 H         1 4CC         0.0774
     56 H21         0.3232  -19.7806   17.9062 H         1 4CC         0.0578
     57 H22         4.3464  -13.9624    3.6067 H         1 4CC         0.3179
     58 H23         4.0468  -13.6472    5.3369 H         1 4CC         0.3179
     59 H24         4.4597  -17.4632    4.0247 H         1 4CC         0.3179
     60 H25         4.5743  -16.1097    2.8681 H         1 4CC         0.3179
@<TRIPOS>BOND
     1    1    4 1  
     2    1    5 1  
     3   13    1 1  
     4    2   13 ar 
     5   16    2 ar 
     6    6    3 ar 
     7    3   14 ar 
     8   15    4 2  
     9    4   17 1  
    10    6   16 ar 
    11   18    6 1  
    12    7    9 ar 
    13   20    7 1  
    14    7   25 ar 
    15   22    8 ar 
    16    8   27 ar 
    17    9   11 ar 
    18   24   10 ar 
    19   10   29 ar 
    20   11   30 ar 
    21   26   12 1  
    22   12   31 ar 
    23   12   32 ar 
    24   14   13 ar 
    25   14   15 1  
    26   17   19 1  
    27   20   18 am 
    28   18   21 2  
    29   19   22 1  
    30   23   20 1  
    31   22   24 ar 
    32   23   26 1  
    33   25   28 ar 
    34   27   29 ar 
    35   28   30 ar 
    36   29   33 1  
    37   33   34 ar 
    38   33   35 ar 
    39    2   36 1  
    40    3   37 1  
    41    5   38 1  
    42    5   39 1  
    43    5   40 1  
    44    8   41 1  
    45    9   42 1  
    46   10   43 1  
    47   11   44 1  
    48   16   45 1  
    49   17   46 1  
    50   17   47 1  
    51   19   48 1  
    52   23   49 1  
    53   23   50 1  
    54   24   51 1  
    55   26   52 1  
    56   26   53 1  
    57   27   54 1  
    58   28   55 1  
    59   30   56 1  
    60   34   57 1  
    61   34   58 1  
    62   35   59 1  
    63   35   60 1  
@<TRIPOS>SUBSTRUCTURE
     1 4CC         1

