### 
### Created by X-TOOL on Sun Nov 13 14:29:03 2016
### 

@<TRIPOS>MOLECULE
4yhq_ligand
   75    78     1     0     0
SMALL
GAST_HUCK


@<TRIPOS>ATOM
      1 N1        -18.0230    0.0850   -6.4920 N.pl3     1 G10        -0.3369
      2 C2        -17.6380    0.0220   -5.1850 C.ar      1 G10         0.0353
      3 C3        -18.0380   -1.0480   -4.3970 C.ar      1 G10        -0.0429
      4 C4        -17.6860   -1.1330   -3.0480 C.ar      1 G10        -0.0471
      5 C5        -16.8660   -0.1740   -2.4350 C.ar      1 G10         0.0949
      6 C6        -16.4890    0.9100   -3.2500 C.ar      1 G10        -0.0471
      7 C7        -16.8570    1.0240   -4.6280 C.ar      1 G10        -0.0429
      8 S8        -16.4840   -0.2170   -0.8150 S.o2      1 G10         0.0648
      9 O9        -16.5810   -1.5760   -0.3580 O.2       1 G10        -0.1518
     10 O10       -15.2290    0.4640   -0.6020 O.2       1 G10        -0.1518
     11 N11       -17.5610    0.5810   -0.0080 N.am      1 G10        -0.2327
     12 C12       -17.5500    2.0700   -0.1410 C.3       1 G10         0.0319
     13 C13       -18.0150    2.8660    1.0590 C.3       1 G10        -0.0296
     14 C14       -16.9780    2.7290    2.1810 C.3       1 G10        -0.0612
     15 C15       -18.1730    4.3620    0.8040 C.3       1 G10        -0.0612
     16 C16       -18.8380   -0.1160    0.2960 C.3       1 G10         0.0578
     17 C17       -19.0980   -0.4140    1.7600 C.3       1 G10         0.0967
     18 O18       -20.4920   -0.7600    1.8940 O.3       1 G10        -0.3877
     19 C19       -18.2270   -1.5680    2.2440 C.3       1 G10         0.0807
     20 N20       -18.3230   -1.6660    3.7230 N.am      1 G10        -0.2550
     21 C21       -17.3730   -1.1410    4.5410 C.2       1 G10         0.3203
     22 O22       -16.3310   -0.6330    4.2700 O.2       1 G10        -0.3775
     23 O23       -17.7110   -1.3240    5.8890 O.3       1 G10        -0.2576
     24 C24       -16.7470   -1.1070    6.9280 C.3       1 G10         0.1244
     25 C25       -17.4530   -0.2560    7.9730 C.3       1 G10         0.0818
     26 O26       -18.2420   -1.2170    8.6900 O.3       1 G10        -0.3478
     27 C27       -17.5870   -2.4880    8.6830 C.3       1 G10         0.1706
     28 O28       -18.4870   -3.4230    8.0230 O.3       1 G10        -0.3448
     29 C29       -17.9900   -3.9800    6.8110 C.3       1 G10         0.1144
     30 C30       -16.5090   -3.6740    6.8410 C.3       1 G10         0.2819
     31 C31       -16.4260   -2.4020    7.7140 C.3       1 G10         0.1080
     32 C32       -18.6050   -2.9680    1.7000 C.3       1 G10         0.0064
     33 C33       -18.1170   -4.9340    3.2090 C.ar      1 G10        -0.0603
     34 C34       -17.3130   -5.9150    3.7790 C.ar      1 G10        -0.0686
     35 C35       -15.9570   -5.8930    3.4610 C.ar      1 G10        -0.0687
     36 C36       -15.4300   -4.9450    2.5730 C.ar      1 G10        -0.0686
     37 C37       -16.2790   -3.9690    1.9980 C.ar      1 G10        -0.0603
     38 C38       -17.6290   -3.9930    2.2760 C.ar      1 G10        -0.0408
     39 F39       -15.9970   -3.4950    5.6030 F         1 G10        -0.2026
     40 F40       -15.7040   -4.5000    7.4530 F         1 G10        -0.2026
     41 H1        -18.6029   -0.6649   -6.8948 H         1 G10         0.1719
     42 H2        -17.7338    0.8825   -7.0762 H         1 G10         0.1719
     43 H3        -18.6374   -1.8359   -4.8386 H         1 G10         0.0515
     44 H4        -18.0569   -1.9634   -2.4581 H         1 G10         0.0602
     45 H5        -15.8890    1.6990   -2.8111 H         1 G10         0.0602
     46 H6        -16.5338    1.8716   -5.2214 H         1 G10         0.0515
     47 H7        -18.2013    2.3333   -0.9875 H         1 G10         0.0480
     48 H8        -16.5173    2.3765   -0.3637 H         1 G10         0.0480
     49 H9        -18.9817    2.4586    1.3898 H         1 G10         0.0311
     50 H10       -17.3084    3.3051    3.0579 H         1 G10         0.0233
     51 H11       -16.0083    3.1146    1.8332 H         1 G10         0.0233
     52 H12       -16.8737    1.6692    2.4566 H         1 G10         0.0233
     53 H13       -18.9099    4.5216    0.0031 H         1 G10         0.0233
     54 H14       -17.2046    4.7866    0.5010 H         1 G10         0.0233
     55 H15       -18.5185    4.8563    1.7239 H         1 G10         0.0233
     56 H16       -18.8377   -1.0723   -0.2476 H         1 G10         0.0504
     57 H17       -19.6615    0.5142   -0.0710 H         1 G10         0.0504
     58 H18       -18.8776    0.4798    2.3621 H         1 G10         0.0634
     59 H19       -20.6801   -1.5240    1.3616 H         1 G10         0.2100
     60 H20       -17.1888   -1.3507    1.9526 H         1 G10         0.0604
     61 H21       -19.1094   -2.1318    4.1287 H         1 G10         0.1873
     62 H22       -15.8360   -0.6358    6.5305 H         1 G10         0.0677
     63 H23       -18.0906    0.5046    7.4989 H         1 G10         0.0590
     64 H24       -16.7281    0.2360    8.6382 H         1 G10         0.0590
     65 H25       -17.2867   -2.8094    9.6912 H         1 G10         0.0915
     66 H26       -18.4681   -3.5081    5.9400 H         1 G10         0.0620
     67 H27       -18.1633   -5.0658    6.7809 H         1 G10         0.0620
     68 H28       -15.4501   -2.3366    8.2172 H         1 G10         0.0439
     69 H29       -18.5390   -2.9694    0.6020 H         1 G10         0.0449
     70 H30       -19.6310   -3.2202    2.0061 H         1 G10         0.0449
     71 H31       -19.1623   -4.8898    3.4928 H         1 G10         0.0557
     72 H32       -17.7246   -6.6660    4.4435 H         1 G10         0.0599
     73 H33       -15.2951   -6.6247    3.9099 H         1 G10         0.0559
     74 H34       -14.3744   -4.9592    2.3271 H         1 G10         0.0599
     75 H35       -15.8702   -3.2078    1.3434 H         1 G10         0.0557
@<TRIPOS>BOND
     1    2    1 1  
     2    3    2 ar 
     3    7    2 ar 
     4    4    3 ar 
     5    5    4 ar 
     6    5    6 ar 
     7    8    5 1  
     8    6    7 ar 
     9    8    9 2  
    10    8   10 2  
    11   11    8 am 
    12   11   12 1  
    13   16   11 1  
    14   12   13 1  
    15   13   14 1  
    16   13   15 1  
    17   17   16 1  
    18   17   18 1  
    19   19   17 1  
    20   19   20 1  
    21   32   19 1  
    22   20   21 am 
    23   21   22 2  
    24   21   23 1  
    25   23   24 1  
    26   24   25 1  
    27   24   31 1  
    28   25   26 1  
    29   27   26 1  
    30   27   28 1  
    31   31   27 1  
    32   29   28 1  
    33   30   29 1  
    34   31   30 1  
    35   30   39 1  
    36   30   40 1  
    37   38   32 1  
    38   33   34 ar 
    39   33   38 ar 
    40   34   35 ar 
    41   35   36 ar 
    42   36   37 ar 
    43   37   38 ar 
    44    1   41 1  
    45    1   42 1  
    46    3   43 1  
    47    4   44 1  
    48    6   45 1  
    49    7   46 1  
    50   12   47 1  
    51   12   48 1  
    52   13   49 1  
    53   14   50 1  
    54   14   51 1  
    55   14   52 1  
    56   15   53 1  
    57   15   54 1  
    58   15   55 1  
    59   16   56 1  
    60   16   57 1  
    61   17   58 1  
    62   18   59 1  
    63   19   60 1  
    64   20   61 1  
    65   24   62 1  
    66   25   63 1  
    67   25   64 1  
    68   27   65 1  
    69   29   66 1  
    70   29   67 1  
    71   31   68 1  
    72   32   69 1  
    73   32   70 1  
    74   33   71 1  
    75   34   72 1  
    76   35   73 1  
    77   36   74 1  
    78   37   75 1  
@<TRIPOS>SUBSTRUCTURE
     1 G10         1

