### 
### Created by X-TOOL on Mon Sep 10 21:13:28 2018
### 

@<TRIPOS>MOLECULE
4yht_ligand
   47    50     1     0     0
SMALL
GAST_HUCK


@<TRIPOS>ATOM
      1 C1        -13.9530  -21.3920  -39.1430 C.ar      1 4EF         0.0601
      2 C2        -15.1540  -21.9700  -39.4970 C.ar      1 4EF         0.1369
      3 C3        -15.5760  -19.7990  -39.2400 C.2       1 4EF         0.0400
      4 C4        -14.2390  -20.0100  -38.9840 C.2       1 4EF         0.0457
      5 C5         -7.9480  -23.5930  -37.8000 C.ar      1 4EF        -0.0586
      6 C9         -9.2990  -21.6280  -38.0400 C.ar      1 4EF         0.0670
      7 C10        -8.0930  -22.2270  -37.7330 C.ar      1 4EF        -0.0510
      8 C8        -10.3890  -22.3870  -38.4180 C.ar      1 4EF         0.0868
      9 C7        -10.2530  -23.7610  -38.4870 C.ar      1 4EF        -0.0223
     10 C6         -9.0360  -24.3410  -38.1800 C.ar      1 4EF         0.0856
     11 O2         -7.3930  -26.3350  -38.3580 O.2       1 4EF        -0.1521
     12 O1         -9.5530  -26.6810  -37.1390 O.2       1 4EF        -0.1521
     13 N1        -16.1200  -21.0070  -39.5500 N.pl3     1 4EF        -0.2648
     14 C12       -12.8330  -22.2050  -39.0330 C.ar      1 4EF         0.1359
     15 C13       -14.2140  -23.9350  -39.6060 C.ar      1 4EF         0.0506
     16 C14        -9.0790  -19.5510  -39.1900 C.3       1 4EF         0.0483
     17 C15        -8.8810  -19.7100  -36.7400 C.3       1 4EF         0.0483
     18 O3         -8.7280  -17.5840  -37.8660 O.3       1 4EF        -0.3759
     19 N2        -11.5800  -21.6790  -38.6950 N.pl3     1 4EF        -0.2591
     20 C16        -9.4250  -18.0840  -39.0050 C.3       1 4EF         0.0670
     21 C17        -9.2120  -18.2310  -36.6820 C.3       1 4EF         0.0670
     22 N3         -9.6780  -26.5570  -39.6540 N.am      1 4EF        -0.2520
     23 S          -8.8160  -26.1110  -38.2440 S.o2      1 4EF         0.0597
     24 CL        -13.1060  -18.8200  -38.5530 Cl        1 4EF        -0.1037
     25 N4        -12.9960  -23.5050  -39.2720 N.ar      1 4EF        -0.2706
     26 N5        -15.3520  -23.2570  -39.7510 N.ar      1 4EF        -0.2767
     27 N6         -9.4620  -20.2370  -37.9640 N.pl3     1 4EF        -0.3076
     28 C11        -8.9040  -26.5880  -40.9000 C.3       1 4EF         0.0149
     29 H1        -16.0992  -18.8447  -39.2015 H         1 4EF         0.0941
     30 H2         -7.0026  -24.0659  -37.5599 H         1 4EF         0.0507
     31 H3         -7.2506  -21.6131  -37.4356 H         1 4EF         0.0480
     32 H4        -11.0941  -24.3790  -38.7796 H         1 4EF         0.0517
     33 H5        -17.1088  -21.1698  -39.7881 H         1 4EF         0.2326
     34 H6        -14.2896  -25.0010  -39.7875 H         1 4EF         0.0977
     35 H7         -7.9991  -19.6652  -39.3651 H         1 4EF         0.0532
     36 H8         -9.6348  -19.9654  -40.0440 H         1 4EF         0.0532
     37 H9         -9.3093  -20.2258  -35.8679 H         1 4EF         0.0532
     38 H10        -7.7902  -19.8512  -36.7503 H         1 4EF         0.0532
     39 H11       -11.5192  -20.6522  -38.6419 H         1 4EF         0.2147
     40 H12       -10.5088  -17.9771  -38.8506 H         1 4EF         0.0579
     41 H13        -9.1244  -17.5183  -39.8992 H         1 4EF         0.0579
     42 H14        -8.7339  -17.7830  -35.7984 H         1 4EF         0.0579
     43 H15       -10.3023  -18.1021  -36.6139 H         1 4EF         0.0579
     44 H16       -10.6518  -26.7831  -39.6299 H         1 4EF         0.1667
     45 H17        -9.5596  -26.8858  -41.7316 H         1 4EF         0.0439
     46 H18        -8.0822  -27.3128  -40.8033 H         1 4EF         0.0439
     47 H19        -8.4899  -25.5886  -41.0994 H         1 4EF         0.0439
@<TRIPOS>BOND
     1    1    2 ar 
     2    1    4 1  
     3   14    1 ar 
     4    2   13 1  
     5    2   26 ar 
     6    4    3 2  
     7    3   13 1  
     8    4   24 1  
     9    7    5 ar 
    10    5   10 ar 
    11    6    7 ar 
    12    6    8 ar 
    13   27    6 1  
    14    8    9 ar 
    15    8   19 1  
    16    9   10 ar 
    17   10   23 1  
    18   23   11 2  
    19   23   12 2  
    20   19   14 1  
    21   14   25 ar 
    22   25   15 ar 
    23   15   26 ar 
    24   16   20 1  
    25   27   16 1  
    26   17   21 1  
    27   17   27 1  
    28   20   18 1  
    29   18   21 1  
    30   23   22 am 
    31   22   28 1  
    32    3   29 1  
    33    5   30 1  
    34    7   31 1  
    35    9   32 1  
    36   13   33 1  
    37   15   34 1  
    38   16   35 1  
    39   16   36 1  
    40   17   37 1  
    41   17   38 1  
    42   19   39 1  
    43   20   40 1  
    44   20   41 1  
    45   21   42 1  
    46   21   43 1  
    47   22   44 1  
    48   28   45 1  
    49   28   46 1  
    50   28   47 1  
@<TRIPOS>SUBSTRUCTURE
     1 4EF         1

