### 
### Created by X-TOOL on Mon Sep 10 21:13:25 2018
### 

@<TRIPOS>MOLECULE
4yjn_ligand
   53    56     1     0     0
SMALL
GAST_HUCK


@<TRIPOS>ATOM
      1 O1         -2.9130  -24.0340  -30.8140 O.2       1 UW4        -0.4114
      2 C19        -1.9290  -23.2830  -30.9220 C.2       1 UW4         0.1682
      3 N3         -0.7300  -23.7540  -31.2340 N.am      1 UW4        -0.3083
      4 C18        -2.0770  -21.8630  -30.6440 C.2       1 UW4         0.0844
      5 C20        -3.2350  -21.2630  -30.1590 C.2       1 UW4         0.1814
      6 N4         -4.3910  -21.8690  -29.8550 N.pl3     1 UW4        -0.3015
      7 N          -2.9800  -19.9440  -30.0560 N.pl3     1 UW4        -0.1765
      8 C1         -3.8460  -18.8120  -29.5640 C.3       1 UW4         0.0848
      9 C3         -2.9820  -17.6440  -29.1040 C.3       1 UW4        -0.0307
     10 C2         -4.7180  -18.3350  -30.7140 C.3       1 UW4        -0.0307
     11 C          -4.7140  -19.3020  -28.4080 C.3       1 UW4        -0.0307
     12 C4         -1.1500  -20.8180  -30.8050 C.2       1 UW4         0.0371
     13 N1         -1.6780  -19.6400  -30.4800 N.2       1 UW4        -0.2262
     14 C5          0.2780  -20.8840  -31.1480 C.ar      1 UW4        -0.0138
     15 C10         1.2110  -20.2790  -30.3160 C.ar      1 UW4        -0.0525
     16 C9          2.5330  -20.2850  -30.6250 C.ar      1 UW4        -0.0454
     17 C8          2.9970  -20.9110  -31.7990 C.ar      1 UW4         0.0322
     18 N2          4.3380  -20.9020  -32.0660 N.ar      1 UW4        -0.2786
     19 C11         4.7170  -21.5300  -33.1430 C.ar      1 UW4         0.1647
     20 C16         3.8840  -22.1570  -34.0620 C.ar      1 UW4         0.0018
     21 C17         2.5560  -22.1550  -33.8090 C.ar      1 UW4        -0.0376
     22 C7          2.0650  -21.5360  -32.6500 C.ar      1 UW4        -0.0009
     23 C6          0.6960  -21.5070  -32.2940 C.ar      1 UW4        -0.0436
     24 O           6.0260  -21.7330  -33.3750 O.3       1 UW4        -0.2920
     25 C12         6.9240  -21.5720  -32.2340 C.3       1 UW4         0.0867
     26 C15         8.3820  -21.8950  -32.5650 C.3       1 UW4        -0.0213
     27 C14         8.7720  -20.5710  -31.9000 C.3       1 UW4        -0.0475
     28 C13         7.2960  -20.1140  -31.9640 C.3       1 UW4        -0.0213
     29 H1          0.0469  -23.1296  -31.3152 H         1 UW4         0.1790
     30 H2         -0.6023  -24.7337  -31.3882 H         1 UW4         0.1790
     31 H3         -4.4839  -22.8884  -29.9698 H         1 UW4         0.1827
     32 H4         -5.1866  -21.3154  -29.5065 H         1 UW4         0.1827
     33 H5         -3.6280  -16.8277  -28.7486 H         1 UW4         0.0263
     34 H6         -2.3697  -17.2872  -29.9453 H         1 UW4         0.0263
     35 H7         -2.3247  -17.9739  -28.2860 H         1 UW4         0.0263
     36 H8         -5.3569  -17.5079  -30.3710 H         1 UW4         0.0263
     37 H9         -5.3492  -19.1649  -31.0643 H         1 UW4         0.0263
     38 H10        -4.0789  -17.9869  -31.5389 H         1 UW4         0.0263
     39 H11        -5.3461  -18.4766  -28.0486 H         1 UW4         0.0263
     40 H12        -4.0695  -19.6537  -27.5889 H         1 UW4         0.0263
     41 H13        -5.3521  -20.1288  -28.7534 H         1 UW4         0.0263
     42 H14         0.8784  -19.7942  -29.4053 H         1 UW4         0.0646
     43 H15         3.2403  -19.8023  -29.9604 H         1 UW4         0.0611
     44 H16         4.2851  -22.6310  -34.9505 H         1 UW4         0.0664
     45 H17         1.8712  -22.6314  -34.5012 H         1 UW4         0.0757
     46 H18        -0.0332  -21.9851  -32.9380 H         1 UW4         0.0645
     47 H19         6.5254  -22.1096  -31.3610 H         1 UW4         0.0660
     48 H20         8.6049  -21.9486  -33.6408 H         1 UW4         0.0295
     49 H21         8.7763  -22.7912  -32.0637 H         1 UW4         0.0295
     50 H22         9.4607  -19.9537  -32.4955 H         1 UW4         0.0267
     51 H23         9.1661  -20.6789  -30.8787 H         1 UW4         0.0267
     52 H24         6.9009  -19.7070  -31.0216 H         1 UW4         0.0295
     53 H25         7.0657  -19.4220  -32.7875 H         1 UW4         0.0295
@<TRIPOS>BOND
     1    1    2 2  
     2    2    3 am 
     3    2    4 1  
     4    4    5 2  
     5    4   12 1  
     6    5    6 1  
     7    5    7 1  
     8    7    8 1  
     9    7   13 1  
    10    8    9 1  
    11    8   10 1  
    12    8   11 1  
    13   12   13 2  
    14   12   14 1  
    15   14   15 ar 
    16   14   23 ar 
    17   15   16 ar 
    18   16   17 ar 
    19   17   18 ar 
    20   17   22 ar 
    21   18   19 ar 
    22   19   20 ar 
    23   19   24 1  
    24   20   21 ar 
    25   21   22 ar 
    26   22   23 ar 
    27   24   25 1  
    28   25   26 1  
    29   25   28 1  
    30   26   27 1  
    31   27   28 1  
    32    3   29 1  
    33    3   30 1  
    34    6   31 1  
    35    6   32 1  
    36    9   33 1  
    37    9   34 1  
    38    9   35 1  
    39   10   36 1  
    40   10   37 1  
    41   10   38 1  
    42   11   39 1  
    43   11   40 1  
    44   11   41 1  
    45   15   42 1  
    46   16   43 1  
    47   20   44 1  
    48   21   45 1  
    49   23   46 1  
    50   25   47 1  
    51   26   48 1  
    52   26   49 1  
    53   27   50 1  
    54   27   51 1  
    55   28   52 1  
    56   28   53 1  
@<TRIPOS>SUBSTRUCTURE
     1 UW4         1

