### 
### Created by X-TOOL on Mon Sep 10 21:13:30 2018
### 

@<TRIPOS>MOLECULE
4yk0_ligand
   25    26     1     0     0
SMALL
GAST_HUCK


@<TRIPOS>ATOM
      1 C1        -31.7800    4.1330  -37.7770 C.3       1 98         -0.0410
      2 C2        -31.7560    3.0540  -38.8380 C.3       1 98          0.0471
      3 C3        -32.6040    3.4760  -40.0370 C.3       1 98          0.0641
      4 C4        -34.0740    3.6440  -39.6780 C.2       1 98          0.2026
      5 O         -34.5400    4.7740  -39.4920 O.2       1 98         -0.3864
      6 N1        -34.8520    2.5830  -39.5140 N.am      1 98         -0.2383
      7 C5        -34.4110    1.3260  -39.5660 C.ar      1 98          0.0856
      8 C10       -35.2470    0.3990  -40.2030 C.ar      1 98         -0.0522
      9 C9        -34.7880   -0.9400  -40.2590 C.ar      1 98         -0.0891
     10 C8        -33.5520   -1.2870  -39.7130 C.ar      1 98         -0.0893
     11 C7        -32.7420   -0.3390  -39.0970 C.ar      1 98         -0.0573
     12 C6        -33.1650    0.9720  -39.0210 C.ar      1 98          0.0613
     13 N2        -32.2840    1.7850  -38.3710 N.pl3     1 98         -0.3235
     14 H1        -31.3688    5.0649  -38.1924 H         1 98          0.0253
     15 H2        -31.1721    3.8153  -36.9171 H         1 98          0.0253
     16 H3        -32.8165    4.3032  -37.4505 H         1 98          0.0253
     17 H4        -30.7138    2.9093  -39.1588 H         1 98          0.0565
     18 H5        -32.5171    2.7075  -40.8192 H         1 98          0.0529
     19 H6        -32.2223    4.4339  -40.4200 H         1 98          0.0529
     20 H7        -35.8253    2.7343  -39.3414 H         1 98          0.2217
     21 H8        -36.1984    0.6923  -40.6319 H         1 98          0.0459
     22 H9        -35.4013   -1.7001  -40.7293 H         1 98          0.0466
     23 H10       -33.2162   -2.3161  -39.7700 H         1 98          0.0454
     24 H11       -31.7845   -0.6283  -38.6793 H         1 98          0.0466
     25 H12       -31.9577    1.4637  -37.4484 H         1 98          0.1718
@<TRIPOS>BOND
     1    1    2 1  
     2    2    3 1  
     3    2   13 1  
     4    3    4 1  
     5    4    5 2  
     6    4    6 am 
     7    6    7 1  
     8    7    8 ar 
     9    7   12 ar 
    10    8    9 ar 
    11    9   10 ar 
    12   10   11 ar 
    13   11   12 ar 
    14   12   13 1  
    15    1   14 1  
    16    1   15 1  
    17    1   16 1  
    18    2   17 1  
    19    3   18 1  
    20    3   19 1  
    21    6   20 1  
    22    8   21 1  
    23    9   22 1  
    24   10   23 1  
    25   11   24 1  
    26   13   25 1  
@<TRIPOS>SUBSTRUCTURE
     1 98          1

