### 
### Created by X-TOOL on Mon Sep 10 21:13:21 2018
### 

@<TRIPOS>MOLECULE
4yk5_ligand
   69    73     1     0     0
SMALL
GAST_HUCK


@<TRIPOS>ATOM
      1 O1         18.4020   18.7250   32.5390 O.co2     1 4DV        -0.5474
      2 C7         10.1030   17.7040   28.2370 C.ar      1 4DV        -0.0716
      3 O2         17.0480   17.2110   33.4570 O.co2     1 4DV        -0.5474
      4 C6         10.7920   17.1290   27.1530 C.ar      1 4DV        -0.0393
      5 C1         14.1770   17.1160   30.3720 C.2       1 4DV         0.0430
      6 N1         12.9270   17.6310   30.7180 N.pl3     1 4DV        -0.2555
      7 C5         12.1390   16.7530   27.3500 C.ar      1 4DV        -0.0709
      8 C4         12.7860   16.9610   28.5880 C.ar      1 4DV        -0.0300
      9 C3         15.1830   16.0640   28.2140 C.3       1 4DV        -0.0543
     10 C2         14.1070   16.6910   29.0480 C.2       1 4DV        -0.0506
     11 CL1        10.0960   12.7210   34.3900 Cl        1 4DV        -0.0771
     12 C32        10.7580   14.1580   33.7310 C.ar      1 4DV         0.0330
     13 C31         9.9230   15.0370   33.0440 C.ar      1 4DV        -0.0545
     14 C30        10.4590   16.2110   32.5040 C.ar      1 4DV        -0.0572
     15 C33        12.1170   14.4340   33.8970 C.ar      1 4DV        -0.0545
     16 C34        12.6510   15.6110   33.3590 C.ar      1 4DV        -0.0572
     17 C29        11.8260   16.5130   32.6580 C.ar      1 4DV        -0.0145
     18 C28        12.4230   17.7800   32.0880 C.3       1 4DV         0.0834
     19 C9         12.0690   17.5440   29.6320 C.ar      1 4DV         0.0617
     20 C23        15.3560   17.0540   31.3160 C.3       1 4DV         0.0096
     21 C24        16.2810   18.3000   31.4070 C.3       1 4DV         0.0215
     22 C27        17.3450   18.1110   32.4970 C.2       1 4DV         0.0524
     23 C26        15.5440   19.6370   31.6130 C.3       1 4DV        -0.0534
     24 C25        17.0370   18.4290   30.0570 C.3       1 4DV        -0.0534
     25 C8         10.7210   17.9240   29.4770 C.ar      1 4DV        -0.0464
     26 C10        10.1250   16.8820   25.8620 C.ar      1 4DV        -0.0293
     27 C15         9.0470   17.6630   25.3880 C.ar      1 4DV        -0.0609
     28 C14         8.4330   17.3750   24.1540 C.ar      1 4DV        -0.0579
     29 C13         8.8820   16.2950   23.3690 C.ar      1 4DV         0.0117
     30 C12         9.9430   15.5240   23.8530 C.ar      1 4DV         0.1385
     31 F1         10.4010   14.4850   23.1390 F         1 4DV        -0.1829
     32 C11        10.5560   15.8040   25.0720 C.ar      1 4DV        -0.0233
     33 C16         8.2670   15.9520   22.0770 C.ar      1 4DV        -0.0161
     34 C21         8.7020   16.4690   20.8250 C.ar      1 4DV        -0.0380
     35 C22         9.8370   17.4520   20.6790 C.3       1 4DV        -0.0301
     36 C20         8.0410   16.0550   19.6500 C.ar      1 4DV        -0.0601
     37 C19         6.9770   15.1470   19.6890 C.ar      1 4DV        -0.0690
     38 C18         6.5540   14.6320   20.9110 C.ar      1 4DV        -0.0687
     39 C17         7.1950   15.0300   22.0870 C.ar      1 4DV        -0.0614
     40 H1          9.0639   17.9853   28.1100 H         1 4DV         0.0511
     41 H2         12.6874   16.2955   26.5345 H         1 4DV         0.0523
     42 H3         16.1018   15.9697   28.8114 H         1 4DV         0.0286
     43 H4         15.3804   16.6953   27.3351 H         1 4DV         0.0286
     44 H5         14.8566   15.0669   27.8835 H         1 4DV         0.0286
     45 H6          8.8686   14.8133   32.9291 H         1 4DV         0.0606
     46 H7          9.8160   16.8948   31.9618 H         1 4DV         0.0558
     47 H8         12.7530   13.7426   34.4379 H         1 4DV         0.0606
     48 H9         13.7055   15.8298   33.4824 H         1 4DV         0.0558
     49 H10        11.6477   18.5603   32.0897 H         1 4DV         0.0759
     50 H11        13.2579   18.0911   32.7331 H         1 4DV         0.0759
     51 H12        15.9810   16.2042   31.0043 H         1 4DV         0.0440
     52 H13        14.9587   16.8666   32.3245 H         1 4DV         0.0440
     53 H14        16.2770   20.4555   31.6649 H         1 4DV         0.0228
     54 H15        14.9702   19.5987   32.5507 H         1 4DV         0.0228
     55 H16        14.8586   19.8115   30.7705 H         1 4DV         0.0228
     56 H17        17.5863   17.4978   29.8539 H         1 4DV         0.0228
     57 H18        17.7460   19.2682   30.1125 H         1 4DV         0.0228
     58 H19        16.3144   18.6123   29.2481 H         1 4DV         0.0228
     59 H20        10.1743   18.3758   30.2968 H         1 4DV         0.0536
     60 H21         8.6878   18.4952   25.9825 H         1 4DV         0.0576
     61 H22         7.6097   17.9882   23.8059 H         1 4DV         0.0601
     62 H23        11.3753   15.1825   25.4148 H         1 4DV         0.0592
     63 H24         9.9766   17.6955   19.6154 H         1 4DV         0.0395
     64 H25        10.7608   17.0073   21.0776 H         1 4DV         0.0395
     65 H26         9.6012   18.3699   21.2374 H         1 4DV         0.0395
     66 H27         8.3649   16.4496   18.6938 H         1 4DV         0.0554
     67 H28         6.4843   14.8460   18.7715 H         1 4DV         0.0595
     68 H29         5.7321   13.9263   20.9501 H         1 4DV         0.0559
     69 H30         6.8611   14.6205   23.0335 H         1 4DV         0.0597
@<TRIPOS>BOND
     1   22    1 ar 
     2    4    2 ar 
     3   25    2 ar 
     4   22    3 ar 
     5    7    4 ar 
     6    4   26 1  
     7    5    6 1  
     8    5   10 2  
     9   20    5 1  
    10    6   18 1  
    11    6   19 1  
    12    8    7 ar 
    13   10    8 1  
    14    8   19 ar 
    15   10    9 1  
    16   12   11 1  
    17   13   12 ar 
    18   15   12 ar 
    19   14   13 ar 
    20   17   14 ar 
    21   16   15 ar 
    22   17   16 ar 
    23   18   17 1  
    24   19   25 ar 
    25   21   20 1  
    26   21   22 1  
    27   21   23 1  
    28   21   24 1  
    29   26   27 ar 
    30   26   32 ar 
    31   27   28 ar 
    32   28   29 ar 
    33   29   30 ar 
    34   29   33 1  
    35   30   31 1  
    36   30   32 ar 
    37   33   34 ar 
    38   33   39 ar 
    39   34   35 1  
    40   34   36 ar 
    41   36   37 ar 
    42   37   38 ar 
    43   38   39 ar 
    44    2   40 1  
    45    7   41 1  
    46    9   42 1  
    47    9   43 1  
    48    9   44 1  
    49   13   45 1  
    50   14   46 1  
    51   15   47 1  
    52   16   48 1  
    53   18   49 1  
    54   18   50 1  
    55   20   51 1  
    56   20   52 1  
    57   23   53 1  
    58   23   54 1  
    59   23   55 1  
    60   24   56 1  
    61   24   57 1  
    62   24   58 1  
    63   25   59 1  
    64   27   60 1  
    65   28   61 1  
    66   32   62 1  
    67   35   63 1  
    68   35   64 1  
    69   35   65 1  
    70   36   66 1  
    71   37   67 1  
    72   38   68 1  
    73   39   69 1  
@<TRIPOS>SUBSTRUCTURE
     1 4DV         1

