### 
### Created by X-TOOL on Mon Sep 10 21:13:20 2018
### 

@<TRIPOS>MOLECULE
4ykj_ligand
   13    12     1     0     0
SMALL
GAST_HUCK


@<TRIPOS>ATOM
      1 N          10.0050   61.4600   43.6890 N.4       1 ALA         0.2325
      2 CA          8.9380   60.4690   43.9890 C.3       1 ALA         0.0255
      3 C           8.3520   60.7200   45.3690 C.2       1 ALA         0.0841
      4 O           7.3650   60.0720   45.7730 O.co2     1 ALA        -0.5643
      5 CB          9.5080   59.0820   43.9000 C.3       1 ALA        -0.0095
      6 OXT         8.8610   61.6020   46.0820 O.co2     1 ALA        -0.5643
      7 H1         10.3825   61.2799   42.7719 H         1 ALA         0.2010
      8 H2         10.7388   61.3819   44.3756 H         1 ALA         0.2010
      9 H3          9.6171   62.3900   43.7160 H         1 ALA         0.2010
     10 H4          8.1363   60.5722   43.2429 H         1 ALA         0.1021
     11 H5          8.7202   58.3470   44.1216 H         1 ALA         0.0303
     12 H6         10.3255   58.9741   44.6281 H         1 ALA         0.0303
     13 H7          9.8956   58.9093   42.8852 H         1 ALA         0.0303
@<TRIPOS>BOND
     1    1    2 1  
     2    2    3 1  
     3    2    5 1  
     4    3    4 ar 
     5    3    6 ar 
     6    1    7 1  
     7    1    8 1  
     8    1    9 1  
     9    2   10 1  
    10    5   11 1  
    11    5   12 1  
    12    5   13 1  
@<TRIPOS>SUBSTRUCTURE
     1 ALA         1

