### 
### Created by X-TOOL on Mon Sep 10 21:13:20 2018
### 

@<TRIPOS>MOLECULE
4ykk_ligand
   14    13     1     0     0
SMALL
GAST_HUCK


@<TRIPOS>ATOM
      1 N           9.7080   61.3640   43.7050 N.4       1 DSN         0.2343
      2 CA          9.0820   60.2020   44.3220 C.3       1 DSN         0.0519
      3 C           8.1950   60.6240   45.4810 C.2       1 DSN         0.0867
      4 O           7.1070   60.0620   45.7340 O.co2     1 DSN        -0.5642
      5 OXT         8.5790   61.5580   46.1860 O.co2     1 DSN        -0.5642
      6 CB          8.2680   59.4260   43.3000 C.3       1 DSN         0.0987
      7 OG          7.0400   60.0660   43.0400 O.3       1 DSN        -0.3876
      8 H1         10.2915   61.0645   42.9396 H         1 DSN         0.2011
      9 H2         10.2713   61.8449   44.3887 H         1 DSN         0.2011
     10 H3          8.9943   61.9865   43.3598 H         1 DSN         0.2011
     11 H4          9.8746   59.5450   44.7094 H         1 DSN         0.1047
     12 H5          8.0717   58.4159   43.6887 H         1 DSN         0.0633
     13 H6          8.8410   59.3537   42.3638 H         1 DSN         0.0633
     14 H7          7.2042   60.9379   42.7005 H         1 DSN         0.2098
@<TRIPOS>BOND
     1    1    2 1  
     2    2    3 1  
     3    2    6 1  
     4    3    4 ar 
     5    3    5 ar 
     6    6    7 1  
     7    1    8 1  
     8    1    9 1  
     9    1   10 1  
    10    2   11 1  
    11    6   12 1  
    12    6   13 1  
    13    7   14 1  
@<TRIPOS>SUBSTRUCTURE
     1 DSN         1

