### 
### Created by X-TOOL on Mon Sep 10 21:13:24 2018
### 

@<TRIPOS>MOLECULE
4ykn_ligand
   55    58     1     0     0
SMALL
GAST_HUCK


@<TRIPOS>ATOM
      1 C10         0.7280    2.5560  -41.4180 C.ar      1 4EL        -0.0494
      2 C15        -1.1500    6.2070  -39.7110 C.ar      1 4EL        -0.0425
      3 C17        -0.3140    6.0820  -37.4650 C.ar      1 4EL         0.1022
      4 C24        -2.2280    4.3430  -35.5750 C.2       1 4EL         0.2108
      5 C28        -3.8930    0.7910  -36.5660 C.3       1 4EL         0.0020
      6 C01        -3.5580   -1.8830  -38.3040 C.3       1 4EL         0.0634
      7 O02        -2.7840   -2.3170  -39.3850 O.3       1 4EL        -0.3014
      8 C03        -1.8230   -1.3980  -39.8270 C.ar      1 4EL         0.1654
      9 C04        -1.8890   -0.0840  -39.3950 C.ar      1 4EL        -0.0034
     10 C05        -0.9310    0.8060  -39.8470 C.ar      1 4EL        -0.0430
     11 C06         0.0460    0.3500  -40.7200 C.ar      1 4EL        -0.0024
     12 C07         0.0500   -0.9810  -41.1080 C.ar      1 4EL         0.0082
     13 N08        -0.8780   -1.8080  -40.6580 N.ar      1 4EL        -0.2720
     14 C09         1.0260    1.2200  -41.1850 C.ar      1 4EL        -0.0208
     15 C11         1.7170    3.4190  -41.8780 C.ar      1 4EL        -0.0187
     16 C12         1.4140    4.8930  -42.1390 C.3       1 4EL         0.0578
     17 N13         0.1280    5.2740  -41.5880 N.pl3     1 4EL        -0.3117
     18 C14        -0.0180    5.5500  -40.1680 C.ar      1 4EL         0.0396
     19 C16        -1.2990    6.4720  -38.3580 C.ar      1 4EL        -0.0465
     20 C18         0.8200    5.4240  -37.9180 C.ar      1 4EL        -0.0465
     21 C19         0.9670    5.1590  -39.2710 C.ar      1 4EL        -0.0425
     22 S20        -0.5250    6.4350  -35.6950 S.o2      1 4EL         0.0915
     23 O21        -0.5240    7.8780  -35.4390 O.2       1 4EL        -0.1448
     24 O22         0.6230    5.9730  -34.9130 O.2       1 4EL        -0.1448
     25 N23        -1.9580    5.6960  -35.1350 N.am      1 4EL        -0.1472
     26 N25        -1.3410    3.4860  -36.0450 N.2       1 4EL        -0.2846
     27 N26        -1.8230    2.2630  -36.4020 N.2       1 4EL        -0.2929
     28 C27        -3.1190    2.0650  -36.2400 C.2       1 4EL         0.0924
     29 S29        -3.7520    3.5340  -35.5900 S.3       1 4EL         0.0575
     30 C30         2.9970    2.9480  -42.1020 C.ar      1 4EL        -0.0450
     31 C31         3.2920    1.6190  -41.8680 C.ar      1 4EL         0.0036
     32 C32         2.3090    0.7530  -41.4100 C.ar      1 4EL        -0.0476
     33 C33         4.7100    1.1160  -42.1220 C.2       1 4EL         0.0613
     34 O34         5.6930    1.7610  -41.6640 O.co2     1 4EL        -0.5607
     35 O35         4.8950    0.0550  -42.7760 O.co2     1 4EL        -0.5607
     36 H1         -0.2753    2.9264  -41.2414 H         1 4EL         0.0574
     37 H2         -1.9186    6.5136  -40.4112 H         1 4EL         0.0515
     38 H3         -3.2020    0.0345  -36.9663 H         1 4EL         0.0464
     39 H4         -4.6669    1.0137  -37.3153 H         1 4EL         0.0464
     40 H5         -4.3679    0.4063  -35.6514 H         1 4EL         0.0464
     41 H6         -4.2791   -2.6675  -38.0310 H         1 4EL         0.0584
     42 H7         -4.1004   -0.9683  -38.5852 H         1 4EL         0.0584
     43 H8         -2.9034   -1.6719  -37.4456 H         1 4EL         0.0584
     44 H9         -2.6723    0.2395  -38.7191 H         1 4EL         0.0639
     45 H10        -0.9436    1.8409  -39.5248 H         1 4EL         0.0713
     46 H11         0.8166   -1.3448  -41.7826 H         1 4EL         0.0800
     47 H12         1.4048    5.0698  -43.2246 H         1 4EL         0.0674
     48 H13         2.1989    5.5076  -41.6740 H         1 4EL         0.0674
     49 H14        -0.6903    5.3499  -42.2089 H         1 4EL         0.1781
     50 H15        -2.1849    6.9836  -37.9995 H         1 4EL         0.0602
     51 H16         1.5882    5.1182  -37.2170 H         1 4EL         0.0602
     52 H17         1.8522    4.6458  -39.6290 H         1 4EL         0.0515
     53 H18        -2.5873    6.1790  -34.5261 H         1 4EL         0.2319
     54 H19         3.7680    3.6203  -42.4607 H         1 4EL         0.0585
     55 H20         2.5462   -0.2891  -41.2286 H         1 4EL         0.0595
@<TRIPOS>BOND
     1    1   14 ar 
     2   15    1 ar 
     3    2   18 ar 
     4   19    2 ar 
     5    3   19 ar 
     6    3   20 ar 
     7   22    3 1  
     8    4   25 1  
     9   26    4 2  
    10    4   29 1  
    11   28    5 1  
    12    7    6 1  
    13    8    7 1  
    14    9    8 ar 
    15   13    8 ar 
    16   10    9 ar 
    17   11   10 ar 
    18   11   12 ar 
    19   14   11 1  
    20   12   13 ar 
    21   14   32 ar 
    22   16   15 1  
    23   15   30 ar 
    24   17   16 1  
    25   18   17 1  
    26   21   18 ar 
    27   20   21 ar 
    28   22   23 2  
    29   22   24 2  
    30   25   22 am 
    31   27   26 1  
    32   27   28 2  
    33   28   29 1  
    34   30   31 ar 
    35   31   32 ar 
    36   31   33 1  
    37   33   34 ar 
    38   33   35 ar 
    39    1   36 1  
    40    2   37 1  
    41    5   38 1  
    42    5   39 1  
    43    5   40 1  
    44    6   41 1  
    45    6   42 1  
    46    6   43 1  
    47    9   44 1  
    48   10   45 1  
    49   12   46 1  
    50   16   47 1  
    51   16   48 1  
    52   17   49 1  
    53   19   50 1  
    54   20   51 1  
    55   21   52 1  
    56   25   53 1  
    57   30   54 1  
    58   32   55 1  
@<TRIPOS>SUBSTRUCTURE
     1 4EL         1

