### 
### Created by X-TOOL on Mon Sep 10 21:13:24 2018
### 

@<TRIPOS>MOLECULE
4yl0_ligand
   39    43     1     0     0
SMALL
GAST_HUCK


@<TRIPOS>ATOM
      1 C7         11.4190   12.7890   34.5600 C.ar      1 4DZ        -0.0172
      2 C6          9.7280   14.1890   33.5390 C.ar      1 4DZ        -0.0172
      3 C1         10.3080   16.0950   32.1680 C.1       1 4DZ         0.1019
      4 C5         10.0710   13.0900   34.3310 C.ar      1 4DZ        -0.0387
      5 C4         17.8100   18.4400   33.6860 C.ar      1 4DZ        -0.0629
      6 C3         18.4820   18.8610   32.5410 C.ar      1 4DZ        -0.0631
      7 C2         13.7840   13.2080   34.2780 C.1       1 4DZ         0.1019
      8 CL         16.9380   17.9270   25.8570 Cl        1 4DZ        -0.0735
      9 C22        16.1940   17.4600   27.3370 C.ar      1 4DZ         0.0373
     10 C11        15.0100   16.7250   27.3140 C.ar      1 4DZ        -0.0512
     11 C12        16.7840   17.8240   28.5600 C.ar      1 4DZ        -0.0440
     12 C18        16.2150   17.4640   29.8120 C.ar      1 4DZ        -0.0159
     13 C15        16.7780   17.8080   31.0950 C.ar      1 4DZ        -0.0126
     14 C8         17.9760   18.5530   31.2700 C.ar      1 4DZ        -0.0561
     15 C17        15.0030   16.7090   29.7490 C.ar      1 4DZ        -0.0123
     16 C10        14.4090   16.3470   28.5130 C.ar      1 4DZ        -0.0580
     17 C21        14.3890   16.3250   30.9640 C.ar      1 4DZ         0.0483
     18 N27        13.2450   15.6130   31.2490 N.2       1 4DZ        -0.2971
     19 C23        13.1130   15.5220   32.6050 C.2       1 4DZ         0.1563
     20 C19        12.0880   14.6910   33.2030 C.ar      1 4DZ         0.0958
     21 C14        12.4280   13.5830   33.9990 C.ar      1 4DZ         0.1177
     22 N25        14.8840   12.9090   34.5010 N.1       1 4DZ        -0.3300
     23 C13        10.7320   14.9880   32.9770 C.ar      1 4DZ         0.1177
     24 N24         9.9550   16.9840   31.5120 N.1       1 4DZ        -0.3300
     25 N26        14.0990   16.1360   33.2220 N.pl3     1 4DZ        -0.2460
     26 C20        14.9090   16.6400   32.2190 C.ar      1 4DZ         0.0983
     27 C16        16.1140   17.3910   32.2950 C.ar      1 4DZ         0.0149
     28 C9         16.6310   17.7070   33.5720 C.ar      1 4DZ        -0.0533
     29 H1         11.6837   11.9365   35.1750 H         1 4DZ         0.0789
     30 H2          8.6849   14.4232   33.3595 H         1 4DZ         0.0789
     31 H3          9.2948   12.4717   34.7673 H         1 4DZ         0.0674
     32 H4         18.2045   18.6828   34.6660 H         1 4DZ         0.0606
     33 H5         19.4005   19.4294   32.6328 H         1 4DZ         0.0607
     34 H6         14.5588   16.4487   26.3679 H         1 4DZ         0.0610
     35 H7         17.7033   18.3982   28.5479 H         1 4DZ         0.0619
     36 H8         18.5152   18.8937   30.3935 H         1 4DZ         0.0615
     37 H9         13.4875   15.7763   28.5011 H         1 4DZ         0.0596
     38 H10        14.2391   16.2235   34.2387 H         1 4DZ         0.2361
     39 H11        16.1094   17.3785   34.4637 H         1 4DZ         0.0619
@<TRIPOS>BOND
     1    1    4 ar 
     2   21    1 ar 
     3    4    2 ar 
     4    2   23 ar 
     5   23    3 1  
     6    3   24 3  
     7    6    5 ar 
     8    5   28 ar 
     9   14    6 ar 
    10   21    7 1  
    11    7   22 3  
    12    9    8 1  
    13   10    9 ar 
    14   11    9 ar 
    15   16   10 ar 
    16   12   11 ar 
    17   12   13 ar 
    18   15   12 ar 
    19   13   14 ar 
    20   13   27 ar 
    21   15   16 ar 
    22   17   15 ar 
    23   18   17 1  
    24   17   26 ar 
    25   19   18 2  
    26   20   19 1  
    27   19   25 1  
    28   20   21 ar 
    29   20   23 ar 
    30   25   26 1  
    31   26   27 ar 
    32   27   28 ar 
    33    1   29 1  
    34    2   30 1  
    35    4   31 1  
    36    5   32 1  
    37    6   33 1  
    38   10   34 1  
    39   11   35 1  
    40   14   36 1  
    41   16   37 1  
    42   25   38 1  
    43   28   39 1  
@<TRIPOS>SUBSTRUCTURE
     1 4DZ         1

