### 
### Created by X-TOOL on Mon Sep 10 21:13:21 2018
### 

@<TRIPOS>MOLECULE
4yl1_ligand
   60    63     1     0     0
SMALL
GAST_HUCK


@<TRIPOS>ATOM
      1 O1         11.5330   15.5970   33.7160 O.3       1 4U8        -0.3201
      2 C7         17.5130   16.6890   23.1990 C.ar      1 4U8        -0.0431
      3 O2         17.1610   17.2110   33.7310 O.co2     1 4U8        -0.5593
      4 C6         18.1470   17.8450   22.6900 C.ar      1 4U8        -0.0569
      5 C1         15.8130   16.8660   27.2570 C.ar      1 4U8        -0.0576
      6 N1         16.1680   17.3010   31.0050 N.pl3     1 4U8        -0.2148
      7 C5         18.3880   18.8860   23.6110 C.ar      1 4U8        -0.0431
      8 C4         18.0210   18.7750   24.9630 C.ar      1 4U8        -0.0283
      9 C3         17.3930   17.6190   25.4580 C.ar      1 4U8         0.0037
     10 C2         17.0080   17.5000   26.8780 C.ar      1 4U8        -0.0110
     11 O3         18.3600   19.0600   33.3380 O.co2     1 4U8        -0.5593
     12 C28        17.5960   18.2060   32.9210 C.2       1 4U8         0.0890
     13 C16        17.2940   17.9520   31.5290 C.2       1 4U8         0.1102
     14 C15        18.0910   18.3240   30.4570 C.2       1 4U8        -0.0411
     15 C19        14.9890   16.8950   31.7070 C.ar      1 4U8         0.0823
     16 C24        14.2460   17.8170   32.4600 C.ar      1 4U8        -0.0371
     17 C23        13.0890   17.4060   33.1430 C.ar      1 4U8        -0.0376
     18 C22        12.6520   16.0780   33.0790 C.ar      1 4U8         0.0839
     19 C25        11.0900   14.2300   33.6520 C.3       1 4U8         0.0741
     20 C27        11.8080   13.3790   34.6980 C.3       1 4U8        -0.0348
     21 C26         9.5950   14.2580   33.9610 C.3       1 4U8        -0.0348
     22 C21        13.3980   15.1630   32.3180 C.ar      1 4U8        -0.0376
     23 C20        14.5570   15.5620   31.6400 C.ar      1 4U8        -0.0371
     24 C17        16.2800   17.2720   29.6060 C.ar      1 4U8         0.0895
     25 C18        15.4360   16.7440   28.6030 C.ar      1 4U8        -0.0321
     26 C14        17.4760   17.9080   29.2580 C.ar      1 4U8        -0.0091
     27 C13        17.8370   18.0200   27.8950 C.ar      1 4U8        -0.0524
     28 C8         17.1490   16.5770   24.5490 C.ar      1 4U8        -0.0283
     29 C9         18.5410   17.9420   21.1950 C.3       1 4U8        -0.0535
     30 C12        19.9370   18.5580   20.9370 C.3       1 4U8        -0.0890
     31 C11        18.5650   16.5460   20.5280 C.3       1 4U8        -0.0890
     32 C10        17.5210   18.8310   20.4500 C.3       1 4U8        -0.0890
     33 H1         17.3019   15.8652   22.5268 H         1 4U8         0.0831
     34 H2         15.1647   16.4601   26.4889 H         1 4U8         0.0586
     35 H3         18.8686   19.7948   23.2671 H         1 4U8         0.0831
     36 H4         18.2265   19.5979   25.6381 H         1 4U8         0.0690
     37 H5         19.0402   18.8529   30.5294 H         1 4U8         0.0375
     38 H6         14.5662   18.8512   32.5150 H         1 4U8         0.0550
     39 H7         12.5278   18.1266   33.7269 H         1 4U8         0.0525
     40 H8         11.2710   13.8155   32.6493 H         1 4U8         0.0641
     41 H9         11.4542   12.3396   34.6308 H         1 4U8         0.0258
     42 H10        11.5946   13.7747   35.7019 H         1 4U8         0.0258
     43 H11        12.8921   13.4098   34.5145 H         1 4U8         0.0258
     44 H12         9.1944   13.2341   33.9271 H         1 4U8         0.0258
     45 H13         9.0779   14.8789   33.2147 H         1 4U8         0.0258
     46 H14         9.4357   14.6810   34.9638 H         1 4U8         0.0258
     47 H15        13.0715   14.1313   32.2543 H         1 4U8         0.0525
     48 H16        15.1214   14.8391   31.0622 H         1 4U8         0.0550
     49 H17        14.5085   16.2507   28.8703 H         1 4U8         0.0575
     50 H18        18.7647   18.5128   27.6274 H         1 4U8         0.0633
     51 H19        16.6703   15.6689   24.8971 H         1 4U8         0.0690
     52 H20        20.1306   18.5869   19.8546 H         1 4U8         0.0120
     53 H21        20.7053   17.9448   21.4307 H         1 4U8         0.0120
     54 H22        19.9674   19.5802   21.3423 H         1 4U8         0.0120
     55 H23        17.5935   16.0519   20.6767 H         1 4U8         0.0120
     56 H24        19.3598   15.9362   20.9822 H         1 4U8         0.0120
     57 H25        18.7586   16.6575   19.4509 H         1 4U8         0.0120
     58 H26        17.4945   19.8274   20.9152 H         1 4U8         0.0120
     59 H27        16.5230   18.3723   20.5088 H         1 4U8         0.0120
     60 H28        17.8191   18.9265   19.3955 H         1 4U8         0.0120
@<TRIPOS>BOND
     1   18    1 1  
     2    1   19 1  
     3    2    4 ar 
     4   28    2 ar 
     5   12    3 ar 
     6    7    4 ar 
     7    4   29 1  
     8    5   10 ar 
     9   25    5 ar 
    10    6   13 1  
    11    6   15 1  
    12   24    6 1  
    13    8    7 ar 
    14    9    8 ar 
    15   10    9 1  
    16    9   28 ar 
    17   10   27 ar 
    18   12   11 ar 
    19   13   12 1  
    20   13   14 2  
    21   14   26 1  
    22   15   16 ar 
    23   15   23 ar 
    24   16   17 ar 
    25   17   18 ar 
    26   22   18 ar 
    27   19   20 1  
    28   19   21 1  
    29   23   22 ar 
    30   24   25 ar 
    31   24   26 ar 
    32   26   27 ar 
    33   29   30 1  
    34   29   31 1  
    35   29   32 1  
    36    2   33 1  
    37    5   34 1  
    38    7   35 1  
    39    8   36 1  
    40   14   37 1  
    41   16   38 1  
    42   17   39 1  
    43   19   40 1  
    44   20   41 1  
    45   20   42 1  
    46   20   43 1  
    47   21   44 1  
    48   21   45 1  
    49   21   46 1  
    50   22   47 1  
    51   23   48 1  
    52   25   49 1  
    53   27   50 1  
    54   28   51 1  
    55   30   52 1  
    56   30   53 1  
    57   30   54 1  
    58   31   55 1  
    59   31   56 1  
    60   31   57 1  
    61   32   58 1  
    62   32   59 1  
    63   32   60 1  
@<TRIPOS>SUBSTRUCTURE
     1 4U8         1

