### 
### Created by X-TOOL on Mon Sep 10 21:13:21 2018
### 

@<TRIPOS>MOLECULE
4yl3_ligand
   43    46     1     0     0
SMALL
GAST_HUCK


@<TRIPOS>ATOM
      1 C7         16.6050   16.9500   25.8750 C.1       1 4U9        -0.0267
      2 C6         16.1780   16.7890   27.2200 C.ar      1 4U9         0.1005
      3 C1         13.3390   15.2890   32.5800 C.2       1 4U9         0.1419
      4 N1         13.5910   15.3610   31.2930 N.2       1 4U9        -0.3086
      5 C5         14.6330   15.8490   28.6380 C.ar      1 4U9         0.0160
      6 C4         15.2520   16.3610   29.7820 C.ar      1 4U9         0.0061
      7 BR1        16.6110   17.5480   32.9480 Br        1 4U9        -0.0128
      8 C3         15.1610   16.5110   32.3670 C.2       1 4U9         0.1290
      9 C2         14.7300   16.1130   31.1170 C.2       1 4U9         0.0478
     10 CL1        14.0560   12.8070   34.3500 Cl        1 4U9        -0.0683
     11 C23        12.4610   13.4260   34.0110 C.ar      1 4U9         0.0538
     12 C22        11.3600   12.7510   34.5800 C.ar      1 4U9        -0.0491
     13 C21        10.0520   13.2030   34.3530 C.ar      1 4U9        -0.0613
     14 C20         9.8290   14.3280   33.5580 C.ar      1 4U9        -0.0248
     15 C19        10.9200   14.9930   32.9920 C.ar      1 4U9         0.1489
     16 F4         10.7000   16.0740   32.2230 F         1 4U9        -0.1791
     17 C18        12.2390   14.5670   33.2120 C.ar      1 4U9         0.0771
     18 N2         14.2900   15.9880   33.2690 N.pl3     1 4U9        -0.2497
     19 C17        16.4050   17.1320   29.5750 C.ar      1 4U9        -0.0376
     20 C16        16.8820   17.3520   28.2790 C.ar      1 4U9        -0.0202
     21 N3         15.0670   16.0360   27.3640 N.ar      1 4U9        -0.2832
     22 C8         17.0240   17.0670   24.7560 C.1       1 4U9        -0.0315
     23 C9         17.5680   17.1410   23.4410 C.ar      1 4U9         0.0548
     24 C15        17.5890   16.0080   22.6180 C.ar      1 4U9        -0.0180
     25 C14        18.1290   16.0990   21.3290 C.ar      1 4U9        -0.0332
     26 C12        18.6500   17.3230   20.8610 C.ar      1 4U9         0.0406
     27 C13        19.2460   17.4190   19.4770 C.3       1 4U9         0.3685
     28 F3         20.4360   16.7600   19.3820 F         1 4U9        -0.2287
     29 F2         19.5010   18.7040   19.1000 F         1 4U9        -0.2287
     30 F1         18.4580   16.8850   18.5050 F         1 4U9        -0.2287
     31 C11        18.6210   18.4500   21.7040 C.ar      1 4U9        -0.0332
     32 C10        18.0820   18.3600   22.9900 C.ar      1 4U9        -0.0180
     33 H1         13.7363   15.2562   28.7782 H         1 4U9         0.0810
     34 H2         11.5267   11.8759   35.1976 H         1 4U9         0.0594
     35 H3          9.2133   12.6779   34.7956 H         1 4U9         0.0622
     36 H4          8.8199   14.6824   33.3813 H         1 4U9         0.0610
     37 H5         14.3380   16.0988   34.2919 H         1 4U9         0.2406
     38 H6         16.9284   17.5590   30.4228 H         1 4U9         0.0706
     39 H7         17.7736   17.9435   28.1051 H         1 4U9         0.0725
     40 H8         17.1896   15.0662   22.9766 H         1 4U9         0.0708
     41 H9         18.1466   15.2248   20.6883 H         1 4U9         0.0838
     42 H10        19.0198   19.3948   21.3528 H         1 4U9         0.0838
     43 H11        18.0626   19.2313   23.6347 H         1 4U9         0.0708
@<TRIPOS>BOND
     1    2    1 1  
     2    1   22 3  
     3    2   20 ar 
     4   21    2 ar 
     5    3    4 2  
     6   17    3 1  
     7    3   18 1  
     8    4    9 1  
     9    6    5 ar 
    10    5   21 ar 
    11    9    6 1  
    12    6   19 ar 
    13    8    7 1  
    14    8    9 2  
    15   18    8 1  
    16   11   10 1  
    17   11   12 ar 
    18   11   17 ar 
    19   12   13 ar 
    20   13   14 ar 
    21   14   15 ar 
    22   15   16 1  
    23   15   17 ar 
    24   19   20 ar 
    25   22   23 1  
    26   23   24 ar 
    27   23   32 ar 
    28   24   25 ar 
    29   25   26 ar 
    30   26   27 1  
    31   26   31 ar 
    32   27   28 1  
    33   27   29 1  
    34   27   30 1  
    35   31   32 ar 
    36    5   33 1  
    37   12   34 1  
    38   13   35 1  
    39   14   36 1  
    40   18   37 1  
    41   19   38 1  
    42   20   39 1  
    43   24   40 1  
    44   25   41 1  
    45   31   42 1  
    46   32   43 1  
@<TRIPOS>SUBSTRUCTURE
     1 4U9         1

