### 
### Created by X-TOOL on Mon Sep 10 21:13:24 2018
### 

@<TRIPOS>MOLECULE
4ylj_ligand
   29    32     1     0     0
SMALL
GAST_HUCK


@<TRIPOS>ATOM
      1 C4          9.8000    9.9100   24.2540 C.ar      1 4E1         0.0337
      2 C5         10.7670    9.5840   23.3300 C.ar      1 4E1        -0.0470
      3 C6          9.6740    9.2210   25.4520 C.ar      1 4E1         0.0990
      4 N1          7.9440   11.2600   24.8820 N.ar      1 4E1        -0.2994
      5 C7          8.7350    9.5780   26.3830 C.ar      1 4E1         0.0380
      6 C8          8.9360    8.6710   27.5060 C.ar      1 4E1         0.0063
      7 C9          8.2730    8.5550   28.7110 C.ar      1 4E1        -0.0639
      8 C10         8.6840    7.5410   29.6060 C.ar      1 4E1        -0.0707
      9 C11         9.7470    6.6770   29.2840 C.ar      1 4E1        -0.0608
     10 C12        10.3850    6.8140   28.0620 C.ar      1 4E1         0.0321
     11 C13         9.9870    7.8070   27.1790 C.ar      1 4E1         0.0827
     12 C14         7.8550   10.6200   26.0770 C.ar      1 4E1         0.0714
     13 C15         6.8090   11.1610   26.9320 C.2       1 4E1         0.0801
     14 I          11.9610    5.5680   27.5840 I         1 4E1        -0.0563
     15 N          10.4180    8.1630   25.9200 N.pl3     1 4E1        -0.2606
     16 O           5.8590   11.8720   26.3050 O.co2     1 4E1        -0.5558
     17 O1          6.8820   11.0540   28.1450 O.co2     1 4E1        -0.5558
     18 C3          8.8980   10.9250   23.9800 C.ar      1 4E1         0.0376
     19 C          10.8370   10.2760   22.1380 C.ar      1 4E1        -0.0589
     20 C1          9.9520   11.3070   21.8780 C.ar      1 4E1        -0.0592
     21 C2          8.9770   11.6240   22.7990 C.ar      1 4E1        -0.0445
     22 H1         11.4711    8.7865   23.5380 H         1 4E1         0.0647
     23 H2          7.4585    9.2239   28.9644 H         1 4E1         0.0602
     24 H3          8.1725    7.4272   30.5549 H         1 4E1         0.0532
     25 H4         10.0632    5.9126   29.9845 H         1 4E1         0.0602
     26 H5         11.1837    7.7049   25.4055 H         1 4E1         0.2254
     27 H6         11.5881   10.0107   21.4028 H         1 4E1         0.0619
     28 H7         10.0253   11.8646   20.9513 H         1 4E1         0.0637
     29 H8          8.2739   12.4228   22.5925 H         1 4E1         0.0625
@<TRIPOS>BOND
     1    1    2 ar 
     2    1    3 ar 
     3   18    1 ar 
     4    2   19 ar 
     5    3    5 ar 
     6    3   15 1  
     7    4   12 ar 
     8    4   18 ar 
     9    5    6 1  
    10    5   12 ar 
    11    6    7 ar 
    12    6   11 ar 
    13    7    8 ar 
    14    8    9 ar 
    15    9   10 ar 
    16   10   11 ar 
    17   10   14 1  
    18   11   15 1  
    19   12   13 1  
    20   13   16 ar 
    21   13   17 ar 
    22   18   21 ar 
    23   19   20 ar 
    24   20   21 ar 
    25    2   22 1  
    26    7   23 1  
    27    8   24 1  
    28    9   25 1  
    29   15   26 1  
    30   19   27 1  
    31   20   28 1  
    32   21   29 1  
@<TRIPOS>SUBSTRUCTURE
     1 4E1         1

