### 
### Created by X-TOOL on Mon Sep 10 21:13:20 2018
### 

@<TRIPOS>MOLECULE
4ylk_ligand
   29    32     1     0     0
SMALL
GAST_HUCK


@<TRIPOS>ATOM
      1 OAA        20.7800   52.8510   34.1340 O.co2     1 4E2        -0.5556
      2 CAM        20.1140   52.6970   35.2300 C.2       1 4E2         0.0807
      3 OAB        20.1570   53.1630   36.3980 O.co2     1 4E2        -0.5556
      4 CAP        19.3630   51.5910   35.2260 C.ar      1 4E2         0.0721
      5 NAK        19.7180   50.8270   34.1040 N.ar      1 4E2        -0.2983
      6 CAQ        19.1700   49.5850   33.9790 C.ar      1 4E2         0.0392
      7 CAI        19.5370   48.7250   32.9480 C.ar      1 4E2        -0.0429
      8 CAG        18.9550   47.4790   32.8400 C.ar      1 4E2        -0.0492
      9 CAN        17.9910   47.1180   33.7590 C.ar      1 4E2         0.0122
     10 IAD        17.0760   45.2670   33.5590 I         1 4E2        -0.0492
     11 CAJ        17.6260   47.9720   34.7980 C.ar      1 4E2        -0.0354
     12 CAR        18.2080   49.2160   34.9020 C.ar      1 4E2         0.0368
     13 CAU        17.8270   50.0740   35.9440 C.ar      1 4E2         0.0998
     14 CAV        18.3620   51.2810   36.2130 C.ar      1 4E2         0.0381
     15 CAS        17.6750   51.7890   37.3730 C.ar      1 4E2         0.0043
     16 CAH        17.7300   52.9650   38.1630 C.ar      1 4E2        -0.0664
     17 CAE        16.8440   53.0830   39.2580 C.ar      1 4E2        -0.0733
     18 CAF        15.9280   52.0850   39.5830 C.ar      1 4E2        -0.0579
     19 CAO        15.8650   50.9410   38.8060 C.ar      1 4E2         0.0630
     20 CLA        14.7130   49.6320   39.1530 Cl        1 4E2        -0.0777
     21 CAT        16.7290   50.8240   37.7270 C.ar      1 4E2         0.0864
     22 NAL        16.8620   49.8000   36.8310 N.pl3     1 4E2        -0.2611
     23 H1         20.2838   49.0359   32.2264 H         1 4E2         0.0626
     24 H2         19.2488   46.7977   32.0497 H         1 4E2         0.0656
     25 H3         16.8847   47.6575   35.5237 H         1 4E2         0.0684
     26 H4         18.4352   53.7554   37.9326 H         1 4E2         0.0580
     27 H5         16.8785   53.9803   39.8653 H         1 4E2         0.0526
     28 H6         15.2705   52.2032   40.4367 H         1 4E2         0.0577
     29 H7         16.2984   48.9379   36.8374 H         1 4E2         0.2253
@<TRIPOS>BOND
     1    1    2 ar 
     2    2    3 ar 
     3    2    4 1  
     4    4    5 ar 
     5    4   14 ar 
     6    5    6 ar 
     7    6    7 ar 
     8    6   12 ar 
     9    7    8 ar 
    10    8    9 ar 
    11    9   10 1  
    12    9   11 ar 
    13   11   12 ar 
    14   12   13 ar 
    15   13   14 ar 
    16   13   22 1  
    17   14   15 1  
    18   15   16 ar 
    19   15   21 ar 
    20   16   17 ar 
    21   17   18 ar 
    22   18   19 ar 
    23   19   20 1  
    24   19   21 ar 
    25   21   22 1  
    26    7   23 1  
    27    8   24 1  
    28   11   25 1  
    29   16   26 1  
    30   17   27 1  
    31   18   28 1  
    32   22   29 1  
@<TRIPOS>SUBSTRUCTURE
     1 4E2         1

