### 
### Created by X-TOOL on Mon Sep 10 21:13:20 2018
### 

@<TRIPOS>MOLECULE
4yll_ligand
   29    32     1     0     0
SMALL
GAST_HUCK


@<TRIPOS>ATOM
      1 OAA        20.9680   52.7000   33.9800 O.co2     1 4E3        -0.5556
      2 CAM        20.2680   52.6000   35.0900 C.2       1 4E3         0.0807
      3 OAB        20.3110   52.9900   36.3150 O.co2     1 4E3        -0.5556
      4 CAP        19.4950   51.5840   35.0810 C.ar      1 4E3         0.0722
      5 NAK        19.7710   50.8460   33.8540 N.ar      1 4E3        -0.2982
      6 CAQ        19.1720   49.6020   33.7960 C.ar      1 4E3         0.0393
      7 CAI        19.4720   48.7060   32.7550 C.ar      1 4E3        -0.0429
      8 CAG        18.8730   47.4730   32.6890 C.ar      1 4E3        -0.0492
      9 CAN        17.9310   47.1510   33.6590 C.ar      1 4E3         0.0122
     10 CAJ        17.6500   48.0140   34.7140 C.ar      1 4E3        -0.0354
     11 CAR        18.2530   49.2650   34.7910 C.ar      1 4E3         0.0369
     12 CAU        17.8930   50.1220   35.8500 C.ar      1 4E3         0.1003
     13 CAV        18.5000   51.3080   36.1470 C.ar      1 4E3         0.0389
     14 CAS        17.8450   51.7950   37.3210 C.ar      1 4E3         0.0064
     15 CAH        17.9490   52.9510   38.1440 C.ar      1 4E3        -0.0635
     16 CAE        17.0480   53.0780   39.2260 C.ar      1 4E3        -0.0707
     17 CAF        16.1090   52.0960   39.5750 C.ar      1 4E3        -0.0622
     18 CAO        16.0150   50.9540   38.8020 C.ar      1 4E3         0.0354
     19 BRA        14.7620   49.5440   39.1890 Br        1 4E3        -0.0572
     20 CAT        16.8480   50.8430   37.6880 C.ar      1 4E3         0.0814
     21 NAL        16.9380   49.8420   36.7410 N.pl3     1 4E3        -0.2603
     22 I          17.0860   45.2010   33.5880 I         1 4E3        -0.0492
     23 H1         20.1873   48.9934   31.9929 H         1 4E3         0.0626
     24 H2         19.1271   46.7707   31.9033 H         1 4E3         0.0656
     25 H3         16.9526   47.7075   35.4852 H         1 4E3         0.0685
     26 H4         18.6963   53.7112   37.9474 H         1 4E3         0.0605
     27 H5         17.0848   53.9847   39.8190 H         1 4E3         0.0533
     28 H6         15.4668   52.2307   40.4379 H         1 4E3         0.0601
     29 H7         16.3501   48.9964   36.7240 H         1 4E3         0.2258
@<TRIPOS>BOND
     1    1    2 ar 
     2    2    3 ar 
     3    2    4 1  
     4    4    5 ar 
     5    4   13 ar 
     6    5    6 ar 
     7    6    7 ar 
     8    6   11 ar 
     9    7    8 ar 
    10    8    9 ar 
    11    9   10 ar 
    12    9   22 1  
    13   10   11 ar 
    14   11   12 ar 
    15   12   13 ar 
    16   12   21 1  
    17   13   14 1  
    18   14   15 ar 
    19   14   20 ar 
    20   15   16 ar 
    21   16   17 ar 
    22   17   18 ar 
    23   18   19 1  
    24   18   20 ar 
    25   20   21 1  
    26    7   23 1  
    27    8   24 1  
    28   10   25 1  
    29   15   26 1  
    30   16   27 1  
    31   17   28 1  
    32   21   29 1  
@<TRIPOS>SUBSTRUCTURE
     1 4E3         1

