### 
### Created by X-TOOL on Mon Sep 10 21:13:21 2018
### 

@<TRIPOS>MOLECULE
4ylu_ligand
   51    54     1     0     0
SMALL
GAST_HUCK


@<TRIPOS>ATOM
      1 O01        35.1220  -20.1950   36.0920 O.2       1 R30        -0.3833
      2 C02        36.0310  -19.6100   36.7490 C.2       1 R30         0.2360
      3 N03        37.3290  -19.8310   36.4120 N.am      1 R30        -0.2182
      4 C04        38.4120  -19.2040   37.1170 C.ar      1 R30         0.0566
      5 C05        38.9650  -18.0060   36.6400 C.ar      1 R30        -0.0528
      6 C06        40.0740  -17.3380   37.2400 C.ar      1 R30        -0.0531
      7 C07        40.6850  -17.8120   38.3980 C.ar      1 R30         0.0520
      8 N08        41.8150  -17.1460   39.0360 N.am      1 R30        -0.2422
      9 C09        42.1520  -15.7920   38.9550 C.2       1 R30         0.1996
     10 C10        43.3640  -15.0950   39.6100 C.3       1 R30         0.0396
     11 C11        43.0920  -13.9230   40.5440 C.3       1 R30        -0.0478
     12 O12        41.4100  -15.0440   38.2910 O.2       1 R30        -0.3868
     13 C13        40.1350  -19.0090   38.8990 C.ar      1 R30        -0.0531
     14 C14        39.0250  -19.6760   38.2890 C.ar      1 R30        -0.0528
     15 C15        37.7100  -20.8150   35.3750 C.3       1 R30         0.0738
     16 C16        38.7430  -21.8210   35.9020 C.2       1 R30        -0.0360
     17 C17        40.0680  -21.5890   35.8020 C.2       1 R30        -0.0125
     18 S18        41.0200  -22.7930   36.5390 S.3       1 R30        -0.0590
     19 C19        39.6420  -23.6560   37.0530 C.2       1 R30        -0.0113
     20 C20        38.5230  -23.0080   36.6500 C.2       1 R30        -0.0714
     21 C21        35.5800  -18.6610   37.9230 C.3       1 R30         0.1686
     22 N22        34.2350  -18.2840   38.0440 N.pl3     1 R30        -0.1415
     23 N23        33.3480  -18.9770   38.8340 N.2       1 R30        -0.0725
     24 N24        32.1930  -18.4870   38.7590 N.2       1 R30        -0.1992
     25 C25        32.2460  -17.3510   37.8330 C.ar      1 R30         0.0764
     26 C26        33.5730  -17.2690   37.3990 C.ar      1 R30         0.1170
     27 C27        33.9850  -16.2630   36.4860 C.ar      1 R30        -0.0313
     28 C28        33.0580  -15.3540   36.0150 C.ar      1 R30        -0.0695
     29 C29        31.6950  -15.4450   36.4500 C.ar      1 R30        -0.0707
     30 C30        31.2980  -16.4470   37.3570 C.ar      1 R30        -0.0506
     31 H1         38.5208  -17.5587   35.7581 H         1 R30         0.0470
     32 H2         40.4529  -16.4327   36.7797 H         1 R30         0.0470
     33 H3         42.4144  -17.7213   39.5925 H         1 R30         0.2209
     34 H4         44.0073  -14.7246   38.7982 H         1 R30         0.0504
     35 H5         43.9065  -15.8566   40.1893 H         1 R30         0.0504
     36 H6         44.0453  -13.5331   40.9303 H         1 R30         0.0254
     37 H7         42.4668  -14.2607   41.3837 H         1 R30         0.0254
     38 H8         42.5676  -13.1287   39.9926 H         1 R30         0.0254
     39 H9         40.5736  -19.4455   39.7890 H         1 R30         0.0470
     40 H10        38.6430  -20.5800   38.7493 H         1 R30         0.0470
     41 H11        38.1397  -20.2795   34.5156 H         1 R30         0.0694
     42 H12        36.8110  -21.3617   35.0543 H         1 R30         0.0694
     43 H13        40.4871  -20.7183   35.2999 H         1 R30         0.0567
     44 H14        39.6591  -24.5862   37.6189 H         1 R30         0.0714
     45 H15        37.5236  -23.3721   36.8834 H         1 R30         0.0394
     46 H16        36.1617  -17.7329   37.8221 H         1 R30         0.0880
     47 H17        35.8538  -19.1652   38.8615 H         1 R30         0.0880
     48 H18        35.0179  -16.2088   36.1615 H         1 R30         0.0566
     49 H19        33.3589  -14.5772   35.3213 H         1 R30         0.0580
     50 H20        30.9637  -14.7367   36.0778 H         1 R30         0.0540
     51 H21        30.2659  -16.5143   37.6814 H         1 R30         0.0596
@<TRIPOS>BOND
     1    1    2 2  
     2    2    3 am 
     3    2   21 1  
     4    3    4 1  
     5    3   15 1  
     6    4    5 ar 
     7    4   14 ar 
     8    5    6 ar 
     9    6    7 ar 
    10    7    8 1  
    11    7   13 ar 
    12    8    9 am 
    13    9   10 1  
    14    9   12 2  
    15   10   11 1  
    16   13   14 ar 
    17   15   16 1  
    18   16   17 2  
    19   16   20 1  
    20   17   18 1  
    21   18   19 1  
    22   19   20 2  
    23   21   22 1  
    24   22   23 1  
    25   22   26 1  
    26   23   24 2  
    27   24   25 1  
    28   25   26 ar 
    29   25   30 ar 
    30   26   27 ar 
    31   27   28 ar 
    32   28   29 ar 
    33   29   30 ar 
    34    5   31 1  
    35    6   32 1  
    36    8   33 1  
    37   10   34 1  
    38   10   35 1  
    39   11   36 1  
    40   11   37 1  
    41   11   38 1  
    42   13   39 1  
    43   14   40 1  
    44   15   41 1  
    45   15   42 1  
    46   17   43 1  
    47   19   44 1  
    48   20   45 1  
    49   21   46 1  
    50   21   47 1  
    51   27   48 1  
    52   28   49 1  
    53   29   50 1  
    54   30   51 1  
@<TRIPOS>SUBSTRUCTURE
     1 R30         1

