### 
### Created by X-TOOL on Mon Sep 10 21:13:21 2018
### 

@<TRIPOS>MOLECULE
4ym2_ligand
   48    49     1     0     0
SMALL
GAST_HUCK


@<TRIPOS>ATOM
      1 C1        -48.7670   26.9760   38.6600 C.3       1 SGA         0.1885
      2 C2        -47.8720   28.1710   39.0190 C.3       1 SGA         0.1366
      3 C3        -46.4440   27.8250   38.5800 C.3       1 SGA         0.1433
      4 C4        -45.9370   26.5300   39.2730 C.3       1 SGA         0.1144
      5 C5        -46.9570   25.4330   38.9410 C.3       1 SGA         0.1131
      6 C6        -46.6120   24.0720   39.5460 C.3       1 SGA         0.0730
      7 O1        -50.1720   27.2070   38.9270 O.3       1 SGA        -0.3401
      8 O2        -48.2750   29.3360   38.3030 O.3       1 SGA        -0.3840
      9 O3        -45.5320   28.9480   38.6070 O.3       1 SGA        -0.2570
     10 O4        -45.7560   26.5850   40.6960 O.3       1 SGA        -0.3864
     11 O5        -48.2560   25.8520   39.3820 O.3       1 SGA        -0.3405
     12 O6        -47.7000   23.1710   39.3170 O.3       1 SGA        -0.3924
     13 S         -44.4250   29.1050   37.5200 S.o2      1 SGA        -0.0733
     14 O1S       -44.6560   30.4380   36.6110 O.co2     1 SGA        -0.4611
     15 O2S       -44.4690   28.0170   36.6000 O.co2     1 SGA        -0.4611
     16 O3S       -43.1220   29.1010   38.1190 O.co2     1 SGA        -0.4611
     17 C2        -53.2330   25.6130   40.4530 C.3       1 BGC         0.1339
     18 C3        -51.8560   26.2330   40.4760 C.3       1 BGC         0.1144
     19 C4        -51.1680   26.2980   39.1090 C.3       1 BGC         0.1184
     20 C5        -52.1290   26.3410   37.8710 C.3       1 BGC         0.1134
     21 C6        -51.7300   26.3100   36.3800 C.3       1 BGC         0.0730
     22 C1        -54.0670   26.2030   39.3280 C.3       1 BGC         0.1854
     23 O1        -55.4090   25.6900   39.3900 O.3       1 BGC        -0.3649
     24 O2        -53.8790   25.8600   41.7030 O.3       1 BGC        -0.3841
     25 O3        -50.9980   25.4780   41.3220 O.3       1 BGC        -0.3864
     26 O5        -53.4540   25.8070   38.1100 O.3       1 BGC        -0.3407
     27 O6        -52.5960   27.1570   35.6400 O.3       1 BGC        -0.3924
     28 H1        -48.6666   26.7777   37.5827 H         1 SGA         0.0938
     29 H2        -47.9111   28.3611   40.1017 H         1 SGA         0.0672
     30 H3        -46.5243   27.5632   37.5146 H         1 SGA         0.0674
     31 H4        -44.9644   26.2704   38.8296 H         1 SGA         0.0648
     32 H5        -46.9803   25.3151   37.8476 H         1 SGA         0.0647
     33 H6        -46.4449   24.1809   40.6277 H         1 SGA         0.0584
     34 H7        -45.7009   23.6780   39.0720 H         1 SGA         0.0584
     35 H8        -47.6838   30.0514   38.5060 H         1 SGA         0.2101
     36 H9        -45.1251   27.2629   40.9079 H         1 SGA         0.2100
     37 H10       -48.4856   23.5143   39.7264 H         1 SGA         0.2095
     38 H11       -53.1377   24.5280   40.2994 H         1 SGA         0.0671
     39 H12       -51.9521   27.2558   40.8692 H         1 SGA         0.0648
     40 H13       -50.6620   25.3238   39.0395 H         1 SGA         0.0651
     41 H14       -52.3565   27.4158   37.9254 H         1 SGA         0.0647
     42 H15       -51.8112   25.2809   36.0001 H         1 SGA         0.0584
     43 H16       -50.6931   26.6605   36.2707 H         1 SGA         0.0584
     44 H17       -54.0872   27.3001   39.4047 H         1 SGA         0.0935
     45 H18       -55.9116   26.0320   38.6599 H         1 SGA         0.2126
     46 H19       -54.7387   25.4557   41.6992 H         1 SGA         0.2101
     47 H20       -50.8811   24.6084   40.9578 H         1 SGA         0.2100
     48 H21       -53.4912   26.8535   35.7350 H         1 SGA         0.2095
@<TRIPOS>BOND
     1    1    2 1  
     2    7    1 1  
     3    1   11 1  
     4    2    3 1  
     5    2    8 1  
     6    3    4 1  
     7    3    9 1  
     8    5    4 1  
     9    4   10 1  
    10    5    6 1  
    11   11    5 1  
    12    6   12 1  
    13   19    7 1  
    14    9   13 1  
    15   13   14 ar 
    16   13   15 ar 
    17   13   16 ar 
    18   18   17 1  
    19   17   22 1  
    20   17   24 1  
    21   18   19 1  
    22   18   25 1  
    23   19   20 1  
    24   20   21 1  
    25   20   26 1  
    26   21   27 1  
    27   22   23 1  
    28   22   26 1  
    29    1   28 1  
    30    2   29 1  
    31    3   30 1  
    32    4   31 1  
    33    5   32 1  
    34    6   33 1  
    35    6   34 1  
    36    8   35 1  
    37   10   36 1  
    38   12   37 1  
    39   17   38 1  
    40   18   39 1  
    41   19   40 1  
    42   20   41 1  
    43   21   42 1  
    44   21   43 1  
    45   22   44 1  
    46   23   45 1  
    47   24   46 1  
    48   25   47 1  
    49   27   48 1  
@<TRIPOS>SUBSTRUCTURE
     1 SGA         1

