### 
### Created by X-TOOL on Mon Sep 10 21:13:23 2018
### 

@<TRIPOS>MOLECULE
4ymb_ligand
   38    39     1     0     0
SMALL
GAST_HUCK


@<TRIPOS>ATOM
      1 N          -1.0740   38.1410  -11.5570 N.4       1 4E7         0.2429
      2 CA         -0.4070   39.2550  -12.2680 C.3       1 4E7         0.0429
      3 CB          0.0770   38.6800  -13.6300 C.3       1 4E7         0.0558
      4 C          -1.4330   40.4100  -12.3910 C.2       1 4E7         0.0869
      5 O          -2.5350   40.3470  -11.7970 O.co2     1 4E7        -0.5641
      6 OXT        -1.1180   41.3880  -13.0770 O.co2     1 4E7        -0.5641
      7 CAM         3.8210   40.5040  -14.9560 C.ar      1 4E7        -0.0546
      8 CAQ        -1.0480   36.9480  -12.4490 C.3       1 4E7        -0.0267
      9 CAR         0.1710   37.1600  -13.3640 C.3       1 4E7         0.0184
     10 CAV         5.0070   39.3320  -13.0390 C.2       1 4E7         0.0613
     11 CAY         2.6190   40.7380  -15.6760 C.ar      1 4E7        -0.0649
     12 CAZ         3.7890   39.6590  -13.8230 C.ar      1 4E7         0.0035
     13 OAA         5.0380   38.2000  -12.5140 O.co2     1 4E7        -0.5607
     14 OAC         5.9450   40.1520  -12.9220 O.co2     1 4E7        -0.5607
     15 CG          1.3640   39.3250  -14.1150 C.ar      1 4E7        -0.0290
     16 CD1         1.4010   40.1650  -15.2510 C.ar      1 4E7        -0.0572
     17 CD2         2.5660   39.0780  -13.4150 C.ar      1 4E7        -0.0457
     18 C1          0.2340   36.2190  -14.6020 C.3       1 4E7        -0.0433
     19 C2          0.1850   34.7170  -14.2510 C.3       1 4E7        -0.0553
     20 C3          1.0630   33.8630  -15.1840 C.3       1 4E7        -0.0653
     21 H1         -2.0277   38.3909  -11.3470 H         1 4E7         0.2032
     22 H2         -0.5831   37.9387  -10.7002 H         1 4E7         0.2032
     23 H3          0.4634   39.6106  -11.6972 H         1 4E7         0.1052
     24 H4         -0.6887   38.8629  -14.3983 H         1 4E7         0.0541
     25 H5          4.7494   40.9667  -15.2708 H         1 4E7         0.0593
     26 H6         -1.9718   36.8896  -13.0433 H         1 4E7         0.0818
     27 H7         -0.9327   36.0268  -11.8590 H         1 4E7         0.0818
     28 H8          1.0883   36.9625  -12.7900 H         1 4E7         0.0380
     29 H9          2.6373   41.3633  -16.5613 H         1 4E7         0.0606
     30 H10         0.4886   40.3704  -15.7991 H         1 4E7         0.0578
     31 H11         2.5505   38.4293  -12.5467 H         1 4E7         0.0590
     32 H12         1.1723   36.4180  -15.1406 H         1 4E7         0.0271
     33 H13        -0.6201   36.4496  -15.2557 H         1 4E7         0.0271
     34 H14        -0.8557   34.3700  -14.3312 H         1 4E7         0.0263
     35 H15         0.5370   34.5849  -13.2172 H         1 4E7         0.0263
     36 H16         0.9905   32.8057  -14.8894 H         1 4E7         0.0230
     37 H17         2.1092   34.1940  -15.1076 H         1 4E7         0.0230
     38 H18         0.7165   33.9791  -16.2215 H         1 4E7         0.0230
@<TRIPOS>BOND
     1    2    1 1  
     2    8    1 1  
     3    3    2 1  
     4    2    4 1  
     5    3    9 1  
     6   15    3 1  
     7    4    5 ar 
     8    4    6 ar 
     9   11    7 ar 
    10    7   12 ar 
    11    9    8 1  
    12    9   18 1  
    13   12   10 1  
    14   10   13 ar 
    15   10   14 ar 
    16   16   11 ar 
    17   12   17 ar 
    18   15   16 ar 
    19   15   17 ar 
    20   18   19 1  
    21   19   20 1  
    22    1   21 1  
    23    1   22 1  
    24    2   23 1  
    25    3   24 1  
    26    7   25 1  
    27    8   26 1  
    28    8   27 1  
    29    9   28 1  
    30   11   29 1  
    31   16   30 1  
    32   17   31 1  
    33   18   32 1  
    34   18   33 1  
    35   19   34 1  
    36   19   35 1  
    37   20   36 1  
    38   20   37 1  
    39   20   38 1  
@<TRIPOS>SUBSTRUCTURE
     1 4E7         1

