### 
### Created by X-TOOL on Mon Sep 10 21:13:21 2018
### 

@<TRIPOS>MOLECULE
4ymg_ligand
   50    52     1     0     0
SMALL
GAST_HUCK


@<TRIPOS>ATOM
      1 N          -4.0180    7.5480  -17.4640 N.4       1 SAM         0.2328
      2 CA         -5.3000    7.8020  -18.1180 C.3       1 SAM         0.0327
      3 C          -6.1900    8.7130  -17.2910 C.2       1 SAM         0.0846
      4 O          -7.1650    9.2710  -17.7980 O.co2     1 SAM        -0.5643
      5 OXT        -5.9610    8.9050  -16.1000 O.co2     1 SAM        -0.5643
      6 CB         -6.0770    6.5230  -18.4530 C.3       1 SAM         0.0473
      7 CG         -5.2550    5.2980  -18.8470 C.3       1 SAM         0.1163
      8 SD         -6.3410    3.9720  -19.4690 S.3       1 SAM        -0.0103
      9 CE         -6.7670    3.1870  -17.8780 C.3       1 SAM         0.0995
     10 C5'        -5.1600    2.7360  -20.0860 C.3       1 SAM         0.1381
     11 C4'        -4.4550    3.1360  -21.3820 C.3       1 SAM         0.1350
     12 O4'        -3.3260    2.3090  -21.5760 O.3       1 SAM        -0.3344
     13 C3'        -5.3370    2.9620  -22.6150 C.3       1 SAM         0.1168
     14 O3'        -5.3060    4.1420  -23.3840 O.3       1 SAM        -0.3863
     15 C2'        -4.6890    1.8380  -23.4180 C.3       1 SAM         0.1386
     16 O2'        -4.7600    2.0130  -24.8190 O.3       1 SAM        -0.3836
     17 C1'        -3.2570    1.9150  -22.9360 C.3       1 SAM         0.2011
     18 N9         -2.5680    0.6280  -22.9970 N.pl3     1 SAM        -0.1919
     19 C8         -3.0530   -0.6120  -22.6600 C.2       1 SAM         0.1123
     20 N7         -2.0570   -1.5100  -22.8410 N.2       1 SAM        -0.2958
     21 C5         -0.9560   -0.8530  -23.2780 C.ar      1 SAM         0.1045
     22 C6          0.3210   -1.2680  -23.6130 C.ar      1 SAM         0.1298
     23 N6          0.6670   -2.5550  -23.5420 N.pl3     1 SAM        -0.3152
     24 N1          1.2360   -0.3240  -24.0280 N.ar      1 SAM        -0.2698
     25 C2          0.9060    1.0150  -24.1110 C.ar      1 SAM         0.0533
     26 N3         -0.3650    1.4230  -23.7780 N.ar      1 SAM        -0.2714
     27 C4         -1.2690    0.4980  -23.3670 C.ar      1 SAM         0.1613
     28 H1         -3.4594    6.9414  -18.0438 H         1 SAM         0.2010
     29 H2         -4.1775    7.1067  -16.5719 H         1 SAM         0.2010
     30 H3         -3.5328    8.4206  -17.3254 H         1 SAM         0.2010
     31 H4         -5.0804    8.3150  -19.0659 H         1 SAM         0.1026
     32 H5         -6.7516    6.7538  -19.2907 H         1 SAM         0.0385
     33 H6         -6.6711    6.2535  -17.5673 H         1 SAM         0.0385
     34 H7         -4.7055    4.9326  -17.9669 H         1 SAM         0.0843
     35 H8         -4.5405    5.5797  -19.6345 H         1 SAM         0.0843
     36 H9         -7.4400    2.3356  -18.0578 H         1 SAM         0.0803
     37 H10        -7.2689    3.9205  -17.2299 H         1 SAM         0.0803
     38 H11        -5.8491    2.8315  -17.3871 H         1 SAM         0.0803
     39 H12        -5.7049    1.7974  -20.2652 H         1 SAM         0.0867
     40 H13        -4.3946    2.5739  -19.3128 H         1 SAM         0.0867
     41 H14        -4.1424    4.1878  -21.3042 H         1 SAM         0.0671
     42 H15        -6.3703    2.7106  -22.3340 H         1 SAM         0.0649
     43 H16        -4.4127    4.3187  -23.6550 H         1 SAM         0.2100
     44 H17        -5.1432    0.8697  -23.1610 H         1 SAM         0.0676
     45 H18        -4.3182    2.8190  -25.0591 H         1 SAM         0.2101
     46 H19        -2.7023    2.6558  -23.5306 H         1 SAM         0.0996
     47 H20        -4.0600   -0.8332  -22.3095 H         1 SAM         0.1349
     48 H21         1.6220   -2.8463  -23.7951 H         1 SAM         0.1820
     49 H22        -0.0209   -3.2570  -23.2341 H         1 SAM         0.1820
     50 H23         1.6438    1.7395  -24.4364 H         1 SAM         0.0996
@<TRIPOS>BOND
     1    1    2 1  
     2    2    3 1  
     3    2    6 1  
     4    3    4 ar 
     5    3    5 ar 
     6    6    7 1  
     7    7    8 1  
     8    8    9 1  
     9    8   10 1  
    10   10   11 1  
    11   11   12 1  
    12   11   13 1  
    13   12   17 1  
    14   13   14 1  
    15   13   15 1  
    16   15   16 1  
    17   15   17 1  
    18   17   18 1  
    19   18   19 1  
    20   18   27 1  
    21   19   20 2  
    22   20   21 1  
    23   21   22 ar 
    24   21   27 ar 
    25   22   23 1  
    26   22   24 ar 
    27   24   25 ar 
    28   25   26 ar 
    29   26   27 ar 
    30    1   28 1  
    31    1   29 1  
    32    1   30 1  
    33    2   31 1  
    34    6   32 1  
    35    6   33 1  
    36    7   34 1  
    37    7   35 1  
    38    9   36 1  
    39    9   37 1  
    40    9   38 1  
    41   10   39 1  
    42   10   40 1  
    43   11   41 1  
    44   13   42 1  
    45   14   43 1  
    46   15   44 1  
    47   16   45 1  
    48   17   46 1  
    49   19   47 1  
    50   23   48 1  
    51   23   49 1  
    52   25   50 1  
@<TRIPOS>SUBSTRUCTURE
     1 SAM         1

