### 
### Created by X-TOOL on Mon Sep 10 21:13:21 2018
### 

@<TRIPOS>MOLECULE
4ymh_ligand
   46    48     1     0     0
SMALL
GAST_HUCK


@<TRIPOS>ATOM
      1 N          35.0570  270.9920  160.8450 N.4       1 SAH         0.2327
      2 CA         35.6070  271.7730  159.7730 C.3       1 SAH         0.0291
      3 CB         37.1020  271.5180  159.6020 C.3       1 SAH         0.0114
      4 CG         37.9350  271.3650  160.8710 C.3       1 SAH         0.0005
      5 SD         39.6430  271.2590  160.4860 S.3       1 SAH        -0.1578
      6 C          34.9170  271.4720  158.4700 C.2       1 SAH         0.0844
      7 O          34.9670  272.2710  157.5650 O.co2     1 SAH        -0.5643
      8 OXT        34.3210  270.4130  158.3450 O.co2     1 SAH        -0.5643
      9 C5'        40.2420  271.1180  162.1200 C.3       1 SAH         0.0226
     10 C4'        40.1790  272.4030  162.9310 C.3       1 SAH         0.0995
     11 O4'        40.5030  272.1230  164.2800 O.3       1 SAH        -0.3383
     12 C3'        41.1850  273.4330  162.4770 C.3       1 SAH         0.1132
     13 O3'        40.5590  274.6660  162.2140 O.3       1 SAH        -0.3864
     14 C2'        42.1400  273.5670  163.6350 C.3       1 SAH         0.1385
     15 O2'        42.6950  274.8380  163.7570 O.3       1 SAH        -0.3836
     16 C1'        41.3120  273.1370  164.8210 C.3       1 SAH         0.2009
     17 N9         42.1070  272.5930  165.9310 N.pl3     1 SAH        -0.1919
     18 C8         43.1950  271.8480  165.8620 C.2       1 SAH         0.1123
     19 N7         43.6320  271.5380  167.0700 N.2       1 SAH        -0.2958
     20 C5         42.8130  272.0840  167.9350 C.ar      1 SAH         0.1045
     21 C6         42.6900  272.1370  169.3900 C.ar      1 SAH         0.1298
     22 N6         43.5880  271.5180  170.1230 N.pl3     1 SAH        -0.3152
     23 N1         41.6730  272.8030  169.9300 N.ar      1 SAH        -0.2698
     24 C2         40.7770  273.4050  169.1560 C.ar      1 SAH         0.0533
     25 N3         40.8140  273.3980  167.8370 N.ar      1 SAH        -0.2714
     26 C4         41.7940  272.7640  167.1830 C.ar      1 SAH         0.1613
     27 H1         35.5372  271.2139  161.7030 H         1 SAH         0.2010
     28 H2         35.1716  270.0118  160.6397 H         1 SAH         0.2010
     29 H3         34.0762  271.2020  160.9449 H         1 SAH         0.2010
     30 H4         35.4575  272.8360  160.0134 H         1 SAH         0.1024
     31 H5         37.5184  272.3624  159.0332 H         1 SAH         0.0347
     32 H6         37.2148  270.5920  159.0190 H         1 SAH         0.0347
     33 H7         37.6264  270.4494  161.3968 H         1 SAH         0.0379
     34 H8         37.7653  272.2360  161.5210 H         1 SAH         0.0379
     35 H9         41.2918  270.7928  162.0736 H         1 SAH         0.0402
     36 H10        39.6443  270.3547  162.6398 H         1 SAH         0.0402
     37 H11        39.1639  272.8206  162.8596 H         1 SAH         0.0632
     38 H12        41.7120  273.0889  161.5748 H         1 SAH         0.0647
     39 H13        40.1357  274.9799  163.0044 H         1 SAH         0.2100
     40 H14        42.9729  272.8609  163.5018 H         1 SAH         0.0676
     41 H15        42.0014  275.4741  163.8861 H         1 SAH         0.2101
     42 H16        40.7058  273.9771  165.1908 H         1 SAH         0.0996
     43 H17        43.6687  271.5314  164.9339 H         1 SAH         0.1349
     44 H18        43.5200  271.5427  171.1505 H         1 SAH         0.1820
     45 H19        44.3599  271.0081  169.6701 H         1 SAH         0.1820
     46 H20        39.9640  273.9355  169.6384 H         1 SAH         0.0996
@<TRIPOS>BOND
     1    1    2 1  
     2    2    3 1  
     3    2    6 1  
     4    3    4 1  
     5    4    5 1  
     6    5    9 1  
     7    6    7 ar 
     8    6    8 ar 
     9    9   10 1  
    10   10   11 1  
    11   10   12 1  
    12   11   16 1  
    13   12   13 1  
    14   12   14 1  
    15   14   15 1  
    16   14   16 1  
    17   16   17 1  
    18   17   18 1  
    19   17   26 1  
    20   18   19 2  
    21   19   20 1  
    22   20   21 ar 
    23   20   26 ar 
    24   21   22 1  
    25   21   23 ar 
    26   23   24 ar 
    27   24   25 ar 
    28   25   26 ar 
    29    1   27 1  
    30    1   28 1  
    31    1   29 1  
    32    2   30 1  
    33    3   31 1  
    34    3   32 1  
    35    4   33 1  
    36    4   34 1  
    37    9   35 1  
    38    9   36 1  
    39   10   37 1  
    40   12   38 1  
    41   13   39 1  
    42   14   40 1  
    43   15   41 1  
    44   16   42 1  
    45   18   43 1  
    46   22   44 1  
    47   22   45 1  
    48   24   46 1  
@<TRIPOS>SUBSTRUCTURE
     1 SAH         1

