### 
### Created by X-TOOL on Mon Sep 10 21:13:21 2018
### 

@<TRIPOS>MOLECULE
4ymj_ligand
   40    43     1     0     0
SMALL
GAST_HUCK


@<TRIPOS>ATOM
      1 C1        -29.2550   -9.1720   -5.7260 C.ar      1 4EJ         0.0879
      2 C2        -30.3940   -8.3800   -5.6430 C.ar      1 4EJ        -0.0333
      3 C3        -30.6120   -7.3800   -6.5720 C.ar      1 4EJ        -0.0485
      4 C11       -27.6180   -4.2630  -11.3560 C.2       1 4EJ         0.0004
      5 C12       -27.0210   -5.1240  -10.4140 C.2       1 4EJ         0.1499
      6 C13       -24.9650   -5.6160   -9.1290 C.3       1 4EJ         0.0602
      7 C14       -24.6470   -7.0920   -9.1440 C.ar      1 4EJ        -0.0215
      8 C15       -24.4080   -7.7790   -7.9650 C.ar      1 4EJ        -0.0584
      9 C16       -24.1200   -9.1330   -7.9790 C.ar      1 4EJ        -0.0685
     10 C17       -24.0660   -9.8180   -9.1740 C.ar      1 4EJ        -0.0687
     11 C18       -24.3010   -9.1450  -10.3540 C.ar      1 4EJ        -0.0685
     12 C19       -24.5920   -7.7920  -10.3390 C.ar      1 4EJ        -0.0584
     13 N         -28.8810  -11.1100   -4.0610 N.1       1 4EJ        -0.3355
     14 C         -29.0440  -10.2440   -4.7850 C.1       1 4EJ         0.0918
     15 C6        -28.3360   -8.9400   -6.7390 C.ar      1 4EJ        -0.0333
     16 C5        -28.5640   -7.9410   -7.6670 C.ar      1 4EJ        -0.0485
     17 C4        -29.7040   -7.1520   -7.5990 C.ar      1 4EJ         0.0080
     18 C7        -29.9700   -6.1110   -8.6120 C.2       1 4EJ         0.1171
     19 N4        -29.0340   -5.5640   -9.4660 N.pl3     1 4EJ        -0.1404
     20 C9        -29.7070   -4.6960  -10.3100 C.2       1 4EJ         0.1638
     21 N1        -31.0040   -4.6560  -10.0200 N.2       1 4EJ        -0.3243
     22 C8        -31.1580   -5.5280   -8.9730 C.2       1 4EJ        -0.0074
     23 N3        -27.6850   -5.8280   -9.4640 N.2       1 4EJ        -0.1438
     24 C10       -28.9450   -4.0370  -11.3050 C.2       1 4EJ         0.0053
     25 N2        -25.6420   -5.1820  -10.3430 N.pl3     1 4EJ        -0.2926
     26 H1        -31.1124   -8.5467   -4.8486 H         1 4EJ         0.0698
     27 H2        -31.5023   -6.7660   -6.4985 H         1 4EJ         0.0598
     28 H3        -27.0099   -3.7828  -12.1212 H         1 4EJ         0.0696
     29 H4        -24.0254   -5.0531   -9.0280 H         1 4EJ         0.0678
     30 H5        -25.6144   -5.4032   -8.2670 H         1 4EJ         0.0678
     31 H6        -24.4470   -7.2498   -7.0198 H         1 4EJ         0.0557
     32 H7        -23.9364   -9.6561   -7.0475 H         1 4EJ         0.0599
     33 H8        -23.8404  -10.8782   -9.1858 H         1 4EJ         0.0559
     34 H9        -24.2577   -9.6776  -11.2972 H         1 4EJ         0.0599
     35 H10       -24.7791   -7.2738  -11.2726 H         1 4EJ         0.0557
     36 H11       -27.4375   -9.5431   -6.8030 H         1 4EJ         0.0698
     37 H12       -27.8428   -7.7716   -8.4584 H         1 4EJ         0.0598
     38 H13       -32.1102   -5.7333   -8.4860 H         1 4EJ         0.0587
     39 H14       -29.4217   -3.3617  -12.0140 H         1 4EJ         0.0752
     40 H15       -25.0823   -4.9130  -11.1647 H         1 4EJ         0.1818
@<TRIPOS>BOND
     1    2    1 ar 
     2    1   14 1  
     3   15    1 ar 
     4    3    2 ar 
     5   17    3 ar 
     6    5    4 1  
     7    4   24 2  
     8   23    5 2  
     9    5   25 1  
    10    6    7 1  
    11   25    6 1  
    12    7    8 ar 
    13    7   12 ar 
    14    8    9 ar 
    15    9   10 ar 
    16   11   10 ar 
    17   12   11 ar 
    18   14   13 3  
    19   16   15 ar 
    20   17   16 ar 
    21   18   17 1  
    22   19   18 1  
    23   18   22 2  
    24   19   20 1  
    25   19   23 1  
    26   20   21 2  
    27   20   24 1  
    28   21   22 1  
    29    2   26 1  
    30    3   27 1  
    31    4   28 1  
    32    6   29 1  
    33    6   30 1  
    34    8   31 1  
    35    9   32 1  
    36   10   33 1  
    37   11   34 1  
    38   12   35 1  
    39   15   36 1  
    40   16   37 1  
    41   22   38 1  
    42   24   39 1  
    43   25   40 1  
@<TRIPOS>SUBSTRUCTURE
     1 4EJ         1

