### 
### Created by X-TOOL on Mon Sep 10 21:13:22 2018
### 

@<TRIPOS>MOLECULE
4yml_ligand
   40    42     1     0     0
SMALL
GAST_HUCK


@<TRIPOS>ATOM
      1 C2        -25.0430    2.5000  -21.9420 C.ar      1 4F0         0.0439
      2 C4        -23.1990    1.3020  -22.5890 C.ar      1 4F0         0.0483
      3 C5        -22.4560    2.5220  -22.8970 C.ar      1 4F0         0.1304
      4 C6        -23.1640    3.7810  -22.6240 C.ar      1 4F0         0.1459
      5 CS5       -26.7830   -0.5720  -28.4360 C.3       1 4F0        -0.0181
      6 S         -26.1860   -0.4270  -26.7880 S.3       1 4F0        -0.1636
      7 C5'       -25.7850   -1.9960  -26.0450 C.3       1 4F0         0.0036
      8 C4'       -25.0160   -1.8100  -24.7370 C.3       1 4F0         0.0391
      9 C1'       -23.6780   -1.1860  -25.0360 C.3       1 4F0        -0.0248
     10 N1'       -22.7440   -1.8670  -24.1420 N.4       1 4F0         0.2442
     11 C10       -22.6970   -1.2620  -22.7920 C.3       1 4F0        -0.0117
     12 C9        -22.3300    0.1890  -22.9110 C.2       1 4F0         0.0166
     13 C8        -21.1460    0.7720  -23.3690 C.2       1 4F0         0.0326
     14 N7        -21.2290    2.1410  -23.3500 N.pl3     1 4F0        -0.2768
     15 N6        -22.5820    4.9920  -22.8550 N.pl3     1 4F0        -0.3157
     16 N1        -24.4410    3.6870  -22.1710 N.ar      1 4F0        -0.2741
     17 N3        -24.4720    1.3000  -22.1320 N.ar      1 4F0        -0.3132
     18 C2'       -23.2080   -3.2620  -24.0670 C.3       1 4F0        -0.0040
     19 C3'       -24.7110   -3.1160  -23.9930 C.3       1 4F0         0.1032
     20 O3'       -25.0900   -3.0580  -22.6030 O.3       1 4F0        -0.3860
     21 H1        -26.0637    2.5175  -21.5775 H         1 4F0         0.0956
     22 H2        -27.0103    0.4284  -28.8330 H         1 4F0         0.0340
     23 H3        -27.6962   -1.1852  -28.4426 H         1 4F0         0.0340
     24 H4        -26.0159   -1.0497  -29.0632 H         1 4F0         0.0340
     25 H5        -25.1662   -2.5765  -26.7451 H         1 4F0         0.0382
     26 H6        -26.7165   -2.5433  -25.8384 H         1 4F0         0.0382
     27 H7        -25.6024   -1.1510  -24.0799 H         1 4F0         0.0388
     28 H8        -23.6979   -0.1062  -24.8269 H         1 4F0         0.0818
     29 H9        -23.3991   -1.3509  -26.0872 H         1 4F0         0.0818
     30 H10       -21.8178   -1.8351  -24.5384 H         1 4F0         0.2042
     31 H11       -21.9441   -1.7826  -22.1820 H         1 4F0         0.0901
     32 H12       -23.6834   -1.3535  -22.3138 H         1 4F0         0.0901
     33 H13       -20.2715    0.2127  -23.6981 H         1 4F0         0.0886
     34 H14       -20.4768    2.7842  -23.6353 H         1 4F0         0.2266
     35 H15       -23.1006    5.8592  -22.6549 H         1 4F0         0.1805
     36 H16       -21.6237    5.0398  -23.2296 H         1 4F0         0.1805
     37 H17       -22.8146   -3.7620  -23.1697 H         1 4F0         0.0840
     38 H18       -22.9092   -3.8269  -24.9623 H         1 4F0         0.0840
     39 H19       -25.2179   -3.9617  -24.4806 H         1 4F0         0.0652
     40 H20       -24.8173   -3.8572  -22.1680 H         1 4F0         0.2100
@<TRIPOS>BOND
     1    1   16 ar 
     2   17    1 ar 
     3    2    3 ar 
     4   12    2 1  
     5    2   17 ar 
     6    3    4 ar 
     7    3   14 1  
     8    4   15 1  
     9    4   16 ar 
    10    6    5 1  
    11    7    6 1  
    12    8    7 1  
    13    9    8 1  
    14    8   19 1  
    15   10    9 1  
    16   11   10 1  
    17   10   18 1  
    18   11   12 1  
    19   12   13 2  
    20   13   14 1  
    21   18   19 1  
    22   19   20 1  
    23    1   21 1  
    24    5   22 1  
    25    5   23 1  
    26    5   24 1  
    27    7   25 1  
    28    7   26 1  
    29    8   27 1  
    30    9   28 1  
    31    9   29 1  
    32   10   30 1  
    33   11   31 1  
    34   11   32 1  
    35   13   33 1  
    36   14   34 1  
    37   15   35 1  
    38   15   36 1  
    39   18   37 1  
    40   18   38 1  
    41   19   39 1  
    42   20   40 1  
@<TRIPOS>SUBSTRUCTURE
     1 4F0         1

