### 
### Created by X-TOOL on Mon Sep 10 21:13:24 2018
### 

@<TRIPOS>MOLECULE
4ymq_ligand
   69    71     1     0     0
SMALL
GAST_HUCK


@<TRIPOS>ATOM
      1 N1         -6.7510   28.8720   15.9420 N.am      1 ZBD        -0.1464
      2 C7         -8.2100   28.9970   15.8520 C.3       1 ZBD         0.1028
      3 C8         -8.8480   27.6430   15.6840 C.ar      1 ZBD         0.0134
      4 C10        -9.8060   25.6610   16.6180 C.ar      1 ZBD        -0.0422
      5 C13        -9.0690   27.1470   14.4140 C.ar      1 ZBD        -0.0263
      6 C15       -10.2880   22.8170   16.2690 C.3       1 ZBD         0.3977
      7 C24        -5.9640   29.0060   17.1040 C.ar      1 ZBD         0.0897
      8 C26        -3.7370   28.9100   18.0060 C.ar      1 ZBD        -0.0602
      9 C28        -5.5750   29.3740   19.4620 C.ar      1 ZBD        -0.0957
     10 O31        -5.6280   29.6440   13.8330 O.2       1 ZBD        -0.1244
     11 S5         -5.6660   28.5320   14.7200 S.o2      1 ZBD         0.1614
     12 O30        -5.8990   27.1920   14.2920 O.2       1 ZBD        -0.1244
     13 C25        -4.6040   28.8320   16.9080 C.ar      1 ZBD         0.0866
     14 N6         -4.2350   28.5510   15.5780 N.am      1 ZBD        -0.1627
     15 C32        -2.8860   28.3180   15.0590 C.3       1 ZBD         0.0565
     16 C33        -2.7650   26.8300   14.7230 C.3       1 ZBD        -0.0133
     17 C34        -1.4100   26.5740   14.0720 C.3       1 ZBD         0.0394
     18 C2         -0.9650   25.1530   14.3360 C.2       1 ZBD         0.1785
     19 N4          0.1060   24.9410   15.1220 N.am      1 ZBD        -0.2734
     20 C39         0.7940   26.0990   15.6940 C.3       1 ZBD         0.0228
     21 C37         0.5610   23.5640   15.3740 C.3       1 ZBD         0.0439
     22 C40        -0.0630   23.0570   16.6740 C.3       1 ZBD        -0.0417
     23 C35         2.1030   23.4600   15.3410 C.3       1 ZBD        -0.0067
     24 C38         2.7900   23.6160   16.7060 C.3       1 ZBD         0.0463
     25 O36         3.4030   24.9040   16.8340 O.3       1 ZBD        -0.3949
     26 O3         -1.5550   24.2080   13.8460 O.2       1 ZBD        -0.3969
     27 C27        -4.2220   29.1690   19.2730 C.ar      1 ZBD        -0.0957
     28 C29        -6.4400   29.2770   18.3910 C.ar      1 ZBD        -0.0600
     29 C12        -9.6570   25.9040   14.2490 C.ar      1 ZBD        -0.0422
     30 C11       -10.0370   25.1550   15.3500 C.ar      1 ZBD        -0.0144
     31 C9         -9.2170   26.9020   16.7910 C.ar      1 ZBD        -0.0263
     32 C14       -10.6700   23.7930   15.1410 C.3       1 ZBD         0.2367
     33 O17       -10.1570   23.2670   13.9160 O.3       1 ZBD        -0.4152
     34 C16       -12.2050   23.9050   15.0390 C.3       1 ZBD         0.3977
     35 F20       -12.8150   23.5410   16.2390 F         1 ZBD        -0.1770
     36 F19       -12.6680   23.0580   14.0260 F         1 ZBD        -0.1770
     37 F18       -12.5870   25.2110   14.7220 F         1 ZBD        -0.1770
     38 F21       -10.9520   23.1250   17.4610 F         1 ZBD        -0.1770
     39 F22       -10.6590   21.5300   15.8750 F         1 ZBD        -0.1770
     40 F23        -8.9120   22.8280   16.5060 F         1 ZBD        -0.1770
     41 H1         -8.4664   29.6273   14.9877 H         1 ZBD         0.0787
     42 H2         -8.5904   29.4643   16.7723 H         1 ZBD         0.0787
     43 H3        -10.0900   25.0779   17.4866 H         1 ZBD         0.0834
     44 H4         -8.7823   27.7305   13.5466 H         1 ZBD         0.0653
     45 H5         -2.6728   28.7653   17.8593 H         1 ZBD         0.0421
     46 H6         -5.9562   29.6104   20.4488 H         1 ZBD         0.0427
     47 H7         -2.1399   28.5918   15.8195 H         1 ZBD         0.0549
     48 H8         -2.7243   28.9206   14.1530 H         1 ZBD         0.0549
     49 H9         -3.5677   26.5429   14.0279 H         1 ZBD         0.0310
     50 H10        -2.8486   26.2362   15.6451 H         1 ZBD         0.0310
     51 H11        -0.6684   27.2707   14.4899 H         1 ZBD         0.0503
     52 H12        -1.4921   26.7335   12.9867 H         1 ZBD         0.0503
     53 H13         0.2857   27.0213   15.3762 H         1 ZBD         0.0486
     54 H14         1.8367   26.1158   15.3440 H         1 ZBD         0.0486
     55 H15         0.7767   26.0305   16.7917 H         1 ZBD         0.0486
     56 H16         0.1808   22.9304   14.5592 H         1 ZBD         0.0556
     57 H17         0.2748   22.0279   16.8658 H         1 ZBD         0.0252
     58 H18        -1.1593   23.0725   16.5850 H         1 ZBD         0.0252
     59 H19         0.2465   23.7057   17.5067 H         1 ZBD         0.0252
     60 H20         2.4846   24.2473   14.6743 H         1 ZBD         0.0309
     61 H21         2.3706   22.4736   14.9344 H         1 ZBD         0.0309
     62 H22         3.5621   22.8395   16.8097 H         1 ZBD         0.0558
     63 H23         2.0395   23.4954   17.5011 H         1 ZBD         0.0558
     64 H24         3.8190   24.9723   17.6853 H         1 ZBD         0.2094
     65 H25        -3.5428   29.2113   20.1168 H         1 ZBD         0.0427
     66 H26        -7.5037   29.4128   18.5495 H         1 ZBD         0.0421
     67 H27        -9.8210   25.5146   13.2507 H         1 ZBD         0.0834
     68 H28        -9.0462   27.2902   17.7886 H         1 ZBD         0.0653
     69 H29       -10.5365   22.4108   13.7568 H         1 ZBD         0.1949
@<TRIPOS>BOND
     1    2    1 1  
     2    1    7 1  
     3    1   11 am 
     4    3    2 1  
     5    5    3 ar 
     6   31    3 ar 
     7   30    4 ar 
     8    4   31 ar 
     9   29    5 ar 
    10   32    6 1  
    11    6   38 1  
    12    6   39 1  
    13    6   40 1  
    14    7   13 ar 
    15    7   28 ar 
    16   13    8 ar 
    17    8   27 ar 
    18    9   27 ar 
    19   28    9 ar 
    20   11   10 2  
    21   11   12 2  
    22   11   14 am 
    23   14   13 1  
    24   14   15 1  
    25   15   16 1  
    26   16   17 1  
    27   17   18 1  
    28   18   19 am 
    29   18   26 2  
    30   19   20 1  
    31   19   21 1  
    32   21   22 1  
    33   21   23 1  
    34   23   24 1  
    35   24   25 1  
    36   30   29 ar 
    37   30   32 1  
    38   32   33 1  
    39   32   34 1  
    40   34   35 1  
    41   34   36 1  
    42   34   37 1  
    43    2   41 1  
    44    2   42 1  
    45    4   43 1  
    46    5   44 1  
    47    8   45 1  
    48    9   46 1  
    49   15   47 1  
    50   15   48 1  
    51   16   49 1  
    52   16   50 1  
    53   17   51 1  
    54   17   52 1  
    55   20   53 1  
    56   20   54 1  
    57   20   55 1  
    58   21   56 1  
    59   22   57 1  
    60   22   58 1  
    61   22   59 1  
    62   23   60 1  
    63   23   61 1  
    64   24   62 1  
    65   24   63 1  
    66   25   64 1  
    67   27   65 1  
    68   28   66 1  
    69   29   67 1  
    70   31   68 1  
    71   33   69 1  
@<TRIPOS>SUBSTRUCTURE
     1 ZBD         1

