### 
### Created by X-TOOL on Mon Sep 10 21:13:21 2018
### 

@<TRIPOS>MOLECULE
4ymx_ligand
   27    26     1     0     0
SMALL
GAST_HUCK


@<TRIPOS>ATOM
      1 N          -3.3070   -8.1900  -18.0480 N.4       1 ARG         0.2327
      2 CA         -3.2680   -9.6320  -18.4080 C.3       1 ARG         0.0284
      3 C          -3.6290   -9.8310  -19.8690 C.2       1 ARG         0.0844
      4 O          -4.0420   -8.8920  -20.5470 O.co2     1 ARG        -0.5643
      5 CB         -4.2270  -10.4270  -17.5210 C.3       1 ARG         0.0055
      6 CG         -5.6520   -9.9090  -17.5340 C.3       1 ARG        -0.0131
      7 CD         -6.6090  -10.8840  -16.8670 C.3       1 ARG         0.0628
      8 NE         -7.8910  -10.2530  -16.5890 N.pl3     1 ARG        -0.2723
      9 CZ         -8.9180  -10.8610  -16.0080 C.cat     1 ARG         0.2882
     10 NH1        -8.8350  -12.1280  -15.6390 N.pl3     1 ARG        -0.2849
     11 NH2       -10.0370  -10.1920  -15.8040 N.pl3     1 ARG        -0.2849
     12 OXT        -3.5110  -10.9360  -20.3960 O.co2     1 ARG        -0.5643
     13 H1         -3.0647   -8.0798  -17.0758 H         1 ARG         0.2010
     14 H2         -4.2348   -7.8292  -18.2060 H         1 ARG         0.2010
     15 H3         -2.6478   -7.6834  -18.6180 H         1 ARG         0.2010
     16 H4         -2.2462  -10.0053  -18.2451 H         1 ARG         0.1024
     17 H5         -3.8543  -10.3881  -16.4868 H         1 ARG         0.0340
     18 H6         -4.2352  -11.4705  -17.8688 H         1 ARG         0.0340
     19 H7         -5.9669   -9.7571  -18.5769 H         1 ARG         0.0302
     20 H8         -5.6879   -8.9499  -16.9967 H         1 ARG         0.0302
     21 H9         -6.1670  -11.2311  -15.9214 H         1 ARG         0.0689
     22 H10        -6.7690  -11.7436  -17.5344 H         1 ARG         0.0689
     23 H11        -8.0093   -9.2669  -16.8619 H         1 ARG         0.2642
     24 H12        -9.6398  -12.5872  -15.1892 H         1 ARG         0.2615
     25 H13        -7.9655  -12.6558  -15.8014 H         1 ARG         0.2615
     26 H14       -10.1063   -9.2049  -16.0898 H         1 ARG         0.2615
     27 H15       -10.8412  -10.6570  -15.3590 H         1 ARG         0.2615
@<TRIPOS>BOND
     1    1    2 1  
     2    2    3 1  
     3    2    5 1  
     4    3    4 ar 
     5    3   12 ar 
     6    5    6 1  
     7    6    7 1  
     8    7    8 1  
     9    8    9 ar 
    10    9   10 ar 
    11    9   11 ar 
    12    1   13 1  
    13    1   14 1  
    14    1   15 1  
    15    2   16 1  
    16    5   17 1  
    17    5   18 1  
    18    6   19 1  
    19    6   20 1  
    20    7   21 1  
    21    7   22 1  
    22    8   23 1  
    23   10   24 1  
    24   10   25 1  
    25   11   26 1  
    26   11   27 1  
@<TRIPOS>SUBSTRUCTURE
     1 ARG         1

