### 
### Created by X-TOOL on Mon Sep 10 21:13:23 2018
### 

@<TRIPOS>MOLECULE
4ynb_ligand
   45    48     1     0     0
SMALL
GAST_HUCK


@<TRIPOS>ATOM
      1 O3'        10.9160   43.5010  -34.1690 O.3       1 4EH        -0.3860
      2 C3'        10.7600   44.5310  -35.1530 C.3       1 4EH         0.1034
      3 C4'        12.0970   45.2110  -35.3860 C.3       1 4EH         0.0416
      4 C5'        12.2720   45.9360  -36.7190 C.3       1 4EH         0.0213
      5 S          12.4680   44.8460  -38.1080 S.3       1 4EH        -0.0719
      6 C2'         9.8660   45.6060  -34.5540 C.3       1 4EH        -0.0040
      7 N1'        10.8150   46.2880  -33.6560 N.4       1 4EH         0.2442
      8 C1'        12.1490   46.2810  -34.2910 C.3       1 4EH        -0.0246
      9 C10        10.3970   47.6350  -33.2810 C.3       1 4EH        -0.0117
     10 C9         10.4270   48.8120  -34.2490 C.2       1 4EH         0.0166
     11 C4          9.5840   49.1300  -35.4190 C.ar      1 4EH         0.0483
     12 N3          8.6140   48.4230  -36.0410 N.ar      1 4EH        -0.3132
     13 C2          8.0250   48.9590  -37.1330 C.ar      1 4EH         0.0439
     14 C8         11.2410   49.9330  -34.1020 C.2       1 4EH         0.0326
     15 N7         10.9940   50.8600  -35.0760 N.pl3     1 4EH        -0.2768
     16 C5         10.0260   50.4410  -35.8880 C.ar      1 4EH         0.1304
     17 C6          9.3520   50.9480  -37.0750 C.ar      1 4EH         0.1459
     18 N1          8.3750   50.1700  -37.6510 N.ar      1 4EH        -0.2741
     19 N6          9.7150   52.1520  -37.5720 N.pl3     1 4EH        -0.3157
     20 C6'        14.0890   44.3700  -38.3850 C.ar      1 4EH         0.1180
     21 C9'        15.1510   44.8250  -37.6120 C.ar      1 4EH         0.0542
     22 N3'        16.3960   44.3980  -37.9010 N.ar      1 4EH        -0.2783
     23 C8'        16.6500   43.5430  -38.9080 C.ar      1 4EH         0.0344
     24 C7'        15.5960   43.0890  -39.6770 C.ar      1 4EH         0.0343
     25 N2'        14.3530   43.5160  -39.4080 N.ar      1 4EH        -0.2615
     26 H1         10.0795   43.0750  -34.0227 H         1 4EH         0.2100
     27 H2         10.3448   44.1255  -36.0874 H         1 4EH         0.0652
     28 H3         12.9075   44.4762  -35.2715 H         1 4EH         0.0390
     29 H4         13.1645   46.5754  -36.6514 H         1 4EH         0.0412
     30 H5         11.3845   46.5623  -36.8923 H         1 4EH         0.0412
     31 H6          9.0249   45.1682  -33.9965 H         1 4EH         0.0840
     32 H7          9.4792   46.2871  -35.3263 H         1 4EH         0.0840
     33 H8         10.8722   45.7498  -32.8056 H         1 4EH         0.2042
     34 H9         12.3670   47.2656  -34.7303 H         1 4EH         0.0818
     35 H10        12.9224   46.0307  -33.5500 H         1 4EH         0.0818
     36 H11        11.0332   47.9246  -32.4317 H         1 4EH         0.0901
     37 H12         9.3537   47.5460  -32.9440 H         1 4EH         0.0901
     38 H13         7.2357   48.3983  -37.6206 H         1 4EH         0.0956
     39 H14        11.9801   50.0553  -33.3117 H         1 4EH         0.0886
     40 H15        11.4887   51.7587  -35.1687 H         1 4EH         0.2266
     41 H16         9.2481   52.5248  -38.4110 H         1 4EH         0.1805
     42 H17        10.4585   52.6963  -37.1116 H         1 4EH         0.1805
     43 H18        14.9805   45.5116  -36.7907 H         1 4EH         0.0878
     44 H19        17.6632   43.2162  -39.1123 H         1 4EH         0.0863
     45 H20        15.7717   42.3942  -40.4903 H         1 4EH         0.0904
@<TRIPOS>BOND
     1    1    2 1  
     2    2    3 1  
     3    2    6 1  
     4    3    4 1  
     5    3    8 1  
     6    4    5 1  
     7    5   20 1  
     8    6    7 1  
     9    7    8 1  
    10    7    9 1  
    11    9   10 1  
    12   10   11 1  
    13   10   14 2  
    14   11   12 ar 
    15   11   16 ar 
    16   12   13 ar 
    17   13   18 ar 
    18   14   15 1  
    19   15   16 1  
    20   16   17 ar 
    21   17   18 ar 
    22   17   19 1  
    23   20   21 ar 
    24   20   25 ar 
    25   21   22 ar 
    26   22   23 ar 
    27   23   24 ar 
    28   24   25 ar 
    29    1   26 1  
    30    2   27 1  
    31    3   28 1  
    32    4   29 1  
    33    4   30 1  
    34    6   31 1  
    35    6   32 1  
    36    7   33 1  
    37    8   34 1  
    38    8   35 1  
    39    9   36 1  
    40    9   37 1  
    41   13   38 1  
    42   14   39 1  
    43   15   40 1  
    44   19   41 1  
    45   19   42 1  
    46   21   43 1  
    47   23   44 1  
    48   24   45 1  
@<TRIPOS>SUBSTRUCTURE
     1 4EH         1

