### 
### Created by X-TOOL on Mon Sep 10 21:13:24 2018
### 

@<TRIPOS>MOLECULE
4ynd_ligand
   79    82     1     0     0
SMALL
GAST_HUCK


@<TRIPOS>ATOM
      1 C4        -16.9590   -3.7110   10.2890 C.ar      1 4GQ        -0.0558
      2 C5        -11.7520  -16.4410    8.0490 C.ar      1 4GQ        -0.0541
      3 C6         -8.9990  -16.3130    7.7290 C.ar      1 4GQ        -0.0457
      4 C7         -9.8150  -15.4000    7.0930 C.ar      1 4GQ        -0.0373
      5 C8        -14.5180   -4.8850    9.5790 C.ar      1 4GQ         0.0068
      6 C10       -15.5600   -5.6520   10.0750 C.ar      1 4GQ         0.1189
      7 C13       -17.3680   -6.9920   11.6810 C.2       1 4GQ         0.2307
      8 C15       -15.9080   -7.3380   11.5530 C.3       1 4GQ         0.1592
      9 C17        -7.1420  -10.8270   13.5190 C.3       1 4GQ        -0.0510
     10 C20        -9.7860   -9.5540   13.4230 C.3       1 4GQ        -0.0297
     11 C21        -9.0130   -9.8910   12.1510 C.3       1 4GQ         0.0452
     12 C22        -9.2050  -14.3520    6.2240 C.3       1 4GQ         0.0214
     13 C24        -8.9830  -13.0160    6.9190 C.3       1 4GQ        -0.0239
     14 C26       -10.5250   -7.0040   11.1320 C.3       1 4GQ        -0.0126
     15 C28       -12.3340   -5.7760   10.3720 C.3       1 4GQ         0.0008
     16 C1        -15.9290   -2.9380    9.7970 C.ar      1 4GQ        -0.0926
     17 C2        -14.7270   -3.5230    9.4500 C.ar      1 4GQ        -0.0812
     18 C3        -11.1870  -15.4710    7.2490 C.ar      1 4GQ        -0.0594
     19 C9        -16.7600   -5.0680   10.4210 C.ar      1 4GQ         0.0899
     20 C11       -10.9300  -17.3430    8.6910 C.ar      1 4GQ         0.0469
     21 C12        -9.5610  -17.2800    8.5330 C.ar      1 4GQ         0.0477
     22 C14        -9.6450   -9.9780    9.7510 C.2       1 4GQ         0.1840
     23 C16        -7.8710  -10.4310   14.7930 C.3       1 4GQ        -0.0529
     24 C18        -9.3760  -10.4340   14.5910 C.3       1 4GQ        -0.0510
     25 C19        -7.5050   -9.9130   12.3600 C.3       1 4GQ        -0.0297
     26 C23        -9.9380  -11.4410    9.9700 C.3       1 4GQ         0.0774
     27 C25       -10.2630  -12.1520    8.6760 C.3       1 4GQ        -0.0165
     28 C27        -9.2950   -7.8070   10.7740 C.3       1 4GQ         0.0740
     29 C29       -13.2070   -5.4890    9.1750 C.3       1 4GQ         0.1233
     30 N30       -17.7560   -5.9050   10.9270 N.am      1 4GQ        -0.2361
     31 N31        -9.1760  -13.0610    8.3610 N.4       1 4GQ         0.2301
     32 N32       -11.2240   -6.6020    9.9300 N.4       1 4GQ         0.2315
     33 N33        -9.4740   -9.2420   10.9230 N.am      1 4GQ        -0.2649
     34 O34       -18.1040   -7.6170   12.4270 O.2       1 4GQ        -0.3834
     35 O35        -9.5680   -9.5050    8.6230 O.2       1 4GQ        -0.3967
     36 O36       -15.4600   -7.0290   10.2310 O.3       1 4GQ        -0.3078
     37 O37       -12.4910   -4.6120    8.3170 O.3       1 4GQ        -0.3764
     38 CL1       -11.6310  -18.5470    9.7010 Cl        1 4GQ        -0.0764
     39 CL2        -8.5380  -18.4080    9.3330 Cl        1 4GQ        -0.0718
     40 H1        -17.9054   -3.2608   10.5661 H         1 4GQ         0.0416
     41 H2        -12.8277  -16.4940    8.1717 H         1 4GQ         0.0606
     42 H3         -7.9239  -16.2696    7.5969 H         1 4GQ         0.0562
     43 H4        -15.7671   -8.4116   11.7464 H         1 4GQ         0.0855
     44 H5        -15.3274   -6.7546   12.2828 H         1 4GQ         0.0855
     45 H6         -7.4148  -11.8601   13.2579 H         1 4GQ         0.0266
     46 H7         -6.0578  -10.7673   13.6947 H         1 4GQ         0.0266
     47 H8        -10.8603   -9.6947   13.2330 H         1 4GQ         0.0287
     48 H9         -9.5947   -8.5033   13.6864 H         1 4GQ         0.0287
     49 H10        -9.2618  -10.9481   11.9759 H         1 4GQ         0.0558
     50 H11        -9.8705  -14.1869    5.3639 H         1 4GQ         0.0479
     51 H12        -8.2318  -14.7219    5.8689 H         1 4GQ         0.0479
     52 H13        -9.6891  -12.2852    6.4979 H         1 4GQ         0.0838
     53 H14        -7.9525  -12.6881    6.7178 H         1 4GQ         0.0838
     54 H15       -10.2236   -6.1080   11.6944 H         1 4GQ         0.0834
     55 H16       -11.1931   -7.6191   11.7528 H         1 4GQ         0.0834
     56 H17       -12.9149   -6.3102   11.1383 H         1 4GQ         0.0860
     57 H18       -11.9537   -4.8329   10.7914 H         1 4GQ         0.0860
     58 H19       -16.0628   -1.8684    9.6822 H         1 4GQ         0.0470
     59 H20       -13.9271   -2.8997    9.0670 H         1 4GQ         0.0405
     60 H21       -11.8237  -14.7579    6.7379 H         1 4GQ         0.0559
     61 H22        -7.5513   -9.4212   15.0897 H         1 4GQ         0.0265
     62 H23        -7.6149  -11.1454   15.5892 H         1 4GQ         0.0265
     63 H24        -9.7076  -11.4644   14.3951 H         1 4GQ         0.0266
     64 H25        -9.8595  -10.0608   15.5059 H         1 4GQ         0.0266
     65 H26        -7.0179  -10.2788   11.4441 H         1 4GQ         0.0287
     66 H27        -7.1550   -8.8935   12.5794 H         1 4GQ         0.0287
     67 H28       -10.7965  -11.5334   10.6515 H         1 4GQ         0.0556
     68 H29        -9.0561  -11.9159   10.4246 H         1 4GQ         0.0556
     69 H30       -10.3763  -11.4155    7.8669 H         1 4GQ         0.0840
     70 H31       -11.1988  -12.7188    8.7896 H         1 4GQ         0.0840
     71 H32        -8.4697   -7.4896   11.4283 H         1 4GQ         0.0575
     72 H33        -9.0344   -7.5959    9.7264 H         1 4GQ         0.0575
     73 H34       -13.4074   -6.4310    8.6435 H         1 4GQ         0.0783
     74 H35       -18.7226   -5.7215   10.7478 H         1 4GQ         0.2220
     75 H36        -8.3339  -12.7688    8.8316 H         1 4GQ         0.2017
     76 H37        -9.4142  -13.9972    8.6487 H         1 4GQ         0.2017
     77 H38       -11.5647   -7.4114    9.4352 H         1 4GQ         0.2017
     78 H39       -10.6116   -6.0736    9.3285 H         1 4GQ         0.2017
     79 H40       -13.0208   -4.4154    7.5534 H         1 4GQ         0.2128
@<TRIPOS>BOND
     1   16    1 ar 
     2   19    1 ar 
     3   18    2 ar 
     4    2   20 ar 
     5    4    3 ar 
     6    3   21 ar 
     7   12    4 1  
     8    4   18 ar 
     9    5    6 ar 
    10    5   17 ar 
    11   29    5 1  
    12    6   19 ar 
    13    6   36 1  
    14    8    7 1  
    15   30    7 am 
    16    7   34 2  
    17   36    8 1  
    18    9   23 1  
    19   25    9 1  
    20   11   10 1  
    21   10   24 1  
    22   11   25 1  
    23   33   11 1  
    24   13   12 1  
    25   31   13 1  
    26   28   14 1  
    27   14   32 1  
    28   15   29 1  
    29   32   15 1  
    30   17   16 ar 
    31   19   30 1  
    32   21   20 ar 
    33   20   38 1  
    34   21   39 1  
    35   22   26 1  
    36   33   22 am 
    37   22   35 2  
    38   24   23 1  
    39   26   27 1  
    40   27   31 1  
    41   28   33 1  
    42   29   37 1  
    43    1   40 1  
    44    2   41 1  
    45    3   42 1  
    46    8   43 1  
    47    8   44 1  
    48    9   45 1  
    49    9   46 1  
    50   10   47 1  
    51   10   48 1  
    52   11   49 1  
    53   12   50 1  
    54   12   51 1  
    55   13   52 1  
    56   13   53 1  
    57   14   54 1  
    58   14   55 1  
    59   15   56 1  
    60   15   57 1  
    61   16   58 1  
    62   17   59 1  
    63   18   60 1  
    64   23   61 1  
    65   23   62 1  
    66   24   63 1  
    67   24   64 1  
    68   25   65 1  
    69   25   66 1  
    70   26   67 1  
    71   26   68 1  
    72   27   69 1  
    73   27   70 1  
    74   28   71 1  
    75   28   72 1  
    76   29   73 1  
    77   30   74 1  
    78   31   75 1  
    79   31   76 1  
    80   32   77 1  
    81   32   78 1  
    82   37   79 1  
@<TRIPOS>SUBSTRUCTURE
     1 4GQ         1

