### 
### Created by X-TOOL on Mon Sep 10 21:13:23 2018
### 

@<TRIPOS>MOLECULE
4yne_ligand
   45    49     1     0     0
SMALL
GAST_HUCK


@<TRIPOS>ATOM
      1 C2        -19.9980  -44.3260  -16.1310 C.ar      1 4EK         0.1259
      2 C3        -20.4380  -45.3830  -15.3240 C.ar      1 4EK        -0.0352
      3 C11       -15.2790  -42.6470  -17.0400 C.3       1 4EK         0.0322
      4 C13       -16.0250  -42.1760  -14.7560 C.2       1 4EK         0.1528
      5 C16       -16.3250  -40.4720  -12.6020 C.2       1 4EK         0.1641
      6 C17       -15.8040  -39.8990  -13.8410 C.2       1 4EK         0.0055
      7 C18       -15.6720  -40.7300  -14.8990 C.2       1 4EK         0.0007
      8 C20       -17.0510  -40.8720  -10.5780 C.2       1 4EK        -0.0064
      9 C21       -17.0680  -41.9980  -11.3300 C.2       1 4EK         0.1282
     10 C22       -17.5620  -43.3280  -10.7750 C.ar      1 4EK         0.0678
     11 C23       -17.6680  -44.4910  -11.5560 C.ar      1 4EK        -0.0326
     12 C24       -18.1470  -45.6830  -10.9860 C.ar      1 4EK        -0.0484
     13 C25       -18.5280  -45.6970   -9.6310 C.ar      1 4EK        -0.0404
     14 C26       -18.4150  -44.5110   -8.8920 C.ar      1 4EK         0.0022
     15 F1        -20.8920  -43.6110  -16.7900 F         1 4EK        -0.1853
     16 C4        -19.4980  -46.1480  -14.6320 C.ar      1 4EK        -0.0703
     17 C5        -18.1350  -45.8380  -14.7570 C.ar      1 4EK        -0.0622
     18 C6        -17.6970  -44.7740  -15.5530 C.ar      1 4EK        -0.0202
     19 C7        -18.6380  -44.0040  -16.2280 C.ar      1 4EK        -0.0249
     20 C8        -16.1910  -44.4510  -15.6380 C.3       1 4EK         0.0734
     21 C9        -15.5150  -45.0850  -16.9000 C.3       1 4EK        -0.0184
     22 C10       -15.3980  -43.9260  -17.9010 C.3       1 4EK        -0.0290
     23 N12       -15.8600  -43.0260  -15.7490 N.pl3     1 4EK        -0.2760
     24 N14       -16.4630  -42.5590  -13.6030 N.2       1 4EK        -0.1434
     25 N15       -16.6300  -41.7330  -12.5490 N.pl3     1 4EK        -0.1396
     26 N19       -16.5410  -39.8950  -11.5020 N.2       1 4EK        -0.3239
     27 N27       -17.9510  -43.3750   -9.4720 N.ar      1 4EK        -0.3005
     28 H1        -21.4957  -45.6041  -15.2380 H         1 4EK         0.0546
     29 H2        -15.8427  -41.8181  -17.4930 H         1 4EK         0.0518
     30 H3        -14.2256  -42.3528  -16.9222 H         1 4EK         0.0518
     31 H4        -15.5333  -38.8464  -13.9093 H         1 4EK         0.0752
     32 H5        -15.3098  -40.3477  -15.8522 H         1 4EK         0.0697
     33 H6        -17.3478  -40.7399   -9.5386 H         1 4EK         0.0592
     34 H7        -17.3797  -44.4689  -12.6007 H         1 4EK         0.0668
     35 H8        -18.2224  -46.5836  -11.5845 H         1 4EK         0.0716
     36 H9        -18.9004  -46.6043   -9.1693 H         1 4EK         0.0658
     37 H10       -18.7012  -44.5012   -7.8465 H         1 4EK         0.0808
     38 H11       -19.8172  -46.9726  -14.0049 H         1 4EK         0.0589
     39 H12       -17.4048  -46.4367  -14.2246 H         1 4EK         0.0523
     40 H13       -18.3204  -43.1580  -16.8268 H         1 4EK         0.0542
     41 H14       -15.7210  -44.8548  -14.7292 H         1 4EK         0.0715
     42 H15       -16.1398  -45.8915  -17.3112 H         1 4EK         0.0310
     43 H16       -14.5207  -45.4831  -16.6491 H         1 4EK         0.0310
     44 H17       -14.5044  -44.0503  -18.5303 H         1 4EK         0.0287
     45 H18       -16.2924  -43.8778  -18.5395 H         1 4EK         0.0287
@<TRIPOS>BOND
     1    1    2 ar 
     2    1   15 1  
     3   19    1 ar 
     4   16    2 ar 
     5    3   22 1  
     6   23    3 1  
     7    4    7 1  
     8   23    4 1  
     9    4   24 2  
    10    6    5 1  
    11    5   25 1  
    12    5   26 2  
    13    7    6 2  
    14    8    9 2  
    15   26    8 1  
    16    9   10 1  
    17   25    9 1  
    18   10   11 ar 
    19   10   27 ar 
    20   11   12 ar 
    21   12   13 ar 
    22   14   13 ar 
    23   27   14 ar 
    24   17   16 ar 
    25   18   17 ar 
    26   18   19 ar 
    27   20   18 1  
    28   20   21 1  
    29   20   23 1  
    30   21   22 1  
    31   24   25 1  
    32    2   28 1  
    33    3   29 1  
    34    3   30 1  
    35    6   31 1  
    36    7   32 1  
    37    8   33 1  
    38   11   34 1  
    39   12   35 1  
    40   13   36 1  
    41   14   37 1  
    42   16   38 1  
    43   17   39 1  
    44   19   40 1  
    45   20   41 1  
    46   21   42 1  
    47   21   43 1  
    48   22   44 1  
    49   22   45 1  
@<TRIPOS>SUBSTRUCTURE
     1 4EK         1

