### 
### Created by X-TOOL on Mon Sep 10 21:13:29 2018
### 

@<TRIPOS>MOLECULE
4ynk_ligand
   81    86     1     0     0
SMALL
GAST_HUCK


@<TRIPOS>ATOM
      1 C17        13.7930    3.9110   26.7430 C.3       1 YW2         0.0294
      2 C20        13.0370    2.7450   27.1870 C.1       1 YW2        -0.0843
      3 C22        12.3880    1.7820   27.4410 C.1       1 YW2        -0.0145
      4 C23        11.5020    0.5700   27.5790 C.1       1 YW2        -0.0122
      5 O03         9.9190   -2.3110   28.4840 O.3       1 YW2        -0.3787
      6 C24        10.7500   -0.3450   27.5440 C.1       1 YW2        -0.0566
      7 C25         9.7700   -1.4190   27.3720 C.3       1 YW2         0.1220
      8 C35         6.5440    0.5770   25.9510 C.3       1 YW2        -0.0399
      9 C38         6.1340    1.2830   27.3150 C.3       1 YW2        -0.0473
     10 C36         5.6240   -0.6900   25.7320 C.3       1 YW2        -0.0473
     11 C37         8.0430    0.1000   26.0330 C.3       1 YW2        -0.0412
     12 C34         7.7890   -0.1910   28.6410 C.3       1 YW2        -0.0412
     13 C33         6.2840    0.2780   28.5400 C.3       1 YW2        -0.0399
     14 C32         5.3770   -1.0010   28.2910 C.3       1 YW2        -0.0473
     15 C31         5.7890   -1.7180   26.9350 C.3       1 YW2        -0.0399
     16 C30         7.2980   -2.1780   27.0310 C.3       1 YW2        -0.0412
     17 C29         8.2760   -0.9200   27.2760 C.3       1 YW2         0.0087
     18 C13        12.9890    5.0230   25.9490 C.3       1 YW2        -0.0055
     19 C14        14.2190    5.7060   25.2590 C.3       1 YW2        -0.0053
     20 C15        14.9500    4.4850   24.6510 C.3       1 YW2        -0.0385
     21 C16        14.9830    3.5080   25.8210 C.3       1 YW2        -0.0363
     22 C12        12.2930    6.0830   26.8750 C.3       1 YW2        -0.0422
     23 C11        11.9370    7.4300   26.1510 C.3       1 YW2        -0.0422
     24 C09        13.0920    8.0090   25.2760 C.3       1 YW2        -0.0234
     25 C08        13.7550    6.9210   24.3960 C.2       1 YW2        -0.0718
     26 C18        11.9110    4.4270   24.9180 C.3       1 YW2        -0.0562
     27 C07        13.9000    6.9590   23.0820 C.2       1 YW2        -0.1089
     28 C06        13.6560    8.0220   22.1720 C.2       1 YW2        -0.1086
     29 C05        13.5340    7.8800   20.8650 C.2       1 YW2        -0.0657
     30 C04        13.3760    9.1390   19.9800 C.3       1 YW2         0.0150
     31 C03        14.1540    9.0090   18.6190 C.3       1 YW2         0.1023
     32 C02        13.7680    7.6950   17.9040 C.2       1 YW2        -0.0127
     33 C01        14.1240    6.4550   18.7400 C.3       1 YW2         0.1023
     34 C10        13.4070    6.5130   20.0920 C.3       1 YW2         0.0150
     35 C28        13.1190    7.6780   16.7160 C.2       1 YW2        -0.1238
     36 O01        13.7370    5.2120   18.1260 O.3       1 YW2        -0.3742
     37 O02        15.5700    9.0090   18.9040 O.3       1 YW2        -0.3742
     38 H1         14.1984    4.3815   27.6509 H         1 YW2         0.0441
     39 H2          9.7584   -1.8377   29.2919 H         1 YW2         0.2111
     40 H3         10.0055   -1.9574   26.4422 H         1 YW2         0.0737
     41 H4          6.4206    1.2811   25.1149 H         1 YW2         0.0301
     42 H5          5.0878    1.6162   27.2482 H         1 YW2         0.0271
     43 H6          6.7861    2.1532   27.4808 H         1 YW2         0.0271
     44 H7          5.9088   -1.1852   24.7920 H         1 YW2         0.0271
     45 H8          4.5738   -0.3681   25.6733 H         1 YW2         0.0271
     46 H9          8.6911    0.9789   26.1656 H         1 YW2         0.0274
     47 H10         8.3069   -0.4122   25.0960 H         1 YW2         0.0274
     48 H11         7.8882   -0.8972   29.4785 H         1 YW2         0.0274
     49 H12         8.4257    0.6870   28.8243 H         1 YW2         0.0274
     50 H13         5.9811    0.7777   29.4720 H         1 YW2         0.0301
     51 H14         4.3231   -0.6917   28.2314 H         1 YW2         0.0271
     52 H15         5.5060   -1.7048   29.1265 H         1 YW2         0.0271
     53 H16         5.1446   -2.5933   26.7660 H         1 YW2         0.0301
     54 H17         7.5819   -2.6757   26.0920 H         1 YW2         0.0274
     55 H18         7.4054   -2.8843   27.8674 H         1 YW2         0.0274
     56 H19        14.8834    6.1298   26.0264 H         1 YW2         0.0478
     57 H20        15.9666    4.7510   24.3258 H         1 YW2         0.0293
     58 H21        14.3901    4.0687   23.8006 H         1 YW2         0.0293
     59 H22        14.8572    2.4759   25.4620 H         1 YW2         0.0279
     60 H23        15.9353    3.5936   26.3649 H         1 YW2         0.0279
     61 H24        12.9705    6.3089   27.7116 H         1 YW2         0.0275
     62 H25        11.3628    5.6438   27.2647 H         1 YW2         0.0275
     63 H26        11.6773    8.1755   26.9170 H         1 YW2         0.0290
     64 H27        11.0671    7.2533   25.5014 H         1 YW2         0.0290
     65 H28        13.8553    8.4439   25.9380 H         1 YW2         0.0437
     66 H29        12.6832    8.7937   24.6225 H         1 YW2         0.0437
     67 H30        12.3968    3.6841   24.2683 H         1 YW2         0.0237
     68 H31        11.5032    5.2420   24.3019 H         1 YW2         0.0237
     69 H32        11.0949    3.9467   25.4777 H         1 YW2         0.0237
     70 H33        14.2608    6.0364   22.6296 H         1 YW2         0.0219
     71 H34        13.5628    9.0266   22.5819 H         1 YW2         0.0219
     72 H35        13.7652   10.0092   20.5289 H         1 YW2         0.0490
     73 H36        12.3078    9.2890   19.7646 H         1 YW2         0.0490
     74 H37        13.9065    9.8621   17.9703 H         1 YW2         0.0819
     75 H38        15.2124    6.4492   18.8990 H         1 YW2         0.0819
     76 H39        12.3383    6.3192   19.9181 H         1 YW2         0.0490
     77 H40        13.8239    5.7212   20.7316 H         1 YW2         0.0490
     78 H41        12.9106    8.6118   16.1960 H         1 YW2         0.0077
     79 H42        12.8053    6.7305   16.2804 H         1 YW2         0.0077
     80 H43        12.7940    5.1965   18.0120 H         1 YW2         0.2139
     81 H44        16.0556    8.9376   18.0906 H         1 YW2         0.2139
@<TRIPOS>BOND
     1    2    1 1  
     2    1   18 1  
     3    1   21 1  
     4    3    2 3  
     5    4    3 1  
     6    6    4 3  
     7    7    5 1  
     8    7    6 1  
     9   17    7 1  
    10    8    9 1  
    11    8   10 1  
    12   11    8 1  
    13    9   13 1  
    14   10   15 1  
    15   11   17 1  
    16   13   12 1  
    17   12   17 1  
    18   13   14 1  
    19   14   15 1  
    20   15   16 1  
    21   16   17 1  
    22   18   19 1  
    23   18   22 1  
    24   18   26 1  
    25   19   20 1  
    26   19   25 1  
    27   20   21 1  
    28   22   23 1  
    29   23   24 1  
    30   24   25 1  
    31   25   27 2  
    32   27   28 1  
    33   28   29 2  
    34   29   30 1  
    35   29   34 1  
    36   30   31 1  
    37   31   32 1  
    38   31   37 1  
    39   32   33 1  
    40   32   35 2  
    41   33   34 1  
    42   33   36 1  
    43    1   38 1  
    44    5   39 1  
    45    7   40 1  
    46    8   41 1  
    47    9   42 1  
    48    9   43 1  
    49   10   44 1  
    50   10   45 1  
    51   11   46 1  
    52   11   47 1  
    53   12   48 1  
    54   12   49 1  
    55   13   50 1  
    56   14   51 1  
    57   14   52 1  
    58   15   53 1  
    59   16   54 1  
    60   16   55 1  
    61   19   56 1  
    62   20   57 1  
    63   20   58 1  
    64   21   59 1  
    65   21   60 1  
    66   22   61 1  
    67   22   62 1  
    68   23   63 1  
    69   23   64 1  
    70   24   65 1  
    71   24   66 1  
    72   26   67 1  
    73   26   68 1  
    74   26   69 1  
    75   27   70 1  
    76   28   71 1  
    77   30   72 1  
    78   30   73 1  
    79   31   74 1  
    80   33   75 1  
    81   34   76 1  
    82   34   77 1  
    83   35   78 1  
    84   35   79 1  
    85   36   80 1  
    86   37   81 1  
@<TRIPOS>SUBSTRUCTURE
     1 YW2         1

