### 
### Created by X-TOOL on Mon Sep 10 21:13:24 2018
### 

@<TRIPOS>MOLECULE
4yo6_ligand
   38    41     1     0     0
SMALL
GAST_HUCK


@<TRIPOS>ATOM
      1 N01        30.1570    6.6200   -7.1810 N.am      1 4GD        -0.2105
      2 C02        30.8010    5.6690   -7.8870 C.2       1 4GD         0.2063
      3 O03        30.7530    4.4300   -7.7000 O.2       1 4GD        -0.3954
      4 C04        31.6980    6.1510   -8.9800 C.2       1 4GD         0.0813
      5 C05        32.6730    5.3670   -9.6810 C.2       1 4GD         0.0046
      6 N06        33.3240    6.0860  -10.5850 N.2       1 4GD        -0.2028
      7 N07        32.7740    7.3670  -10.4940 N.pl3     1 4GD        -0.1272
      8 C08        31.7730    7.4200   -9.4770 C.2       1 4GD         0.1868
      9 N09        31.1260    8.5850   -9.1760 N.2       1 4GD        -0.2612
     10 C10        31.5040    9.6740   -9.9100 C.2       1 4GD         0.0175
     11 C11        32.4880    9.6590  -10.9590 C.2       1 4GD         0.0107
     12 C12        33.1260    8.4590  -11.2330 C.2       1 4GD         0.1171
     13 C13        29.3770    6.4690   -6.0810 C.2       1 4GD         0.1925
     14 C14        29.0750    5.2880   -5.3620 C.2       1 4GD        -0.0284
     15 C15        28.2840    5.7430   -4.2680 C.2       1 4GD        -0.0191
     16 N16        28.1080    7.1060   -4.3280 N.2       1 4GD        -0.2435
     17 N17        28.7920    7.5430   -5.4390 N.pl3     1 4GD        -0.1534
     18 C18        27.7200    4.9190   -3.1520 C.3       1 4GD        -0.0332
     19 C19        28.8480    8.9120   -5.7450 C.ar      1 4GD         0.1040
     20 C20        29.3460    9.8340   -4.7480 C.ar      1 4GD        -0.0285
     21 C21        29.4170   11.2310   -5.0530 C.ar      1 4GD        -0.0674
     22 C22        29.0120   11.7160   -6.3470 C.ar      1 4GD        -0.0700
     23 C23        28.5210   10.8000   -7.3380 C.ar      1 4GD        -0.0674
     24 C24        28.4290    9.4000   -7.0410 C.ar      1 4GD        -0.0285
     25 H1         30.2685    7.5576   -7.5105 H         1 4GD         0.2316
     26 H2         32.8563    4.3100   -9.4937 H         1 4GD         0.0693
     27 H3         31.0240   10.6249   -9.6836 H         1 4GD         0.1000
     28 H4         32.7244   10.5618  -11.5203 H         1 4GD         0.0622
     29 H5         33.8833    8.3900  -12.0125 H         1 4GD         0.1382
     30 H6         29.3774    4.2674   -5.5919 H         1 4GD         0.0133
     31 H7         27.1556    5.5679   -2.4662 H         1 4GD         0.0376
     32 H8         28.5406    4.4326   -2.6044 H         1 4GD         0.0376
     33 H9         27.0495    4.1514   -3.5656 H         1 4GD         0.0376
     34 H10        29.6630    9.4700   -3.7774 H         1 4GD         0.0572
     35 H11        29.7778   11.9279   -4.3053 H         1 4GD         0.0596
     36 H12        29.0779   12.7741   -6.5733 H         1 4GD         0.0547
     37 H13        28.2194   11.1674   -8.3122 H         1 4GD         0.0596
     38 H14        28.0470    8.7100   -7.7847 H         1 4GD         0.0572
@<TRIPOS>BOND
     1    1    2 am 
     2    1   13 1  
     3    2    3 2  
     4    2    4 1  
     5    4    5 1  
     6    4    8 2  
     7    5    6 2  
     8    6    7 1  
     9    7    8 1  
    10    7   12 1  
    11    8    9 1  
    12    9   10 2  
    13   10   11 1  
    14   11   12 2  
    15   13   14 2  
    16   13   17 1  
    17   14   15 1  
    18   15   16 2  
    19   15   18 1  
    20   16   17 1  
    21   17   19 1  
    22   19   20 ar 
    23   19   24 ar 
    24   20   21 ar 
    25   21   22 ar 
    26   22   23 ar 
    27   23   24 ar 
    28    1   25 1  
    29    5   26 1  
    30   10   27 1  
    31   11   28 1  
    32   12   29 1  
    33   14   30 1  
    34   18   31 1  
    35   18   32 1  
    36   18   33 1  
    37   20   34 1  
    38   21   35 1  
    39   22   36 1  
    40   23   37 1  
    41   24   38 1  
@<TRIPOS>SUBSTRUCTURE
     1 4GD         1

