### 
### Created by X-TOOL on Mon Sep 10 21:13:23 2018
### 

@<TRIPOS>MOLECULE
4yo8_ligand
   44    45     1     0     0
SMALL
GAST_HUCK


@<TRIPOS>ATOM
      1 C1'        -5.5250   17.3280  -24.3980 C.3       1 4EZ         0.0723
      2 N1'        -6.7760   18.0880  -24.7460 N.4       1 4EZ         0.2615
      3 C11        -6.6580   19.3520  -23.9770 C.3       1 4EZ        -0.0288
      4 C12        -7.4880   19.3940  -22.6990 C.3       1 4EZ        -0.0124
      5 C13        -8.0980   20.8050  -22.5740 C.3       1 4EZ        -0.0483
      6 C15        -8.6290   21.8200  -20.3270 C.3       1 4EZ        -0.0559
      7 C16        -9.6050   21.8550  -19.1700 C.3       1 4EZ        -0.0653
      8 C10        -6.8010   18.1470  -26.2190 C.3       1 4EZ        -0.0095
      9 C9         -6.6810   19.4910  -26.8960 C.2       1 4EZ         0.0167
     10 C4         -5.6870   20.5540  -26.7670 C.ar      1 4EZ         0.0483
     11 N3         -4.5850   20.6290  -26.0240 N.ar      1 4EZ        -0.3132
     12 C8         -7.5600   19.9960  -27.8490 C.2       1 4EZ         0.0326
     13 N7         -7.1930   21.2350  -28.2650 N.pl3     1 4EZ        -0.2768
     14 C5         -6.0880   21.6320  -27.6620 C.ar      1 4EZ         0.1304
     15 C6         -5.2110   22.8110  -27.6940 C.ar      1 4EZ         0.1459
     16 N6         -5.4650   23.8670  -28.4830 N.pl3     1 4EZ        -0.3157
     17 N1         -4.1270   22.7880  -26.9030 N.ar      1 4EZ        -0.2741
     18 C2         -3.8320   21.7450  -26.1220 C.ar      1 4EZ         0.0439
     19 O1         -5.4990   17.2130  -22.9950 O.3       1 4EZ        -0.3557
     20 C14        -9.1480   20.9530  -21.4670 C.3       1 4EZ        -0.0531
     21 H1         -4.6383   17.8756  -24.7500 H         1 4EZ         0.1146
     22 H2         -5.5468   16.3299  -24.8599 H         1 4EZ         0.1146
     23 H3         -7.6010   17.5995  -24.4348 H         1 4EZ         0.2066
     24 H4         -6.9823   20.1798  -24.6247 H         1 4EZ         0.0815
     25 H5         -5.6013   19.4915  -23.7051 H         1 4EZ         0.0815
     26 H6         -6.8464   19.1863  -21.8300 H         1 4EZ         0.0317
     27 H7         -8.2905   18.6435  -22.7501 H         1 4EZ         0.0317
     28 H8         -8.5731   21.0591  -23.5330 H         1 4EZ         0.0267
     29 H9         -7.2823   21.5141  -22.3695 H         1 4EZ         0.0267
     30 H10        -7.6706   21.4111  -19.9744 H         1 4EZ         0.0263
     31 H11        -8.4765   22.8444  -20.6975 H         1 4EZ         0.0263
     32 H12        -9.1993   22.4882  -18.3672 H         1 4EZ         0.0230
     33 H13        -9.7594   20.8345  -18.7895 H         1 4EZ         0.0230
     34 H14       -10.5653   22.2678  -19.5127 H         1 4EZ         0.0230
     35 H15        -7.7547   17.7056  -26.5439 H         1 4EZ         0.0901
     36 H16        -5.9677   17.5272  -26.5814 H         1 4EZ         0.0901
     37 H17        -8.4354   19.4625  -28.2163 H         1 4EZ         0.0886
     38 H18        -7.7094   21.7925  -28.9603 H         1 4EZ         0.2266
     39 H19        -4.8286   24.6769  -28.4802 H         1 4EZ         0.1805
     40 H20        -6.2963   23.8673  -29.0912 H         1 4EZ         0.1805
     41 H21        -2.9274   21.7985  -25.5272 H         1 4EZ         0.0956
     42 H22        -4.7203   16.7366  -22.7318 H         1 4EZ         0.2151
     43 H23        -9.3982   19.9564  -21.0744 H         1 4EZ         0.0265
     44 H24       -10.0510   21.4183  -21.8890 H         1 4EZ         0.0265
@<TRIPOS>BOND
     1    2    1 1  
     2    1   19 1  
     3    3    2 1  
     4    2    8 1  
     5    4    3 1  
     6    5    4 1  
     7   20    5 1  
     8    6    7 1  
     9    6   20 1  
    10    8    9 1  
    11    9   10 1  
    12    9   12 2  
    13   10   11 ar 
    14   10   14 ar 
    15   11   18 ar 
    16   12   13 1  
    17   13   14 1  
    18   14   15 ar 
    19   15   16 1  
    20   15   17 ar 
    21   17   18 ar 
    22    1   21 1  
    23    1   22 1  
    24    2   23 1  
    25    3   24 1  
    26    3   25 1  
    27    4   26 1  
    28    4   27 1  
    29    5   28 1  
    30    5   29 1  
    31    6   30 1  
    32    6   31 1  
    33    7   32 1  
    34    7   33 1  
    35    7   34 1  
    36    8   35 1  
    37    8   36 1  
    38   12   37 1  
    39   13   38 1  
    40   16   39 1  
    41   16   40 1  
    42   18   41 1  
    43   19   42 1  
    44   20   43 1  
    45   20   44 1  
@<TRIPOS>SUBSTRUCTURE
     1 4EZ         1

