### 
### Created by X-TOOL on Mon Sep 10 21:13:22 2018
### 

@<TRIPOS>MOLECULE
4yog_ligand
   64    67     1     0     0
SMALL
GAST_HUCK


@<TRIPOS>ATOM
      1 C10         4.4800  -29.1510  -23.6370 C.3       1 4F5         0.0308
      2 C12         5.1760  -24.4730  -25.1980 C.ar      1 4F5        -0.0531
      3 C13         5.4950  -23.4480  -26.1160 C.ar      1 4F5        -0.0527
      4 C14         4.9460  -22.2330  -29.2480 C.3       1 4F5         0.1727
      5 C15         4.9000  -22.7430  -30.7000 C.2       1 4F5         0.2151
      6 C17         5.9380  -24.4970  -32.3640 C.3       1 4F5         0.0448
      7 O01         7.6200  -21.4260  -29.4710 O.2       1 4F5        -0.3831
      8 C02         7.3970  -22.2700  -28.6280 C.2       1 4F5         0.2383
      9 N03         6.0580  -22.7500  -28.4350 N.am      1 4F5        -0.1967
     10 C04         5.7490  -23.7680  -27.4500 C.ar      1 4F5         0.0594
     11 C05         5.6770  -25.0940  -27.8670 C.ar      1 4F5        -0.0527
     12 C06         5.3580  -26.1060  -26.9530 C.ar      1 4F5        -0.0531
     13 C07         5.1200  -25.7990  -25.6030 C.ar      1 4F5         0.0520
     14 N08         4.7630  -26.8170  -24.6370 N.am      1 4F5        -0.2424
     15 C09         4.9630  -28.2340  -24.7630 C.2       1 4F5         0.1968
     16 O11         5.5130  -28.7330  -25.7290 O.2       1 4F5        -0.3871
     17 N16         5.7770  -23.8540  -31.0680 N.am      1 4F5        -0.2782
     18 C18         4.6380  -24.6910  -33.1160 C.3       1 4F5        -0.0396
     19 C19         6.5520  -25.8460  -32.1500 C.3       1 4F5        -0.0396
     20 C20         6.8950  -23.6870  -33.1980 C.3       1 4F5        -0.0396
     21 O21         4.1490  -22.1940  -31.4980 O.2       1 4F5        -0.3919
     22 C22         3.6520  -22.2940  -28.4380 C.2       1 4F5        -0.0139
     23 C23         2.6580  -23.3240  -28.5040 C.2       1 4F5        -0.0095
     24 S24         1.4690  -23.0230  -27.4480 S.3       1 4F5        -0.0583
     25 C25         2.0010  -21.6570  -26.7830 C.2       1 4F5        -0.0110
     26 C26         3.2580  -21.2750  -27.3700 C.2       1 4F5        -0.0689
     27 C27         8.5270  -22.8140  -27.7700 C.3       1 4F5         0.1687
     28 N28         9.7770  -22.1430  -28.0810 N.pl3     1 4F5        -0.1415
     29 C29        10.7450  -22.6140  -28.9800 C.ar      1 4F5         0.1170
     30 C30        10.8350  -23.7650  -29.7980 C.ar      1 4F5        -0.0313
     31 C31        11.9610  -23.9660  -30.6030 C.ar      1 4F5        -0.0695
     32 C32        13.0040  -23.0190  -30.6000 C.ar      1 4F5        -0.0707
     33 C33        12.9190  -21.8850  -29.7960 C.ar      1 4F5        -0.0506
     34 C34        11.7780  -21.6790  -28.9720 C.ar      1 4F5         0.0764
     35 N35        11.4020  -20.6790  -28.0820 N.2       1 4F5        -0.1992
     36 N36        10.1920  -20.9840  -27.5610 N.2       1 4F5        -0.0725
     37 H1          4.7095  -30.1963  -23.8915 H         1 4F5         0.0471
     38 H2          3.3936  -29.0346  -23.5099 H         1 4F5         0.0471
     39 H3          4.9898  -28.8813  -22.7003 H         1 4F5         0.0471
     40 H4          4.9723  -24.2205  -24.1637 H         1 4F5         0.0470
     41 H5          5.5423  -22.4167  -25.7853 H         1 4F5         0.0470
     42 H6          5.1513  -21.1582  -29.3606 H         1 4F5         0.0972
     43 H7          5.8687  -25.3445  -28.9041 H         1 4F5         0.0470
     44 H8          5.2942  -27.1343  -27.2899 H         1 4F5         0.0470
     45 H9          4.3314  -26.5000  -23.7925 H         1 4F5         0.2209
     46 H10         6.3424  -24.2216  -30.3296 H         1 4F5         0.1858
     47 H11         4.8416  -25.1801  -34.0800 H         1 4F5         0.0254
     48 H12         4.1674  -23.7127  -33.2933 H         1 4F5         0.0254
     49 H13         3.9607  -25.3212  -32.5210 H         1 4F5         0.0254
     50 H14         6.6816  -26.3479  -33.1202 H         1 4F5         0.0254
     51 H15         5.8937  -26.4510  -31.5092 H         1 4F5         0.0254
     52 H16         7.5317  -25.7300  -31.6635 H         1 4F5         0.0254
     53 H17         7.0222  -24.1666  -34.1798 H         1 4F5         0.0254
     54 H18         7.8683  -23.6307  -32.6886 H         1 4F5         0.0254
     55 H19         6.4936  -22.6721  -33.3350 H         1 4F5         0.0254
     56 H20         2.6970  -24.1854  -29.1691 H         1 4F5         0.0575
     57 H21         1.4841  -21.1020  -26.0015 H         1 4F5         0.0714
     58 H22         3.8387  -20.3956  -27.0955 H         1 4F5         0.0396
     59 H23         8.6386  -23.8916  -27.9607 H         1 4F5         0.0880
     60 H24         8.2848  -22.6525  -26.7092 H         1 4F5         0.0880
     61 H25        10.0306  -24.4916  -29.8008 H         1 4F5         0.0566
     62 H26        12.0310  -24.8489  -31.2281 H         1 4F5         0.0580
     63 H27        13.8757  -23.1735  -31.2256 H         1 4F5         0.0540
     64 H28        13.7234  -21.1584  -29.7982 H         1 4F5         0.0596
@<TRIPOS>BOND
     1   15    1 1  
     2    2    3 ar 
     3   13    2 ar 
     4    3   10 ar 
     5    4    5 1  
     6    9    4 1  
     7    4   22 1  
     8    5   17 am 
     9    5   21 2  
    10   17    6 1  
    11    6   18 1  
    12    6   19 1  
    13    6   20 1  
    14    8    7 2  
    15    9    8 am 
    16    8   27 1  
    17   10    9 1  
    18   11   10 ar 
    19   12   11 ar 
    20   13   12 ar 
    21   14   13 1  
    22   14   15 am 
    23   15   16 2  
    24   22   23 2  
    25   22   26 1  
    26   23   24 1  
    27   24   25 1  
    28   25   26 2  
    29   27   28 1  
    30   28   29 1  
    31   28   36 1  
    32   29   30 ar 
    33   29   34 ar 
    34   30   31 ar 
    35   31   32 ar 
    36   32   33 ar 
    37   33   34 ar 
    38   34   35 1  
    39   35   36 2  
    40    1   37 1  
    41    1   38 1  
    42    1   39 1  
    43    2   40 1  
    44    3   41 1  
    45    4   42 1  
    46   11   43 1  
    47   12   44 1  
    48   14   45 1  
    49   17   46 1  
    50   18   47 1  
    51   18   48 1  
    52   18   49 1  
    53   19   50 1  
    54   19   51 1  
    55   19   52 1  
    56   20   53 1  
    57   20   54 1  
    58   20   55 1  
    59   23   56 1  
    60   25   57 1  
    61   26   58 1  
    62   27   59 1  
    63   27   60 1  
    64   30   61 1  
    65   31   62 1  
    66   32   63 1  
    67   33   64 1  
@<TRIPOS>SUBSTRUCTURE
     1 4F5         1

