### 
### Created by X-TOOL on Mon Sep 10 21:13:23 2018
### 

@<TRIPOS>MOLECULE
4yoi_ligand
   52    56     1     0     0
SMALL
GAST_HUCK


@<TRIPOS>ATOM
      1 C10        -6.0130  -23.9520   26.9780 C.ar      1 4F4         0.0567
      2 O01        -7.3670  -21.4030   29.1080 O.2       1 4F4        -0.3833
      3 C02        -7.3060  -22.2460   28.2430 C.2       1 4F4         0.2360
      4 N03        -6.0780  -22.9310   28.0110 N.am      1 4F4        -0.2182
      5 C04        -4.8940  -22.6400   28.8070 C.3       1 4F4         0.0738
      6 C05        -3.7190  -22.4810   27.8280 C.2       1 4F4        -0.0360
      7 C06        -2.7390  -23.4940   27.5160 C.2       1 4F4        -0.0125
      8 S07        -1.6830  -22.9370   26.4070 S.3       1 4F4        -0.0590
      9 C08        -2.2710  -21.4500   26.1720 C.2       1 4F4        -0.0113
     10 C09        -3.4390  -21.2260   26.9930 C.2       1 4F4        -0.0714
     11 C11        -5.7520  -23.6350   25.6420 C.ar      1 4F4        -0.0528
     12 C12        -5.6790  -24.6680   24.6870 C.ar      1 4F4        -0.0531
     13 C13        -5.8990  -25.9930   25.0860 C.ar      1 4F4         0.0514
     14 N14        -5.7880  -27.0660   24.1220 N.am      1 4F4        -0.2430
     15 C15        -6.5120  -28.3050   24.1620 C.2       1 4F4         0.2309
     16 C16        -6.1710  -29.3090   23.0530 C.2       1 4F4         0.1049
     17 C17        -4.9280  -29.3190   22.3260 C.2       1 4F4        -0.0547
     18 C18        -4.9510  -30.4720   21.3120 C.2       1 4F4        -0.0665
     19 C19        -6.2040  -31.1740   21.4190 C.2       1 4F4         0.0009
     20 S20        -7.1310  -30.5000   22.5640 S.3       1 4F4        -0.0255
     21 O21        -7.3500  -28.5730   24.9960 O.2       1 4F4        -0.3818
     22 C22        -6.1380  -26.3000   26.4250 C.ar      1 4F4        -0.0531
     23 C23        -6.2040  -25.2700   27.3730 C.ar      1 4F4        -0.0528
     24 C24        -8.4870  -22.6030   27.3650 C.3       1 4F4         0.1686
     25 N25        -9.6740  -21.9350   27.7870 N.pl3     1 4F4        -0.1415
     26 C26       -10.6340  -22.5150   28.5910 C.ar      1 4F4         0.1170
     27 C27       -10.7320  -23.7930   29.2010 C.ar      1 4F4        -0.0313
     28 C28       -11.8540  -24.1080   29.9800 C.ar      1 4F4        -0.0695
     29 C29       -12.8670  -23.1510   30.1650 C.ar      1 4F4        -0.0707
     30 C30       -12.7620  -21.8900   29.5630 C.ar      1 4F4        -0.0506
     31 C31       -11.6310  -21.5730   28.7660 C.ar      1 4F4         0.0764
     32 N32       -11.2270  -20.4420   28.0510 N.2       1 4F4        -0.1992
     33 N33       -10.0440  -20.6880   27.4670 N.2       1 4F4        -0.0725
     34 H1         -4.6951  -23.4675   29.5039 H         1 4F4         0.0694
     35 H2         -5.0405  -21.7094   29.3749 H         1 4F4         0.0694
     36 H3         -2.7096  -24.4886   27.9586 H         1 4F4         0.0567
     37 H4         -1.8452  -20.7170   25.4884 H         1 4F4         0.0714
     38 H5         -4.0276  -20.3100   27.0151 H         1 4F4         0.0394
     39 H6         -5.6070  -22.6031   25.3433 H         1 4F4         0.0470
     40 H7         -5.4544  -24.4396   23.6514 H         1 4F4         0.0470
     41 H8         -5.1518  -26.9331   23.3620 H         1 4F4         0.2200
     42 H9         -4.1045  -28.6214   22.4718 H         1 4F4         0.0514
     43 H10        -4.1467  -30.7198   20.6209 H         1 4F4         0.0437
     44 H11        -6.4879  -32.0353   20.8161 H         1 4F4         0.0800
     45 H12        -6.2722  -27.3311   26.7314 H         1 4F4         0.0470
     46 H13        -6.4038  -25.5015   28.4130 H         1 4F4         0.0470
     47 H14        -8.6523  -23.6894   27.4129 H         1 4F4         0.0880
     48 H15        -8.2625  -22.3116   26.3283 H         1 4F4         0.0880
     49 H16        -9.9420  -24.5227   29.0649 H         1 4F4         0.0566
     50 H17       -11.9403  -25.0865   30.4384 H         1 4F4         0.0580
     51 H18       -13.7312  -23.3890   30.7746 H         1 4F4         0.0540
     52 H19       -13.5460  -21.1552   29.7062 H         1 4F4         0.0596
@<TRIPOS>BOND
     1    4    1 1  
     2    1   11 ar 
     3    1   23 ar 
     4    3    2 2  
     5    3    4 am 
     6    3   24 1  
     7    4    5 1  
     8    5    6 1  
     9    6    7 2  
    10    6   10 1  
    11    7    8 1  
    12    8    9 1  
    13    9   10 2  
    14   11   12 ar 
    15   12   13 ar 
    16   13   14 1  
    17   13   22 ar 
    18   14   15 am 
    19   15   16 1  
    20   15   21 2  
    21   16   17 2  
    22   16   20 1  
    23   17   18 1  
    24   18   19 2  
    25   19   20 1  
    26   22   23 ar 
    27   24   25 1  
    28   25   26 1  
    29   25   33 1  
    30   26   27 ar 
    31   26   31 ar 
    32   27   28 ar 
    33   28   29 ar 
    34   29   30 ar 
    35   30   31 ar 
    36   31   32 1  
    37   32   33 2  
    38    5   34 1  
    39    5   35 1  
    40    7   36 1  
    41    9   37 1  
    42   10   38 1  
    43   11   39 1  
    44   12   40 1  
    45   14   41 1  
    46   17   42 1  
    47   18   43 1  
    48   19   44 1  
    49   22   45 1  
    50   23   46 1  
    51   24   47 1  
    52   24   48 1  
    53   27   49 1  
    54   28   50 1  
    55   29   51 1  
    56   30   52 1  
@<TRIPOS>SUBSTRUCTURE
     1 4F4         1

