### 
### Created by X-TOOL on Mon Sep 10 21:13:21 2018
### 

@<TRIPOS>MOLECULE
4yoj_ligand
   55    59     1     0     0
SMALL
GAST_HUCK


@<TRIPOS>ATOM
      1 O01        -7.2430  -21.3800   29.1620 O.2       1 RFM        -0.3833
      2 C02        -7.1720  -22.2470   28.2890 C.2       1 RFM         0.2360
      3 N03        -5.9340  -22.9520   28.0780 N.am      1 RFM        -0.2181
      4 C04        -5.8890  -23.9870   27.0560 C.ar      1 RFM         0.0567
      5 C05        -6.1110  -25.2840   27.4670 C.ar      1 RFM        -0.0527
      6 C06        -6.0660  -26.3340   26.5300 C.ar      1 RFM        -0.0530
      7 C07        -5.8270  -26.0580   25.2230 C.ar      1 RFM         0.0519
      8 N08        -5.7380  -27.1000   24.2740 N.am      1 RFM        -0.2414
      9 C09        -6.4850  -28.3320   24.2740 C.2       1 RFM         0.2286
     10 C10        -6.1560  -29.3070   23.1450 C.ar      1 RFM         0.0551
     11 C11        -4.8740  -29.2630   22.6120 C.ar      1 RFM        -0.0416
     12 C12        -4.5150  -30.1510   21.5470 C.ar      1 RFM        -0.0562
     13 C13        -5.4660  -31.0620   21.0580 C.ar      1 RFM        -0.0576
     14 C14        -6.7590  -31.1050   21.5980 C.ar      1 RFM        -0.0562
     15 C15        -7.1190  -30.2180   22.6610 C.ar      1 RFM        -0.0416
     16 O16        -7.3500  -28.6070   25.1170 O.2       1 RFM        -0.3750
     17 C17        -5.5860  -24.7420   24.8090 C.ar      1 RFM        -0.0530
     18 C18        -5.6240  -23.7000   25.7340 C.ar      1 RFM        -0.0527
     19 C19        -4.7460  -22.6620   28.8600 C.3       1 RFM         0.0738
     20 C20        -3.6100  -22.4580   27.8530 C.2       1 RFM        -0.0360
     21 C21        -2.5760  -23.4450   27.5160 C.2       1 RFM        -0.0125
     22 S22        -1.6020  -22.8570   26.3850 S.3       1 RFM        -0.0590
     23 C23        -2.2520  -21.3850   26.1480 C.2       1 RFM        -0.0113
     24 C24        -3.4050  -21.2120   27.0040 C.2       1 RFM        -0.0714
     25 C25        -8.3670  -22.6100   27.4090 C.3       1 RFM         0.1686
     26 N26        -9.5580  -21.9350   27.8030 N.pl3     1 RFM        -0.1415
     27 C27       -10.5200  -22.4960   28.6230 C.ar      1 RFM         0.1170
     28 C28       -10.6240  -23.7560   29.2770 C.ar      1 RFM        -0.0313
     29 C29       -11.7490  -24.0230   30.0610 C.ar      1 RFM        -0.0695
     30 C30       -12.7690  -23.0660   30.1980 C.ar      1 RFM        -0.0707
     31 C31       -12.6580  -21.8240   29.5470 C.ar      1 RFM        -0.0506
     32 C32       -11.5290  -21.5440   28.7570 C.ar      1 RFM         0.0764
     33 N33       -11.1210  -20.4310   28.0020 N.2       1 RFM        -0.1992
     34 N34        -9.9430  -20.6900   27.4400 N.2       1 RFM        -0.0725
     35 H1         -6.3198  -25.4951   28.5095 H         1 RFM         0.0470
     36 H2         -6.2215  -27.3576   26.8510 H         1 RFM         0.0471
     37 H3         -5.0893  -26.9692   23.5243 H         1 RFM         0.2206
     38 H4         -4.1474  -28.5588   23.0009 H         1 RFM         0.0669
     39 H5         -3.5182  -30.1203   21.1221 H         1 RFM         0.0629
     40 H6         -5.1973  -31.7387   20.2549 H         1 RFM         0.0652
     41 H7         -7.4855  -31.8099   21.2103 H         1 RFM         0.0629
     42 H8         -8.1151  -30.2452   23.0877 H         1 RFM         0.0669
     43 H9         -5.3696  -24.5334   23.7675 H         1 RFM         0.0471
     44 H10        -5.4476  -22.6781   25.4182 H         1 RFM         0.0470
     45 H11        -4.5154  -23.5038   29.5294 H         1 RFM         0.0694
     46 H12        -4.8953  -21.7497   29.4561 H         1 RFM         0.0694
     47 H13        -2.4839  -24.4316   27.9677 H         1 RFM         0.0567
     48 H14        -1.8750  -20.6402   25.4486 H         1 RFM         0.0714
     49 H15        -4.0327  -20.3227   27.0361 H         1 RFM         0.0394
     50 H16        -8.5376  -23.6947   27.4752 H         1 RFM         0.0880
     51 H17        -8.1349  -22.3381   26.3687 H         1 RFM         0.0880
     52 H18        -9.8412  -24.4980   29.1682 H         1 RFM         0.0566
     53 H19       -11.8360  -24.9770   30.5683 H         1 RFM         0.0580
     54 H20       -13.6403  -23.2847   30.8047 H         1 RFM         0.0540
     55 H21       -13.4422  -21.0833   29.6543 H         1 RFM         0.0596
@<TRIPOS>BOND
     1    1    2 2  
     2    2    3 am 
     3    2   25 1  
     4    3    4 1  
     5    3   19 1  
     6    4    5 ar 
     7    4   18 ar 
     8    5    6 ar 
     9    6    7 ar 
    10    7    8 1  
    11    7   17 ar 
    12    8    9 am 
    13    9   10 1  
    14    9   16 2  
    15   10   11 ar 
    16   10   15 ar 
    17   11   12 ar 
    18   12   13 ar 
    19   13   14 ar 
    20   14   15 ar 
    21   17   18 ar 
    22   19   20 1  
    23   20   21 2  
    24   20   24 1  
    25   21   22 1  
    26   22   23 1  
    27   23   24 2  
    28   25   26 1  
    29   26   27 1  
    30   26   34 1  
    31   27   28 ar 
    32   27   32 ar 
    33   28   29 ar 
    34   29   30 ar 
    35   30   31 ar 
    36   31   32 ar 
    37   32   33 1  
    38   33   34 2  
    39    5   35 1  
    40    6   36 1  
    41    8   37 1  
    42   11   38 1  
    43   12   39 1  
    44   13   40 1  
    45   14   41 1  
    46   15   42 1  
    47   17   43 1  
    48   18   44 1  
    49   19   45 1  
    50   19   46 1  
    51   21   47 1  
    52   23   48 1  
    53   24   49 1  
    54   25   50 1  
    55   25   51 1  
    56   28   52 1  
    57   29   53 1  
    58   30   54 1  
    59   31   55 1  
@<TRIPOS>SUBSTRUCTURE
     1 RFM         1

