### 
### Created by X-TOOL on Mon Sep 10 21:13:24 2018
### 

@<TRIPOS>MOLECULE
4yp8_ligand
   65    70     1     0     0
SMALL
GAST_HUCK


@<TRIPOS>ATOM
      1 N01        29.4320    6.2310   -7.5490 N.am      1 4GF        -0.2114
      2 C02        30.1040    5.2090   -8.1600 C.2       1 4GF         0.2059
      3 O03        29.9790    4.0280   -7.8390 O.2       1 4GF        -0.3955
      4 C04        31.0240    5.6150   -9.2250 C.2       1 4GF         0.0812
      5 C05        31.8980    4.6910   -9.8740 C.2       1 4GF         0.0046
      6 N06        32.7100    5.2760  -10.7720 N.2       1 4GF        -0.2028
      7 N07        32.3280    6.6030  -10.7890 N.pl3     1 4GF        -0.1272
      8 C08        31.2480    6.8580   -9.8480 C.2       1 4GF         0.1868
      9 N09        30.7580    8.1670   -9.6690 N.2       1 4GF        -0.2612
     10 C10        31.3260    9.1420  -10.4340 C.2       1 4GF         0.0175
     11 C11        32.3250    8.9260  -11.3670 C.2       1 4GF         0.0107
     12 C12        32.8760    7.6610  -11.5590 C.2       1 4GF         0.1171
     13 C13        28.6990    6.1680   -6.3580 C.2       1 4GF         0.1897
     14 C14        28.2600    5.1490   -5.5320 C.2       1 4GF        -0.0294
     15 C15        27.5210    5.7830   -4.4820 C.2       1 4GF        -0.0139
     16 N16        27.4780    7.1380   -4.6550 N.2       1 4GF        -0.2455
     17 N17        28.2270    7.3540   -5.7890 N.pl3     1 4GF        -0.1582
     18 C18        26.7850    5.1370   -3.3490 C.3       1 4GF        -0.0003
     19 C19        27.4910    3.9050   -2.7680 C.3       1 4GF        -0.0008
     20 C20        26.6550    3.3430   -1.6230 C.3       1 4GF        -0.0298
     21 N21        26.4920    4.3330   -0.5460 N.4       1 4GF         0.2372
     22 C22        25.7400    5.4730   -1.0990 C.3       1 4GF        -0.0298
     23 C23        26.5090    6.1520   -2.2300 C.3       1 4GF        -0.0008
     24 C24        25.8970    3.7830    0.6900 C.3       1 4GF        -0.0266
     25 C25        25.2810    4.8600    1.5790 C.3       1 4GF        -0.0218
     26 C26        26.8840    2.9110    1.4620 C.3       1 4GF        -0.0218
     27 C27        28.4250    8.6810   -6.2650 C.ar      1 4GF         0.1292
     28 C28        29.6650    9.3370   -6.1880 C.ar      1 4GF         0.1566
     29 C29        29.8970   10.5750   -6.7280 C.ar      1 4GF        -0.0329
     30 C30        28.8730   11.2060   -7.4300 C.ar      1 4GF        -0.0426
     31 C31        27.6450   10.5640   -7.5520 C.ar      1 4GF        -0.0706
     32 C32        27.4290    9.3040   -7.0150 C.ar      1 4GF        -0.0384
     33 F33        30.6660    8.7260   -5.5220 F         1 4GF        -0.1891
     34 C34        29.0840   12.5740   -8.0500 C.3       1 4GF         0.0277
     35 C35        29.9150   13.6350   -7.3750 C.2       1 4GF        -0.0635
     36 C36        28.4380   13.7340   -7.3400 C.2       1 4GF        -0.0635
     37 H1         29.4681    7.1214   -8.0028 H         1 4GF         0.2312
     38 H2         31.9061    3.6226   -9.6634 H         1 4GF         0.0693
     39 H3         30.9686   10.1621  -10.3017 H         1 4GF         0.1000
     40 H4         32.6878    9.7619  -11.9633 H         1 4GF         0.0622
     41 H5         33.6875    7.4926  -12.2654 H         1 4GF         0.1382
     42 H6         28.4398    4.0820   -5.6551 H         1 4GF         0.0129
     43 H7         25.8158    4.8000   -3.7453 H         1 4GF         0.0448
     44 H8         28.4839    4.1928   -2.3921 H         1 4GF         0.0339
     45 H9         27.6028    3.1411   -3.5515 H         1 4GF         0.0339
     46 H10        27.1554    2.4512   -1.2176 H         1 4GF         0.0816
     47 H11        25.6626    3.0640   -2.0068 H         1 4GF         0.0816
     48 H12        27.4107    4.6647   -0.2968 H         1 4GF         0.2036
     49 H13        25.5604    6.2055   -0.2983 H         1 4GF         0.0816
     50 H14        24.7767    5.1114   -1.4880 H         1 4GF         0.0816
     51 H15        25.9116    6.9844   -2.6303 H         1 4GF         0.0339
     52 H16        27.4634    6.5384   -1.8430 H         1 4GF         0.0339
     53 H17        25.0728    3.1261    0.3752 H         1 4GF         0.0846
     54 H18        24.8559    4.3930    2.4797 H         1 4GF         0.0284
     55 H19        24.4856    5.3812    1.0261 H         1 4GF         0.0284
     56 H20        26.0575    5.5819    1.8721 H         1 4GF         0.0284
     57 H21        26.3992    2.5250    2.3708 H         1 4GF         0.0284
     58 H22        27.7625    3.5110    1.7417 H         1 4GF         0.0284
     59 H23        27.2014    2.0687    0.8298 H         1 4GF         0.0284
     60 H24        30.8617   11.0552   -6.6107 H         1 4GF         0.0504
     61 H25        26.8382   11.0603   -8.0791 H         1 4GF         0.0486
     62 H26        26.4824    8.8019   -7.1790 H         1 4GF         0.0540
     63 H27        29.0828   12.4961   -9.1472 H         1 4GF         0.0566
     64 H28        30.8913   14.0366   -7.1076 H         1 4GF         0.0623
     65 H29        27.5383   14.2621   -7.0277 H         1 4GF         0.0623
@<TRIPOS>BOND
     1    1    2 am 
     2    1   13 1  
     3    2    3 2  
     4    2    4 1  
     5    4    5 1  
     6    4    8 2  
     7    5    6 2  
     8    6    7 1  
     9    7    8 1  
    10    7   12 1  
    11    8    9 1  
    12    9   10 2  
    13   10   11 1  
    14   11   12 2  
    15   13   14 2  
    16   13   17 1  
    17   14   15 1  
    18   15   16 2  
    19   15   18 1  
    20   16   17 1  
    21   17   27 1  
    22   18   19 1  
    23   18   23 1  
    24   19   20 1  
    25   20   21 1  
    26   21   22 1  
    27   21   24 1  
    28   22   23 1  
    29   24   25 1  
    30   24   26 1  
    31   27   28 ar 
    32   27   32 ar 
    33   28   29 ar 
    34   28   33 1  
    35   29   30 ar 
    36   30   31 ar 
    37   30   34 1  
    38   31   32 ar 
    39   34   35 1  
    40   34   36 1  
    41   35   36 2  
    42    1   37 1  
    43    5   38 1  
    44   10   39 1  
    45   11   40 1  
    46   12   41 1  
    47   14   42 1  
    48   18   43 1  
    49   19   44 1  
    50   19   45 1  
    51   20   46 1  
    52   20   47 1  
    53   21   48 1  
    54   22   49 1  
    55   22   50 1  
    56   23   51 1  
    57   23   52 1  
    58   24   53 1  
    59   25   54 1  
    60   25   55 1  
    61   25   56 1  
    62   26   57 1  
    63   26   58 1  
    64   26   59 1  
    65   29   60 1  
    66   31   61 1  
    67   32   62 1  
    68   34   63 1  
    69   35   64 1  
    70   36   65 1  
@<TRIPOS>SUBSTRUCTURE
     1 4GF         1

