### 
### Created by X-TOOL on Mon Sep 10 21:13:24 2018
### 

@<TRIPOS>MOLECULE
4ypf_ligand
   19    20     1     0     0
SMALL
GAST_HUCK


@<TRIPOS>ATOM
      1 C1         66.1260    8.2370   18.5500 C.ar      1 4FS         0.0339
      2 C5         61.4130    7.7830   19.9370 C.ar      1 4FS        -0.0607
      3 C3         62.7440    7.1250   18.0580 C.ar      1 4FS        -0.0445
      4 C6         62.5000    8.3260   20.5560 C.ar      1 4FS        -0.0531
      5 N          67.2690    9.3750   20.3340 N.pl3     1 4FS        -0.3312
      6 C          66.1180    8.8470   19.8080 C.ar      1 4FS         0.0663
      7 C8         64.9220    8.8770   20.4990 C.ar      1 4FS        -0.0215
      8 C7         63.7680    8.3010   19.9330 C.ar      1 4FS        -0.0070
      9 C2         63.8890    7.6960   18.6590 C.ar      1 4FS         0.0384
     10 N1         65.0800    7.6720   17.9770 N.ar      1 4FS        -0.2997
     11 C4         61.5360    7.1760   18.6930 C.ar      1 4FS        -0.0602
     12 H1         67.0623    8.2274   18.0039 H         1 4FS         0.0821
     13 H2         60.4435    7.8253   20.4201 H         1 4FS         0.0629
     14 H3         62.8251    6.6449   17.0895 H         1 4FS         0.0635
     15 H4         62.3904    8.7805   21.5340 H         1 4FS         0.0615
     16 H5         67.2534    9.8225   21.2616 H         1 4FS         0.1736
     17 H6         68.1492    9.3241   19.8015 H         1 4FS         0.1736
     18 H7         64.8718    9.3436   21.4762 H         1 4FS         0.0607
     19 H8         60.6636    6.7382   18.2215 H         1 4FS         0.0615
@<TRIPOS>BOND
     1    6    1 ar 
     2    1   10 ar 
     3    4    2 ar 
     4    2   11 ar 
     5    3    9 ar 
     6   11    3 ar 
     7    8    4 ar 
     8    6    5 1  
     9    7    6 ar 
    10    7    8 ar 
    11    8    9 ar 
    12    9   10 ar 
    13    1   12 1  
    14    2   13 1  
    15    3   14 1  
    16    4   15 1  
    17    5   16 1  
    18    5   17 1  
    19    7   18 1  
    20   11   19 1  
@<TRIPOS>SUBSTRUCTURE
     1 4FS         1

