### 
### Created by X-TOOL on Mon Sep 10 21:13:24 2018
### 

@<TRIPOS>MOLECULE
4yps_ligand
   48    52     1     0     0
SMALL
GAST_HUCK


@<TRIPOS>ATOM
      1 C1        -20.4270  -45.9490  -14.8480 C.ar      1 4F6         0.1259
      2 C2        -20.0520  -46.8820  -15.8130 C.ar      1 4F6        -0.0352
      3 C3        -18.9890  -47.7390  -15.5730 C.ar      1 4F6        -0.0703
      4 C11       -18.1650  -44.3580  -11.0930 C.2       1 4F6         0.1528
      5 C12       -17.4940  -41.6530  -11.3270 C.2       1 4F6         0.1638
      6 C13       -18.0530  -42.1390  -10.1440 C.2       1 4F6         0.0053
      7 C14       -18.3990  -43.4780  -10.0330 C.2       1 4F6         0.0006
      8 C15       -16.5940  -40.5180  -12.9810 C.2       1 4F6        -0.0074
      9 C16       -16.7330  -41.8340  -13.3530 C.2       1 4F6         0.1171
     10 C17       -16.3880  -42.4920  -14.6610 C.ar      1 4F6         0.0080
     11 C18       -16.2890  -41.6770  -15.7830 C.ar      1 4F6        -0.0485
     12 C19       -15.9710  -42.2060  -17.0360 C.ar      1 4F6        -0.0333
     13 C20       -15.7220  -43.5630  -17.1680 C.ar      1 4F6         0.0879
     14 C21       -15.8100  -44.3920  -16.0590 C.ar      1 4F6        -0.0333
     15 C22       -16.1390  -43.8660  -14.8080 C.ar      1 4F6        -0.0485
     16 C23       -15.4450  -44.0600  -18.3190 C.1       1 4F6         0.0918
     17 N5        -15.2000  -44.4760  -19.3690 N.1       1 4F6        -0.3355
     18 N3        -17.2960  -42.4980  -12.3290 N.pl3     1 4F6        -0.1404
     19 N2        -17.6290  -43.8500  -12.2220 N.2       1 4F6        -0.1436
     20 N4        -17.0710  -40.4260  -11.7220 N.2       1 4F6        -0.3243
     21 N1        -18.5190  -45.7310  -11.0880 N.pl3     1 4F6        -0.2715
     22 C10       -19.5790  -46.2390  -10.2110 C.3       1 4F6         0.0555
     23 C9        -19.4690  -47.7400  -10.0000 C.3       1 4F6         0.0680
     24 O         -18.1190  -48.1180  -10.1320 O.3       1 4F6        -0.3735
     25 C8        -17.7610  -48.0620  -11.4960 C.3       1 4F6         0.0800
     26 C7        -17.9080  -46.6540  -12.0730 C.3       1 4F6         0.0968
     27 C5        -18.6790  -46.7180  -13.3590 C.ar      1 4F6        -0.0180
     28 C6        -19.7480  -45.8620  -13.6280 C.ar      1 4F6        -0.0248
     29 F         -21.4600  -45.1180  -15.1010 F         1 4F6        -0.1853
     30 C4        -18.3130  -47.6450  -14.3510 C.ar      1 4F6        -0.0621
     31 H1        -20.5916  -46.9376  -16.7515 H         1 4F6         0.0546
     32 H2        -18.6874  -48.4674  -16.3170 H         1 4F6         0.0589
     33 H3        -18.2182  -41.4647   -9.3050 H         1 4F6         0.0752
     34 H4        -18.8554  -43.8452   -9.1149 H         1 4F6         0.0696
     35 H5        -16.1809  -39.7099  -13.5829 H         1 4F6         0.0587
     36 H6        -16.4618  -40.6115  -15.6836 H         1 4F6         0.0598
     37 H7        -15.9191  -41.5570  -17.9027 H         1 4F6         0.0698
     38 H8        -15.6222  -45.4544  -16.1643 H         1 4F6         0.0698
     39 H9        -16.2024  -44.5212  -13.9467 H         1 4F6         0.0598
     40 H10       -20.5550  -46.0144  -10.6659 H         1 4F6         0.0541
     41 H11       -19.5048  -45.7364   -9.2354 H         1 4F6         0.0541
     42 H12       -20.0753  -48.2648  -10.7529 H         1 4F6         0.0580
     43 H13       -19.8290  -47.9994   -8.9935 H         1 4F6         0.0580
     44 H14       -18.4106  -48.7463  -12.0614 H         1 4F6         0.0606
     45 H15       -16.7133  -48.3804  -11.6009 H         1 4F6         0.0606
     46 H16       -16.9021  -46.2727  -12.3027 H         1 4F6         0.0738
     47 H17       -20.0527  -45.1285  -12.8903 H         1 4F6         0.0542
     48 H18       -17.4780  -48.3101  -14.1627 H         1 4F6         0.0523
@<TRIPOS>BOND
     1    1    2 ar 
     2   28    1 ar 
     3    1   29 1  
     4    2    3 ar 
     5    3   30 ar 
     6    4    7 1  
     7    4   19 2  
     8   21    4 1  
     9    6    5 1  
    10   18    5 1  
    11    5   20 2  
    12    7    6 2  
    13    9    8 2  
    14    8   20 1  
    15    9   10 1  
    16   18    9 1  
    17   10   11 ar 
    18   10   15 ar 
    19   11   12 ar 
    20   12   13 ar 
    21   14   13 ar 
    22   13   16 1  
    23   15   14 ar 
    24   16   17 3  
    25   19   18 1  
    26   21   22 1  
    27   26   21 1  
    28   22   23 1  
    29   24   23 1  
    30   25   24 1  
    31   26   25 1  
    32   27   26 1  
    33   27   28 ar 
    34   27   30 ar 
    35    2   31 1  
    36    3   32 1  
    37    6   33 1  
    38    7   34 1  
    39    8   35 1  
    40   11   36 1  
    41   12   37 1  
    42   14   38 1  
    43   15   39 1  
    44   22   40 1  
    45   22   41 1  
    46   23   42 1  
    47   23   43 1  
    48   25   44 1  
    49   25   45 1  
    50   26   46 1  
    51   28   47 1  
    52   30   48 1  
@<TRIPOS>SUBSTRUCTURE
     1 4F6         1

