### 
### Created by X-TOOL on Mon Sep 10 21:13:25 2018
### 

@<TRIPOS>MOLECULE
4yqh_ligand
   39    42     1     0     0
SMALL
GAST_HUCK


@<TRIPOS>ATOM
      1 C1        -20.9900  -19.1270   41.6410 C.ar      1 4F7        -0.0618
      2 C2        -20.5780  -20.1830   42.4550 C.ar      1 4F7        -0.0669
      3 C3        -20.8220  -20.1270   43.8270 C.ar      1 4F7        -0.0668
      4 C4        -21.4770  -19.0230   44.3810 C.ar      1 4F7        -0.0669
      5 C5        -21.8790  -17.9610   43.5610 C.ar      1 4F7        -0.0618
      6 C6        -21.6420  -18.0130   42.1820 C.ar      1 4F7        -0.0315
      7 N1        -21.8470  -16.8520   40.0400 N.2       1 4F7        -0.3279
      8 C7        -22.0290  -16.9490   41.3570 C.2       1 4F7         0.0130
      9 C8        -22.6210  -15.8240   41.7510 C.2       1 4F7         0.0422
     10 C9        -22.3430  -15.6790   39.6310 C.2       1 4F7         0.1178
     11 N2        -22.8180  -15.0430   40.6930 N.pl3     1 4F7        -0.2574
     12 C10       -22.3540  -15.1460   38.2000 C.3       1 4F7         0.0380
     13 C11       -20.9230  -15.0580   37.6650 C.3       1 4F7         0.0203
     14 C12       -20.9050  -14.3740   36.3020 C.ar      1 4F7         0.0619
     15 C13       -20.3580  -13.1020   36.1570 C.ar      1 4F7         0.0481
     16 C14       -20.8760  -13.1480   33.9020 C.ar      1 4F7         0.0701
     17 C15       -20.8640  -12.5310   32.6560 C.ar      1 4F7        -0.0334
     18 C16       -21.4090  -13.1900   31.5520 C.ar      1 4F7        -0.0528
     19 C17       -21.9560  -14.4670   31.6960 C.ar      1 4F7        -0.0531
     20 C18       -21.9720  -15.0920   32.9480 C.ar      1 4F7        -0.0349
     21 C19       -21.4230  -14.4260   34.0430 C.ar      1 4F7         0.0642
     22 N3        -20.3510  -12.5230   34.9670 N.ar      1 4F7        -0.2721
     23 N4        -21.4160  -15.0130   35.2380 N.ar      1 4F7        -0.2748
     24 H1        -20.8023  -19.1702   40.5742 H         1 4F7         0.0576
     25 H2        -20.0725  -21.0398   42.0244 H         1 4F7         0.0604
     26 H3        -20.5027  -20.9423   44.4661 H         1 4F7         0.0575
     27 H4        -21.6740  -18.9889   45.4464 H         1 4F7         0.0604
     28 H5        -22.3735  -17.0990   43.9939 H         1 4F7         0.0576
     29 H6        -22.8994  -15.5819   42.7756 H         1 4F7         0.0877
     30 H7        -23.2596  -14.1125   40.6976 H         1 4F7         0.2405
     31 H8        -22.8101  -14.1451   38.1872 H         1 4F7         0.0530
     32 H9        -22.9403  -15.8243   37.5628 H         1 4F7         0.0530
     33 H10       -20.5100  -16.0727   37.5665 H         1 4F7         0.0508
     34 H11       -20.3079  -14.4785   38.3692 H         1 4F7         0.0508
     35 H12       -19.9397  -12.5882   37.0150 H         1 4F7         0.0923
     36 H13       -20.4335  -11.5427   32.5421 H         1 4F7         0.0670
     37 H14       -21.4075  -12.7091   30.5805 H         1 4F7         0.0656
     38 H15       -22.3703  -14.9766   30.8336 H         1 4F7         0.0670
     39 H16       -22.4047  -16.0790   33.0647 H         1 4F7         0.0653
@<TRIPOS>BOND
     1    1    2 ar 
     2    6    1 ar 
     3    2    3 ar 
     4    4    3 ar 
     5    5    4 ar 
     6    6    5 ar 
     7    8    6 1  
     8    7    8 1  
     9   10    7 2  
    10    9    8 2  
    11   11    9 1  
    12   10   11 1  
    13   12   10 1  
    14   13   12 1  
    15   14   13 1  
    16   15   14 ar 
    17   14   23 ar 
    18   22   15 ar 
    19   16   17 ar 
    20   16   21 ar 
    21   16   22 ar 
    22   17   18 ar 
    23   18   19 ar 
    24   19   20 ar 
    25   20   21 ar 
    26   21   23 ar 
    27    1   24 1  
    28    2   25 1  
    29    3   26 1  
    30    4   27 1  
    31    5   28 1  
    32    9   29 1  
    33   11   30 1  
    34   12   31 1  
    35   12   32 1  
    36   13   33 1  
    37   13   34 1  
    38   15   35 1  
    39   17   36 1  
    40   18   37 1  
    41   19   38 1  
    42   20   39 1  
@<TRIPOS>SUBSTRUCTURE
     1 4F7         1

