### 
### Created by X-TOOL on Mon Sep 10 21:13:29 2018
### 

@<TRIPOS>MOLECULE
4yqm_ligand
   30    30     1     0     0
SMALL
GAST_HUCK


@<TRIPOS>ATOM
      1 CL2         8.3140  -22.2230   24.9510 Cl        1 4G9        -0.0829
      2 C10         8.4000  -21.0390   26.2110 C.ar      1 4G9         0.0503
      3 C3          7.3100  -20.2200   26.5350 C.ar      1 4G9         0.1089
      4 S           5.7470  -20.3630   25.6990 S.o2      1 4G9         0.0672
      5 O1          5.9520  -21.0000   24.4360 O.2       1 4G9        -0.1503
      6 O2          5.0760  -19.1030   25.7550 O.2       1 4G9        -0.1503
      7 N1          4.9050  -21.3970   26.6250 N.am      1 4G9        -0.2404
      8 C2          5.3780  -22.7830   26.6800 C.3       1 4G9         0.0179
      9 C1          4.4130  -20.8940   27.9140 C.3       1 4G9         0.0179
     10 C9          9.5920  -20.9210   26.9110 C.ar      1 4G9        -0.0597
     11 C8          9.7180  -19.9910   27.9260 C.ar      1 4G9        -0.0404
     12 C5          8.6530  -19.1650   28.2520 C.ar      1 4G9         0.0686
     13 C4          7.4530  -19.2930   27.5590 C.ar      1 4G9        -0.0140
     14 N2          8.8370  -18.1580   29.2290 N.am      1 4G9        -0.2338
     15 C6          7.9350  -17.7000   30.1240 C.2       1 4G9         0.2007
     16 O3          6.9080  -18.2990   30.4330 O.2       1 4G9        -0.3851
     17 C7          8.2490  -16.3430   30.7160 C.3       1 4G9         0.0317
     18 H1          4.7201  -23.3690   27.3386 H         1 4G9         0.0442
     19 H2          6.4048  -22.8047   27.0740 H         1 4G9         0.0442
     20 H3          5.3640  -23.2156   25.6688 H         1 4G9         0.0442
     21 H4          3.8638  -21.6929   28.4338 H         1 4G9         0.0442
     22 H5          3.7418  -20.0396   27.7422 H         1 4G9         0.0442
     23 H6          5.2647  -20.5728   28.5315 H         1 4G9         0.0442
     24 H7         10.4296  -21.5619   26.6605 H         1 4G9         0.0584
     25 H8         10.6525  -19.9072   28.4689 H         1 4G9         0.0503
     26 H9          6.6152  -18.6579   27.8232 H         1 4G9         0.0523
     27 H10         9.7426  -17.7351   29.2606 H         1 4G9         0.2259
     28 H11         7.4592  -16.0620   31.4282 H         1 4G9         0.0472
     29 H12         8.3002  -15.5948   29.9113 H         1 4G9         0.0472
     30 H13         9.2158  -16.3859   31.2389 H         1 4G9         0.0472
@<TRIPOS>BOND
     1    1    2 1  
     2    2    3 ar 
     3    2   10 ar 
     4    3    4 1  
     5    3   13 ar 
     6    4    5 2  
     7    4    6 2  
     8    4    7 am 
     9    7    8 1  
    10    7    9 1  
    11   10   11 ar 
    12   11   12 ar 
    13   12   13 ar 
    14   12   14 1  
    15   14   15 am 
    16   15   16 2  
    17   15   17 1  
    18    8   18 1  
    19    8   19 1  
    20    8   20 1  
    21    9   21 1  
    22    9   22 1  
    23    9   23 1  
    24   10   24 1  
    25   11   25 1  
    26   13   26 1  
    27   14   27 1  
    28   17   28 1  
    29   17   29 1  
    30   17   30 1  
@<TRIPOS>SUBSTRUCTURE
     1 4G9         1

