### 
### Created by X-TOOL on Mon Sep 10 21:13:29 2018
### 

@<TRIPOS>MOLECULE
4yqu_ligand
   44    45     1     0     0
SMALL
GAST_HUCK


@<TRIPOS>ATOM
      1 O3         15.6480   -8.5690    0.7580 O.2       1 4GB        -0.1517
      2 S2         16.2170   -9.6520    1.5040 S.o2      1 4GB         0.0623
      3 O2         15.5780  -10.1010    2.6970 O.2       1 4GB        -0.1517
      4 N2         16.2890  -10.9280    0.4880 N.am      1 4GB        -0.2355
      5 C13        15.7950  -10.7100   -0.8860 C.3       1 4GB         0.0295
      6 C12        16.1670  -11.7310   -1.9460 C.3       1 4GB        -0.0359
      7 C11        15.5840  -13.1270   -1.7370 C.3       1 4GB        -0.0515
      8 C10        16.2210  -13.9960   -0.6550 C.3       1 4GB        -0.0515
      9 C9         16.1560  -13.4740    0.7750 C.3       1 4GB        -0.0359
     10 C8         16.9000  -12.1690    1.0060 C.3       1 4GB         0.0295
     11 C7         17.8840   -9.2320    1.8940 C.ar      1 4GB         0.0837
     12 C6         18.6090   -8.4560    1.0040 C.ar      1 4GB        -0.0228
     13 C14        18.4910   -9.7800    3.0210 C.ar      1 4GB        -0.0597
     14 C15        19.8510   -9.5970    3.2250 C.ar      1 4GB        -0.0443
     15 C16        20.5960   -8.8360    2.3220 C.ar      1 4GB         0.1123
     16 O4         21.9460   -8.6090    2.4040 O.3       1 4GB        -0.3275
     17 C17        22.6290   -9.0250    3.5910 C.3       1 4GB         0.0562
     18 C5         19.9640   -8.2320    1.2130 C.ar      1 4GB         0.0982
     19 N1         20.7200   -7.3240    0.4370 N.am      1 4GB        -0.2368
     20 C4         20.5060   -6.9340   -0.8320 C.2       1 4GB         0.1978
     21 O1         19.6730   -7.4470   -1.5820 O.2       1 4GB        -0.3866
     22 C3         21.3930   -5.7960   -1.2900 C.3       1 4GB         0.0311
     23 H1         16.1792   -9.7353   -1.2212 H         1 4GB         0.0478
     24 H2         14.6967  -10.6742   -0.8372 H         1 4GB         0.0478
     25 H3         17.2633  -11.8192   -1.9637 H         1 4GB         0.0281
     26 H4         15.8135  -11.3566   -2.9180 H         1 4GB         0.0281
     27 H5         15.6724  -13.6684   -2.6904 H         1 4GB         0.0266
     28 H6         14.5210  -13.0065   -1.4810 H         1 4GB         0.0266
     29 H7         17.2823  -14.1245   -0.9139 H         1 4GB         0.0266
     30 H8         15.7177  -14.9739   -0.6750 H         1 4GB         0.0266
     31 H9         16.5878  -14.2373    1.4390 H         1 4GB         0.0281
     32 H10        15.0989  -13.3170    1.0354 H         1 4GB         0.0281
     33 H11        17.0196  -12.0473    2.0927 H         1 4GB         0.0478
     34 H12        17.8900  -12.2681    0.5369 H         1 4GB         0.0478
     35 H13        18.1169   -8.0219    0.1412 H         1 4GB         0.0486
     36 H14        17.9042  -10.3465    3.7350 H         1 4GB         0.0479
     37 H15        20.3352  -10.0448    4.0853 H         1 4GB         0.0495
     38 H16        23.6970   -8.7759    3.5058 H         1 4GB         0.0572
     39 H17        22.5150  -10.1117    3.7179 H         1 4GB         0.0572
     40 H18        22.2000   -8.5071    4.4615 H         1 4GB         0.0572
     41 H19        21.5152   -6.9203    0.8893 H         1 4GB         0.2222
     42 H20        21.1534   -5.5413   -2.3330 H         1 4GB         0.0471
     43 H21        22.4473   -6.1019   -1.2202 H         1 4GB         0.0471
     44 H22        21.2228   -4.9179   -0.6498 H         1 4GB         0.0471
@<TRIPOS>BOND
     1    1    2 2  
     2    2    3 2  
     3    2    4 am 
     4    2   11 1  
     5    4    5 1  
     6    4   10 1  
     7    5    6 1  
     8    6    7 1  
     9    7    8 1  
    10    8    9 1  
    11    9   10 1  
    12   11   12 ar 
    13   11   13 ar 
    14   12   18 ar 
    15   13   14 ar 
    16   14   15 ar 
    17   15   16 1  
    18   15   18 ar 
    19   16   17 1  
    20   18   19 1  
    21   19   20 am 
    22   20   21 2  
    23   20   22 1  
    24    5   23 1  
    25    5   24 1  
    26    6   25 1  
    27    6   26 1  
    28    7   27 1  
    29    7   28 1  
    30    8   29 1  
    31    8   30 1  
    32    9   31 1  
    33    9   32 1  
    34   10   33 1  
    35   10   34 1  
    36   12   35 1  
    37   13   36 1  
    38   14   37 1  
    39   17   38 1  
    40   17   39 1  
    41   17   40 1  
    42   19   41 1  
    43   22   42 1  
    44   22   43 1  
    45   22   44 1  
@<TRIPOS>SUBSTRUCTURE
     1 4GB         1

