### 
### Created by X-TOOL on Mon Sep 10 21:13:28 2018
### 

@<TRIPOS>MOLECULE
4yqv_ligand
   32    33     1     0     0
SMALL
GAST_HUCK


@<TRIPOS>ATOM
      1 O           6.1660  -18.2180   29.9660 O.2       1 4GG        -0.3971
      2 C12         7.3520  -17.9240   29.9100 C.2       1 4GG         0.1763
      3 C13         7.7300  -16.5170   30.4910 C.3       1 4GG         0.0259
      4 N1          8.2790  -18.7860   29.4300 N.am      1 4GG        -0.2708
      5 C1          9.7090  -18.5340   29.5450 C.3       1 4GG         0.0239
      6 C2          7.8900  -19.9780   28.6890 C.3       1 4GG         0.0537
      7 C3          8.0460  -19.8400   27.1940 C.2       1 4GG        -0.0077
      8 C11         9.2160  -19.7400   26.4280 C.2       1 4GG         0.0632
      9 N3          8.8510  -19.6770   25.1280 N.pl3     1 4GG        -0.1714
     10 N2          7.4930  -19.7120   25.0050 N.2       1 4GG        -0.2095
     11 C4          6.9940  -19.8150   26.2270 C.2       1 4GG         0.0012
     12 C5          9.6780  -19.6690   23.9570 C.ar      1 4GG         0.1091
     13 C10        10.9630  -19.1310   24.0170 C.ar      1 4GG        -0.0255
     14 C9         11.8190  -19.2720   22.9340 C.ar      1 4GG        -0.0657
     15 C8         11.4000  -19.9280   21.7910 C.ar      1 4GG        -0.0686
     16 C7         10.1130  -20.4340   21.7160 C.ar      1 4GG        -0.0657
     17 C6          9.2460  -20.3100   22.7940 C.ar      1 4GG        -0.0255
     18 H1          8.8137  -16.3577   30.3900 H         1 4GG         0.0467
     19 H2          7.4503  -16.4720   31.5539 H         1 4GG         0.0467
     20 H3          7.1912  -15.7345   29.9366 H         1 4GG         0.0467
     21 H4         10.2657  -19.3650   29.0873 H         1 4GG         0.0487
     22 H5          9.9824  -18.4506   30.6072 H         1 4GG         0.0487
     23 H6          9.9589  -17.5962   29.0273 H         1 4GG         0.0487
     24 H7          6.8345  -20.1952   28.9095 H         1 4GG         0.0613
     25 H8          8.5155  -20.8171   29.0275 H         1 4GG         0.0613
     26 H9         10.2351  -19.7172   26.8112 H         1 4GG         0.0884
     27 H10         5.9322  -19.8725   26.4620 H         1 4GG         0.0638
     28 H11        11.2919  -18.6049   24.9059 H         1 4GG         0.0587
     29 H12        12.8226  -18.8653   22.9843 H         1 4GG         0.0600
     30 H13        12.0787  -20.0461   20.9540 H         1 4GG         0.0558
     31 H14         9.7805  -20.9295   20.8110 H         1 4GG         0.0600
     32 H15         8.2398  -20.7085   22.7329 H         1 4GG         0.0587
@<TRIPOS>BOND
     1    1    2 2  
     2    2    3 1  
     3    2    4 am 
     4    4    5 1  
     5    4    6 1  
     6    6    7 1  
     7    7    8 2  
     8    7   11 1  
     9    8    9 1  
    10    9   10 1  
    11    9   12 1  
    12   10   11 2  
    13   12   13 ar 
    14   12   17 ar 
    15   13   14 ar 
    16   14   15 ar 
    17   15   16 ar 
    18   16   17 ar 
    19    3   18 1  
    20    3   19 1  
    21    3   20 1  
    22    5   21 1  
    23    5   22 1  
    24    5   23 1  
    25    6   24 1  
    26    6   25 1  
    27    8   26 1  
    28   11   27 1  
    29   13   28 1  
    30   14   29 1  
    31   15   30 1  
    32   16   31 1  
    33   17   32 1  
@<TRIPOS>SUBSTRUCTURE
     1 4GG         1

