### 
### Created by X-TOOL on Mon Sep 10 21:13:23 2018
### 

@<TRIPOS>MOLECULE
4yrc_ligand
   20    21     1     0     0
SMALL
GAST_HUCK


@<TRIPOS>ATOM
      1 CAE        65.7560    8.9690   20.7960 C.ar      1 0P6        -0.0117
      2 CAG        64.4130    8.7790   20.9210 C.ar      1 0P6        -0.0438
      3 CAK        63.6600    8.2340   19.8570 C.ar      1 0P6        -0.0106
      4 CAF        62.2660    8.0120   19.8970 C.ar      1 0P6        -0.0658
      5 CAC        61.6190    7.4510   18.8380 C.ar      1 0P6        -0.0734
      6 CAD        62.3040    7.0910   17.6900 C.ar      1 0P6        -0.0338
      7 CAJ        63.6530    7.2980   17.5950 C.ar      1 0P6         0.1069
      8 OAB        64.3130    6.9380   16.4660 O.3       1 0P6        -0.3297
      9 CAL        64.3630    7.8820   18.6800 C.ar      1 0P6         0.0630
     10 NAH        65.7160    8.0810   18.5400 N.ar      1 0P6        -0.2907
     11 CAI        66.3740    8.6190   19.5700 C.ar      1 0P6         0.1058
     12 NAA        67.6900    8.8530   19.3780 N.pl3     1 0P6        -0.3208
     13 H1         66.3376    9.3779   21.6143 H         1 0P6         0.0643
     14 H2         63.9169    9.0487   21.8463 H         1 0P6         0.0733
     15 H3         61.7043    8.2914   20.7810 H         1 0P6         0.0515
     16 H4         60.5495    7.2835   18.8949 H         1 0P6         0.0568
     17 H5         61.7682    6.6424   16.8613 H         1 0P6         0.0520
     18 H6         65.2350    7.1469   16.5593 H         1 0P6         0.2501
     19 H7         68.1337    8.5964   18.4846 H         1 0P6         0.1783
     20 H8         68.2501    9.2881   20.1249 H         1 0P6         0.1783
@<TRIPOS>BOND
     1    1    2 ar 
     2    1   11 ar 
     3    2    3 ar 
     4    3    4 ar 
     5    3    9 ar 
     6    4    5 ar 
     7    5    6 ar 
     8    6    7 ar 
     9    7    8 1  
    10    7    9 ar 
    11    9   10 ar 
    12   10   11 ar 
    13   11   12 1  
    14    1   13 1  
    15    2   14 1  
    16    4   15 1  
    17    5   16 1  
    18    6   17 1  
    19    8   18 1  
    20   12   19 1  
    21   12   20 1  
@<TRIPOS>SUBSTRUCTURE
     1 0P6         1

