### 
### Created by X-TOOL on Mon Sep 10 21:13:25 2018
### 

@<TRIPOS>MOLECULE
4yrd_ligand
   22    22     1     0     0
SMALL
GAST_HUCK


@<TRIPOS>ATOM
      1 CAB        21.5210    6.6420  -33.5670 C.3       1 3IT        -0.0033
      2 CAI        22.0940    7.1440  -34.9320 C.2       1 3IT        -0.0075
      3 CAA        23.4160    7.8560  -34.7700 C.3       1 3IT        -0.0033
      4 CAK        21.5090    6.8800  -36.2270 C.2       1 3IT         0.0540
      5 CAG        22.1470    7.3740  -37.3860 C.2       1 3IT        -0.0562
      6 CAE        21.7630    7.2470  -38.7200 C.2       1 3IT        -0.0703
      7 CAF        20.6540    6.6020  -39.2880 C.2       1 3IT        -0.0707
      8 CAH        19.5840    5.9500  -38.6770 C.2       1 3IT        -0.0195
      9 CAL        19.4490    5.7060  -37.3260 C.2       1 3IT         0.1772
     10 OAC        18.4300    5.1060  -36.9750 O.2       1 3IT        -0.3737
     11 CAJ        20.3170    6.1160  -36.2940 C.2       1 3IT         0.1905
     12 OAD        19.8940    5.6730  -35.1270 O.2       1 3IT        -0.3704
     13 H1         22.1673    6.9902  -32.7478 H         1 3IT         0.0542
     14 H2         21.4874    5.5425  -33.5655 H         1 3IT         0.0542
     15 H3         20.5052    7.0401  -33.4271 H         1 3IT         0.0542
     16 H4         23.7763    8.1887  -35.7546 H         1 3IT         0.0542
     17 H5         24.1502    7.1691  -34.3238 H         1 3IT         0.0542
     18 H6         23.2844    8.7289  -34.1137 H         1 3IT         0.0542
     19 H7         23.0665    7.9315  -37.2137 H         1 3IT         0.0709
     20 H8         22.4305    7.7248  -39.4357 H         1 3IT         0.0435
     21 H9         20.6245    6.6123  -40.3766 H         1 3IT         0.0679
     22 H10        18.7815    5.6015  -39.3254 H         1 3IT         0.0461
@<TRIPOS>BOND
     1    1    2 1  
     2    2    3 1  
     3    2    4 2  
     4    4    5 1  
     5    4   11 1  
     6    5    6 2  
     7    6    7 1  
     8    7    8 2  
     9    8    9 1  
    10    9   10 2  
    11    9   11 1  
    12   11   12 2  
    13    1   13 1  
    14    1   14 1  
    15    1   15 1  
    16    3   16 1  
    17    3   17 1  
    18    3   18 1  
    19    5   19 1  
    20    6   20 1  
    21    7   21 1  
    22    8   22 1  
@<TRIPOS>SUBSTRUCTURE
     1 3IT         1

