### 
### Created by X-TOOL on Mon Sep 10 21:13:24 2018
### 

@<TRIPOS>MOLECULE
4yrg_ligand
   15    15     1     0     0
SMALL
GAST_HUCK


@<TRIPOS>ATOM
      1 C1         65.5660    8.5220   18.8420 C.ar      1 4HU         0.0535
      2 C2         66.2400    8.8680   20.0040 C.ar      1 4HU        -0.0305
      3 C3         65.5270    8.9350   21.1890 C.ar      1 4HU        -0.0486
      4 C4         64.1670    8.6730   21.1960 C.ar      1 4HU        -0.0294
      5 C5         63.6000    8.3310   19.9840 C.ar      1 4HU         0.0818
      6 BR         61.7410    7.9110   19.9330 Br        1 4HU        -0.0215
      7 N          64.2440    8.2500   18.8270 N.ar      1 4HU        -0.2842
      8 C          66.2550    8.4050   17.5070 C.3       1 4HU         0.0933
      9 O          67.5420    7.8180   17.6140 O.3       1 4HU        -0.3799
     10 H1         67.3026    9.0814   19.9847 H         1 4HU         0.0649
     11 H2         66.0336    9.1927   22.1120 H         1 4HU         0.0717
     12 H3         63.5788    8.7332   22.1046 H         1 4HU         0.0656
     13 H4         66.3600    9.4107   17.0740 H         1 4HU         0.0751
     14 H5         65.6367    7.7827   16.8433 H         1 4HU         0.0751
     15 H6         67.4614    6.9456   17.9812 H         1 4HU         0.2130
@<TRIPOS>BOND
     1    1    2 ar 
     2    1    7 ar 
     3    1    8 1  
     4    2    3 ar 
     5    3    4 ar 
     6    4    5 ar 
     7    5    6 1  
     8    5    7 ar 
     9    8    9 1  
    10    2   10 1  
    11    3   11 1  
    12    4   12 1  
    13    8   13 1  
    14    8   14 1  
    15    9   15 1  
@<TRIPOS>SUBSTRUCTURE
     1 4HU         1

