### 
### Created by X-TOOL on Mon Sep 10 21:13:25 2018
### 

@<TRIPOS>MOLECULE
4yrr_ligand
   24    25     1     0     0
SMALL
GAST_HUCK


@<TRIPOS>ATOM
      1 O           8.3960   -5.8270   31.4690 O.2       1 691        -0.3844
      2 C1          8.1190   -5.2470   32.5140 C.2       1 691         0.2022
      3 C           6.8220   -4.5150   32.6980 C.3       1 691         0.0320
      4 N           8.9510   -5.2200   33.5850 N.am      1 691        -0.2276
      5 C2         10.1360   -5.9670   33.7910 C.ar      1 691         0.0969
      6 C10        10.7510   -6.6590   32.7730 C.ar      1 691        -0.0191
      7 C9         11.9560   -7.3520   33.0110 C.ar      1 691        -0.0096
      8 C4         12.4920   -7.3250   34.3180 C.ar      1 691         0.0370
      9 N1         11.8700   -6.6540   35.3380 N.ar      1 691        -0.3002
     10 C3         10.7580   -6.0210   35.0360 C.ar      1 691         0.0385
     11 C8         12.6840   -8.0080   31.9930 C.ar      1 691        -0.0545
     12 C7         13.8870   -8.5860   32.2630 C.ar      1 691        -0.0617
     13 C6         14.4120   -8.5590   33.5460 C.ar      1 691        -0.0610
     14 C5         13.7350   -7.9500   34.5630 C.ar      1 691        -0.0455
     15 H1          6.7895   -4.0742   33.7053 H         1 691         0.0472
     16 H2          5.9842   -5.2176   32.5780 H         1 691         0.0472
     17 H3          6.7416   -3.7166   31.9457 H         1 691         0.0472
     18 H4          8.6953   -4.5938   34.3216 H         1 691         0.2279
     19 H5         10.3074   -6.6715   31.7840 H         1 691         0.0581
     20 H6         10.2731   -5.4833   35.8427 H         1 691         0.0819
     21 H7         12.2810   -8.0515   30.9876 H         1 691         0.0608
     22 H8         14.4396   -9.0720   31.4671 H         1 691         0.0626
     23 H9         15.3699   -9.0263   33.7435 H         1 691         0.0607
     24 H10        14.1531   -7.9460   35.5631 H         1 691         0.0633
@<TRIPOS>BOND
     1    1    2 2  
     2    2    3 1  
     3    2    4 am 
     4    4    5 1  
     5    5    6 ar 
     6    5   10 ar 
     7    6    7 ar 
     8    7    8 ar 
     9    7   11 ar 
    10    8    9 ar 
    11    8   14 ar 
    12    9   10 ar 
    13   11   12 ar 
    14   12   13 ar 
    15   13   14 ar 
    16    3   15 1  
    17    3   16 1  
    18    3   17 1  
    19    4   18 1  
    20    6   19 1  
    21   10   20 1  
    22   11   21 1  
    23   12   22 1  
    24   13   23 1  
    25   14   24 1  
@<TRIPOS>SUBSTRUCTURE
     1 691         1

