### 
### Created by X-TOOL on Mon Sep 10 21:13:23 2018
### 

@<TRIPOS>MOLECULE
4yrs_ligand
   27    28     1     0     0
SMALL
GAST_HUCK


@<TRIPOS>ATOM
      1 N1         63.2630    7.6840   20.1340 N.ar      1 4JS        -0.3002
      2 C11        64.8910    6.8310   18.0820 C.ar      1 4JS        -0.0191
      3 C5         64.5770    7.9450   20.2040 C.ar      1 4JS         0.0370
      4 C4         62.7300    7.0220   19.0940 C.ar      1 4JS         0.0385
      5 C3         63.5230    6.5640   18.0300 C.ar      1 4JS         0.0969
      6 C6         65.0840    8.6440   21.2970 C.ar      1 4JS        -0.0455
      7 C1         61.4300    4.8400   15.4290 C.3       1 4JS         0.0407
      8 C2         61.7410    5.5630   16.7370 C.2       1 4JS         0.2050
      9 C9         66.7860    7.8020   19.2400 C.ar      1 4JS        -0.0545
     10 C8         67.3060    8.5010   20.3300 C.ar      1 4JS        -0.0617
     11 C7         66.4560    8.9220   21.3590 C.ar      1 4JS        -0.0610
     12 O          60.8370    5.8320   17.5140 O.2       1 4JS        -0.3841
     13 C          59.9750    4.3880   15.2790 C.3       1 4JS        -0.0477
     14 N          63.0360    5.8750   16.9510 N.am      1 4JS        -0.2274
     15 C10        65.4190    7.5250   19.1720 C.ar      1 4JS        -0.0096
     16 H1         65.5411    6.5011   17.2797 H         1 4JS         0.0581
     17 H2         61.6621    6.8370   19.0758 H         1 4JS         0.0819
     18 H3         64.4233    8.9699   22.0922 H         1 4JS         0.0633
     19 H4         62.0734    3.9499   15.3680 H         1 4JS         0.0505
     20 H5         61.6651    5.5202   14.5971 H         1 4JS         0.0505
     21 H6         67.4446    7.4733   18.4443 H         1 4JS         0.0608
     22 H7         68.3670    8.7176   20.3797 H         1 4JS         0.0626
     23 H8         66.8600    9.4645   22.2061 H         1 4JS         0.0607
     24 H9         59.8468    3.8799   14.3119 H         1 4JS         0.0254
     25 H10        59.3122    5.2648   15.3232 H         1 4JS         0.0254
     26 H11        59.7206    3.6945   16.0941 H         1 4JS         0.0254
     27 H12        63.6974    5.5776   16.2625 H         1 4JS         0.2279
@<TRIPOS>BOND
     1    3    1 ar 
     2    1    4 ar 
     3    2    5 ar 
     4   15    2 ar 
     5    3    6 ar 
     6   15    3 ar 
     7    5    4 ar 
     8    5   14 1  
     9    6   11 ar 
    10    8    7 1  
    11    7   13 1  
    12    8   12 2  
    13   14    8 am 
    14    9   10 ar 
    15    9   15 ar 
    16   10   11 ar 
    17    2   16 1  
    18    4   17 1  
    19    6   18 1  
    20    7   19 1  
    21    7   20 1  
    22    9   21 1  
    23   10   22 1  
    24   11   23 1  
    25   13   24 1  
    26   13   25 1  
    27   13   26 1  
    28   14   27 1  
@<TRIPOS>SUBSTRUCTURE
     1 4JS         1

