### 
### Created by X-TOOL on Mon Sep 10 21:13:23 2018
### 

@<TRIPOS>MOLECULE
4yrt_ligand
   29    30     1     0     0
SMALL
GAST_HUCK


@<TRIPOS>ATOM
      1 O1         62.0530    4.1790   15.3640 O.2       1 781        -0.3844
      2 C7         61.1850    5.0550   15.3240 C.2       1 781         0.2042
      3 C8         59.8640    4.7930   14.6050 C.3       1 781         0.0405
      4 C9         59.5070    3.3090   14.5860 C.3       1 781        -0.0477
      5 N          61.0910    5.9910   16.2630 N.am      1 781        -0.2335
      6 C6         62.1520    6.5090   16.9480 C.ar      1 781         0.0645
      7 C5         61.8800    6.9670   18.2360 C.ar      1 781        -0.0435
      8 C4         62.8780    7.5230   19.0260 C.ar      1 781        -0.0426
      9 C3         62.5510    7.9640   20.3100 C.ar      1 781        -0.0767
     10 C2         63.5330    8.5300   21.1240 C.ar      1 781        -0.0799
     11 C1         64.8440    8.6520   20.6420 C.ar      1 781        -0.0393
     12 C          65.1590    8.2150   19.3430 C.ar      1 781         0.0947
     13 O          66.4340    8.3370   18.8870 O.3       1 781        -0.3294
     14 C12        64.1780    7.6480   18.5290 C.ar      1 781         0.0075
     15 C11        64.4680    7.1940   17.2360 C.ar      1 781        -0.0583
     16 C10        63.4570    6.6240   16.4430 C.ar      1 781        -0.0363
     17 H1         59.9468    5.1514   13.5684 H         1 781         0.0505
     18 H2         59.0637    5.3440   15.1207 H         1 781         0.0505
     19 H3         58.5513    3.1685   14.0598 H         1 781         0.0254
     20 H4         59.4146    2.9408   15.6184 H         1 781         0.0254
     21 H5         60.2977    2.7483   14.0661 H         1 781         0.0254
     22 H6         60.1800    6.3399   16.4828 H         1 781         0.2268
     23 H7         60.8724    6.8879   18.6279 H         1 781         0.0414
     24 H8         61.5347    7.8667   20.6743 H         1 781         0.0449
     25 H9         63.2841    8.8729   22.1218 H         1 781         0.0568
     26 H10        65.6147    9.0832   21.2706 H         1 781         0.0458
     27 H11        66.6853    9.2531   18.8939 H         1 781         0.2515
     28 H12        65.4754    7.2825   16.8456 H         1 781         0.0619
     29 H13        63.6846    6.2736   15.4428 H         1 781         0.0539
@<TRIPOS>BOND
     1    1    2 2  
     2    2    3 1  
     3    2    5 am 
     4    3    4 1  
     5    5    6 1  
     6    6    7 ar 
     7    6   16 ar 
     8    7    8 ar 
     9    8    9 ar 
    10    8   14 ar 
    11    9   10 ar 
    12   10   11 ar 
    13   11   12 ar 
    14   12   13 1  
    15   12   14 ar 
    16   14   15 ar 
    17   15   16 ar 
    18    3   17 1  
    19    3   18 1  
    20    4   19 1  
    21    4   20 1  
    22    4   21 1  
    23    5   22 1  
    24    7   23 1  
    25    9   24 1  
    26   10   25 1  
    27   11   26 1  
    28   13   27 1  
    29   15   28 1  
    30   16   29 1  
@<TRIPOS>SUBSTRUCTURE
     1 781         1

