### 
### Created by X-TOOL on Mon Sep 10 21:13:25 2018
### 

@<TRIPOS>MOLECULE
4ys7_ligand
   47    51     1     0     0
SMALL
GAST_HUCK


@<TRIPOS>ATOM
      1 CAC        23.1710  -26.6620   41.0550 C.3       1 4GK         0.0470
      2 NAZ        22.5230  -25.3200   41.1300 N.pl3     1 4GK        -0.2345
      3 CAW        22.3800  -24.5320   42.1940 C.ar      1 4GK         0.0871
      4 CAH        22.7450  -24.6040   43.5590 C.ar      1 4GK        -0.0342
      5 CAG        22.4120  -23.5350   44.3900 C.ar      1 4GK        -0.0502
      6 CAU        21.7310  -22.4210   43.8740 C.ar      1 4GK         0.0337
      7 NAM        21.4000  -21.3780   44.6700 N.ar      1 4GK        -0.3037
      8 CAE        20.7270  -20.2960   44.1940 C.ar      1 4GK         0.0045
      9 CAD        20.3650  -20.1980   42.8410 C.ar      1 4GK        -0.0375
     10 CAF        20.6740  -21.2570   41.9770 C.ar      1 4GK        -0.0411
     11 CAV        21.3570  -22.3660   42.5210 C.ar      1 4GK         0.0059
     12 CAX        21.7080  -23.4310   41.7260 C.ar      1 4GK         0.0382
     13 NAO        21.4530  -23.5240   40.4220 N.2       1 4GK        -0.3126
     14 CAT        21.9790  -24.7160   40.0740 C.2       1 4GK         0.1282
     15 CAK        21.9490  -25.3090   38.6880 C.3       1 4GK         0.0518
     16 CAJ        20.5770  -25.1010   38.1020 C.3       1 4GK         0.0693
     17 CAS        20.6180  -25.8160   36.8010 C.2       1 4GK         0.2062
     18 NAN        20.0230  -26.9950   36.5820 N.pl3     1 4GK        -0.1974
     19 NAP        21.2530  -25.4020   35.6900 N.2       1 4GK        -0.1501
     20 NBA        20.9750  -26.4140   34.7880 N.ar      1 4GK        -0.1896
     21 CAQ        21.3960  -26.4650   33.5040 C.ar      1 4GK         0.1157
     22 CAA        22.2480  -25.3480   32.9160 C.3       1 4GK         0.0242
     23 CAY        20.2320  -27.3610   35.3130 C.ar      1 4GK         0.2280
     24 CAR        19.8380  -28.4490   34.5620 C.ar      1 4GK         0.1332
     25 CAB        18.9750  -29.4750   35.2540 C.3       1 4GK         0.0153
     26 NAL        20.2430  -28.5230   33.2540 N.ar      1 4GK        -0.2176
     27 CAI        21.0100  -27.5570   32.7170 C.ar      1 4GK         0.0968
     28 H          23.5424  -26.9460   42.0507 H         1 4GK         0.0570
     29 H          24.0121  -26.6240   40.3471 H         1 4GK         0.0570
     30 H          22.4363  -27.4053   40.7120 H         1 4GK         0.0570
     31 H          23.2703  -25.4684   43.9489 H         1 4GK         0.0616
     32 H          22.6803  -23.5642   45.4399 H         1 4GK         0.0548
     33 H          20.4648  -19.4929   44.8732 H         1 4GK         0.0828
     34 H          19.8543  -19.3166   42.4704 H         1 4GK         0.0666
     35 H          20.3986  -21.2257   40.9290 H         1 4GK         0.0738
     36 H          22.1691  -26.3854   38.7413 H         1 4GK         0.0568
     37 H          22.7001  -24.8119   38.0566 H         1 4GK         0.0568
     38 H          20.3765  -24.0300   37.9512 H         1 4GK         0.0629
     39 H          19.8048  -25.5299   38.7575 H         1 4GK         0.0629
     40 H          22.4824  -25.5794   31.8665 H         1 4GK         0.0645
     41 H          23.1825  -25.2590   33.4894 H         1 4GK         0.0645
     42 H          21.6945  -24.3988   32.9673 H         1 4GK         0.0645
     43 H          18.7325  -30.2849   34.5502 H         1 4GK         0.0566
     44 H          18.0455  -28.9992   35.5997 H         1 4GK         0.0566
     45 H          19.5178  -29.8891   36.1165 H         1 4GK         0.0566
     46 H          21.3269  -27.6235   31.6825 H         1 4GK         0.1094
     47 H1         19.4897  -27.5338   37.2792 H         1 4GK         0.2606
@<TRIPOS>BOND
     1    1    2 1  
     2    2    3 1  
     3    2   14 1  
     4    3    4 ar 
     5    3   12 ar 
     6    4    5 ar 
     7    5    6 ar 
     8    6    7 ar 
     9    6   11 ar 
    10    7    8 ar 
    11    8    9 ar 
    12    9   10 ar 
    13   10   11 ar 
    14   11   12 ar 
    15   12   13 1  
    16   13   14 2  
    17   14   15 1  
    18   15   16 1  
    19   16   17 1  
    20   17   18 1  
    21   17   19 2  
    22   18   23 1  
    23   19   20 1  
    24   20   21 ar 
    25   20   23 ar 
    26   21   22 1  
    27   21   27 ar 
    28   23   24 ar 
    29   24   25 1  
    30   24   26 ar 
    31   26   27 ar 
    32    1   28 1  
    33    1   29 1  
    34    1   30 1  
    35    4   31 1  
    36    5   32 1  
    37    8   33 1  
    38    9   34 1  
    39   10   35 1  
    40   15   36 1  
    41   15   37 1  
    42   16   38 1  
    43   16   39 1  
    44   22   40 1  
    45   22   41 1  
    46   22   42 1  
    47   25   43 1  
    48   25   44 1  
    49   25   45 1  
    50   27   46 1  
    51   18   47 1  
@<TRIPOS>SUBSTRUCTURE
     1 4GK         1

