### 
### Created by X-TOOL on Mon Sep 10 21:13:26 2018
### 

@<TRIPOS>MOLECULE
4ysi_ligand
   89    90     1     0     0
SMALL
GAST_HUCK


@<TRIPOS>ATOM
      1 N          31.6500  -24.9140   -7.3820 N.4       1 SER         0.2396
      2 CA         31.3940  -23.4880   -7.2260 C.3       1 SER         0.0886
      3 C          31.3150  -22.8180   -8.5950 C.2       1 SER         0.2315
      4 O          31.9840  -23.2420   -9.5350 O.2       1 SER        -0.3904
      5 CB         32.5090  -22.8390   -6.4000 C.3       1 SER         0.1041
      6 OG         32.5590  -21.4350   -6.6140 O.3       1 SER        -0.3870
      7 N          30.5030  -21.7640   -8.7260 N.am      1 PRO        -0.2471
      8 CA         30.4680  -21.0390  -10.0020 C.3       1 PRO         0.1339
      9 C          31.6990  -20.1840  -10.2750 C.2       1 PRO         0.2039
     10 O          31.7810  -19.5860  -11.3490 O.2       1 PRO        -0.3944
     11 CB         29.1910  -20.1950   -9.8940 C.3       1 PRO        -0.0104
     12 CG         28.9880  -20.0080   -8.4500 C.3       1 PRO        -0.0281
     13 CD         29.4620  -21.2830   -7.8010 C.3       1 PRO         0.0371
     14 N          32.6650  -20.1070   -9.3670 N.am      1 GLY        -0.2664
     15 CA         33.8780  -19.3560   -9.6520 C.3       1 GLY         0.1201
     16 C          33.6700  -17.8590   -9.7580 C.2       1 GLY         0.2007
     17 O          34.2290  -17.2150  -10.6590 O.2       1 GLY        -0.3947
     18 N          32.8870  -17.2840   -8.8510 N.am      1 GLU        -0.2639
     19 CA         32.6560  -15.8490   -8.8770 C.3       1 GLU         0.1324
     20 C          33.9510  -15.1020   -8.6010 C.2       1 GLU         0.2038
     21 O          34.6840  -15.4370   -7.6660 O.2       1 GLU        -0.3944
     22 CB         31.6030  -15.4440   -7.8500 C.3       1 GLU        -0.0008
     23 CG         31.2570  -13.9710   -7.9910 C.3       1 GLU         0.0044
     24 CD         30.1680  -13.4890   -7.0600 C.2       1 GLU         0.0350
     25 OE1        29.4820  -14.3240   -6.4270 O.co2     1 GLU        -0.5690
     26 OE2        30.0070  -12.2530   -6.9460 O.co2     1 GLU        -0.5690
     27 N          34.2220  -14.0800   -9.4040 N.am      1 GLY        -0.2664
     28 CA         35.3930  -13.2650   -9.2220 C.3       1 GLY         0.1203
     29 C          35.7950  -12.5990  -10.5170 C.2       1 GLY         0.2032
     30 O          35.0310  -12.5610  -11.4830 O.2       1 GLY        -0.3945
     31 N          37.0210  -12.0810  -10.5530 N.am      1 PRO        -0.2501
     32 CA         37.5380  -11.4590  -11.7740 C.3       1 PRO         0.1338
     33 C          37.9020  -12.5080  -12.8100 C.2       1 PRO         0.2042
     34 O          38.0500  -13.6920  -12.5080 O.2       1 PRO        -0.3944
     35 CB         38.7840  -10.7210  -11.2830 C.3       1 PRO        -0.0104
     36 CG         39.2330  -11.4760  -10.1090 C.3       1 PRO        -0.0281
     37 CD         38.0130  -12.0760   -9.4650 C.3       1 PRO         0.0369
     38 N          38.0880  -12.0510  -14.0470 N.am      1 SER        -0.2616
     39 CA         38.4740  -12.9690  -15.1150 C.3       1 SER         0.1539
     40 C          39.9230  -13.4150  -14.9910 C.2       1 SER         0.2054
     41 O          40.2760  -14.4950  -15.4800 O.2       1 SER        -0.3943
     42 CB         38.2460  -12.3190  -16.4830 C.3       1 SER         0.0843
     43 OG         39.1640  -11.2620  -16.7160 O.3       1 SER        -0.3903
     44 N          40.7750  -12.6170  -14.3620 N.am      1 GLY        -0.2721
     45 CA         42.1900  -12.9260  -14.2860 C.3       1 GLY         0.0833
     46 C          42.8070  -12.4990  -12.9710 C.2       1 GLY         0.0570
     47 O          42.2710  -12.7810  -11.9020 O.co2     1 GLY        -0.5669
     48 OXT        43.8570  -11.8610  -12.9450 O.co2     1 GLY        -0.5669
     49 H1         31.7005  -25.3476   -6.4734 H         1 SER         0.2016
     50 H2         32.5235  -25.0475   -7.8670 H         1 SER         0.2016
     51 H3         30.9031  -25.3333   -7.9134 H         1 SER         0.2016
     52 H4         30.4354  -23.3523   -6.7039 H         1 SER         0.1122
     53 H5         33.4737  -23.2804   -6.6907 H         1 SER         0.0640
     54 H6         32.3238  -23.0325   -5.3331 H         1 SER         0.0640
     55 H7         31.7295  -21.0474   -6.3606 H         1 SER         0.2099
     56 H8         30.3714  -21.7588  -10.8281 H         1 PRO         0.0802
     57 H9         28.3368  -20.7252  -10.3403 H         1 PRO         0.0313
     58 H10        29.3234  -19.2251  -10.3958 H         1 PRO         0.0313
     59 H11        27.9232  -19.8397   -8.2314 H         1 PRO         0.0287
     60 H12        29.5765  -19.1521   -8.0880 H         1 PRO         0.0287
     61 H13        29.8812  -21.0857   -6.8034 H         1 PRO         0.0524
     62 H14        28.6420  -22.0113   -7.7167 H         1 PRO         0.0524
     63 H15        32.5584  -20.5664   -8.4852 H         1 GLY         0.1881
     64 H16        34.2904  -19.7155  -10.6063 H         1 GLY         0.0763
     65 H17        34.6003  -19.5478   -8.8449 H         1 GLY         0.0763
     66 H18        32.4531  -17.8433   -8.1446 H         1 GLU         0.1883
     67 H19        32.2943  -15.5723   -9.8783 H         1 GLU         0.0801
     68 H20        31.9947  -15.6281   -6.8387 H         1 GLU         0.0330
     69 H21        30.6952  -16.0451   -8.0067 H         1 GLU         0.0330
     70 H22        30.9277  -13.7933   -9.0254 H         1 GLU         0.0433
     71 H23        32.1653  -13.3843   -7.7894 H         1 GLU         0.0433
     72 H24        33.5955  -13.8714  -10.1550 H         1 GLY         0.1881
     73 H25        36.2211  -13.8982   -8.8709 H         1 GLY         0.0763
     74 H26        35.1793  -12.4907   -8.4705 H         1 GLY         0.0763
     75 H27        36.8056  -10.7587  -12.2019 H         1 PRO         0.0802
     76 H28        38.5362   -9.6858  -11.0055 H         1 PRO         0.0313
     77 H29        39.5622  -10.7161  -12.0605 H         1 PRO         0.0313
     78 H30        39.7394  -10.8036   -9.4009 H         1 PRO         0.0287
     79 H31        39.9256  -12.2730  -10.4171 H         1 PRO         0.0287
     80 H32        38.2162  -13.0981   -9.1128 H         1 PRO         0.0524
     81 H33        37.6693  -11.4590   -8.6217 H         1 PRO         0.0524
     82 H34        37.9633  -11.0787  -14.2446 H         1 SER         0.1884
     83 H35        37.8349  -13.8614  -15.0431 H         1 SER         0.0823
     84 H36        37.2223  -11.9185  -16.5223 H         1 SER         0.0606
     85 H37        38.3720  -13.0810  -17.2663 H         1 SER         0.0606
     86 H38        39.0572  -10.5977  -16.0453 H         1 SER         0.2097
     87 H39        40.4338  -11.7823  -13.9298 H         1 GLY         0.1873
     88 H40        42.7091  -12.4059  -15.1045 H         1 GLY         0.0689
     89 H41        42.3205  -14.0122  -14.4006 H         1 GLY         0.0689
@<TRIPOS>BOND
     1    1    2 1  
     2    2    3 1  
     3    2    5 1  
     4    3    4 2  
     5    3    7 am 
     6    5    6 1  
     7    7    8 1  
     8    7   13 1  
     9    8    9 1  
    10    8   11 1  
    11    9   10 2  
    12    9   14 am 
    13   11   12 1  
    14   12   13 1  
    15   14   15 1  
    16   15   16 1  
    17   16   17 2  
    18   16   18 am 
    19   18   19 1  
    20   19   20 1  
    21   19   22 1  
    22   20   21 2  
    23   20   27 am 
    24   22   23 1  
    25   23   24 1  
    26   24   25 ar 
    27   24   26 ar 
    28   27   28 1  
    29   28   29 1  
    30   29   30 2  
    31   29   31 am 
    32   31   32 1  
    33   31   37 1  
    34   32   33 1  
    35   32   35 1  
    36   33   34 2  
    37   33   38 am 
    38   35   36 1  
    39   36   37 1  
    40   38   39 1  
    41   39   40 1  
    42   39   42 1  
    43   40   41 2  
    44   40   44 am 
    45   42   43 1  
    46   44   45 1  
    47   45   46 1  
    48   46   47 ar 
    49   46   48 ar 
    50    1   49 1  
    51    1   50 1  
    52    1   51 1  
    53    2   52 1  
    54    5   53 1  
    55    5   54 1  
    56    6   55 1  
    57    8   56 1  
    58   11   57 1  
    59   11   58 1  
    60   12   59 1  
    61   12   60 1  
    62   13   61 1  
    63   13   62 1  
    64   14   63 1  
    65   15   64 1  
    66   15   65 1  
    67   18   66 1  
    68   19   67 1  
    69   22   68 1  
    70   22   69 1  
    71   23   70 1  
    72   23   71 1  
    73   27   72 1  
    74   28   73 1  
    75   28   74 1  
    76   32   75 1  
    77   35   76 1  
    78   35   77 1  
    79   36   78 1  
    80   36   79 1  
    81   37   80 1  
    82   37   81 1  
    83   38   82 1  
    84   39   83 1  
    85   42   84 1  
    86   42   85 1  
    87   43   86 1  
    88   44   87 1  
    89   45   88 1  
    90   45   89 1  
@<TRIPOS>SUBSTRUCTURE
     1 SER         1

