### 
### Created by X-TOOL on Mon Sep 10 21:13:23 2018
### 

@<TRIPOS>MOLECULE
4ysl_ligand
   36    35     1     0     0
SMALL
GAST_HUCK


@<TRIPOS>ATOM
      1 N1        -23.7780   25.5880  -21.1470 N.4       1 GSH         0.2328
      2 CA1       -24.2470   24.8970  -19.9930 C.3       1 GSH         0.0304
      3 C1        -24.3150   23.4050  -20.2550 C.2       1 GSH         0.0846
      4 O11       -24.2760   22.9790  -21.4460 O.co2     1 GSH        -0.5643
      5 O12       -24.4250   22.5950  -19.2900 O.co2     1 GSH        -0.5643
      6 CB1       -25.6290   25.3920  -19.6280 C.3       1 GSH         0.0193
      7 CG1       -25.7200   25.1740  -18.1440 C.3       1 GSH         0.0441
      8 CD1       -27.0030   25.6990  -17.5710 C.2       1 GSH         0.1785
      9 OE1       -27.9230   26.0590  -18.2750 O.2       1 GSH        -0.3969
     10 N2        -27.0770   25.7670  -16.1620 N.am      1 GSH        -0.2648
     11 CA2       -28.2600   26.2260  -15.5440 C.3       1 GSH         0.1395
     12 C2        -28.3310   27.7710  -15.4280 C.2       1 GSH         0.2039
     13 O2        -29.1810   28.2090  -14.6940 O.2       1 GSH        -0.3944
     14 CB2       -28.4600   25.4070  -14.2430 C.3       1 GSH         0.0311
     15 SG2       -28.8850   23.6670  -14.5250 S.3       1 GSH        -0.1735
     16 N3        -27.5800   28.8090  -16.1100 N.am      1 GSH        -0.2722
     17 CA3       -27.9630   30.1820  -15.7610 C.3       1 GSH         0.0833
     18 C3        -27.4880   31.4440  -16.5270 C.2       1 GSH         0.0570
     19 O31       -26.5470   31.3350  -17.3670 O.co2     1 GSH        -0.5669
     20 O32       -28.0120   32.6210  -16.3410 O.co2     1 GSH        -0.5669
     21 H1        -23.7396   26.5766  -20.9541 H         1 GSH         0.2010
     22 H2        -24.4059   25.4202  -21.9175 H         1 GSH         0.2010
     23 H3        -22.8567   25.2563  -21.3860 H         1 GSH         0.2010
     24 H4        -23.5583   25.0867  -19.1565 H         1 GSH         0.1026
     25 H5        -26.4021   24.8137  -20.1551 H         1 GSH         0.0363
     26 H6        -25.7383   26.4588  -19.8728 H         1 GSH         0.0363
     27 H7        -24.8783   25.6892  -17.6581 H         1 GSH         0.0505
     28 H8        -25.6565   24.0950  -17.9400 H         1 GSH         0.0505
     29 H9        -26.2941   25.4909  -15.6044 H         1 GSH         0.1883
     30 H10       -29.0935   25.9517  -16.2073 H         1 GSH         0.0808
     31 H11       -29.2711   25.8715  -13.6630 H         1 GSH         0.0422
     32 H12       -27.5261   25.4453  -13.6631 H         1 GSH         0.0422
     33 H13       -28.9985   23.2021  -13.6379 H         1 GSH         0.1019
     34 H14       -26.8558   28.6039  -16.7684 H         1 GSH         0.1873
     35 H15       -27.6357   30.3259  -14.7207 H         1 GSH         0.0689
     36 H16       -29.0618   30.2039  -15.8060 H         1 GSH         0.0689
@<TRIPOS>BOND
     1    1    2 1  
     2    2    3 1  
     3    2    6 1  
     4    3    4 ar 
     5    3    5 ar 
     6    6    7 1  
     7    7    8 1  
     8    8    9 2  
     9    8   10 am 
    10   10   11 1  
    11   11   12 1  
    12   11   14 1  
    13   12   13 2  
    14   12   16 am 
    15   14   15 1  
    16   16   17 1  
    17   17   18 1  
    18   18   19 ar 
    19   18   20 ar 
    20    1   21 1  
    21    1   22 1  
    22    1   23 1  
    23    2   24 1  
    24    6   25 1  
    25    6   26 1  
    26    7   27 1  
    27    7   28 1  
    28   10   29 1  
    29   11   30 1  
    30   14   31 1  
    31   14   32 1  
    32   15   33 1  
    33   16   34 1  
    34   17   35 1  
    35   17   36 1  
@<TRIPOS>SUBSTRUCTURE
     1 GSH         1

