### 
### Created by X-TOOL on Mon Sep 10 21:13:23 2018
### 

@<TRIPOS>MOLECULE
4yt6_ligand
   67    70     1     0     0
SMALL
GAST_HUCK


@<TRIPOS>ATOM
      1 C13         9.3310   34.2950   28.7430 C.ar      1 4JY         0.0122
      2 C16         9.8610   33.5230   29.9000 C.cat     1 4JY         0.2283
      3 C15         9.1730   34.6640   26.3590 C.ar      1 4JY        -0.0442
      4 C22         3.6550   34.5520   22.9310 C.3       1 4JY         0.0664
      5 C23         2.8170   33.5790   22.2640 C.3       1 4JY        -0.0373
      6 C24         1.6990   36.5460   28.7330 C.3       1 4JY         0.0744
      7 C11         8.0510   36.1470   27.8720 C.ar      1 4JY        -0.0442
      8 C12         8.5270   35.4130   28.9390 C.ar      1 4JY        -0.0685
      9 C34         9.4970   39.6360   18.7660 C.ar      1 4JY        -0.0668
     10 C33        10.0830   38.9680   19.8160 C.ar      1 4JY        -0.0668
     11 N1          7.8210   36.4780   25.4900 N.pl3     1 4JY        -0.2933
     12 C2          6.9400   37.6340   25.6170 C.3       1 4JY         0.1414
     13 C3          5.4860   37.1780   25.7310 C.ar      1 4JY         0.0158
     14 C4          7.0100   38.5320   24.4190 C.2       1 4JY         0.1513
     15 C5          4.7290   37.4820   26.8530 C.ar      1 4JY         0.1523
     16 C6          3.4380   37.0190   27.0380 C.ar      1 4JY         0.1105
     17 C7          2.8490   36.2590   26.0370 C.ar      1 4JY        -0.0131
     18 C8          3.5950   35.9150   24.9180 C.ar      1 4JY         0.0728
     19 C9          4.8930   36.3770   24.7570 C.ar      1 4JY        -0.0398
     20 C10         8.3560   35.7740   26.5700 C.ar      1 4JY         0.0418
     21 C14         9.6560   33.9360   27.4350 C.ar      1 4JY        -0.0685
     22 O17         2.8650   37.2930   28.2620 O.3       1 4JY        -0.3195
     23 N18         9.7240   34.0510   31.1370 N.pl3     1 4JY        -0.2736
     24 N19        10.3550   32.3570   29.6630 N.pl3     1 4JY        -0.2736
     25 F20         5.2610   38.3100   27.7730 F         1 4JY        -0.2047
     26 O21         2.9680   34.9970   24.1040 O.3       1 4JY        -0.3251
     27 C25         1.7530   36.4150   30.2240 C.3       1 4JY        -0.0347
     28 C26         0.5180   37.3360   28.2730 C.3       1 4JY        -0.0347
     29 N27         6.1740   39.5780   24.2330 N.pl3     1 4JY        -0.2543
     30 C28         6.4840   40.1310   23.0270 C.2       1 4JY         0.0427
     31 C29         7.5390   39.4170   22.5360 C.2       1 4JY         0.0137
     32 N30         7.8540   38.4010   23.4120 N.2       1 4JY        -0.3241
     33 C31         8.2040   39.4810   21.2260 C.ar      1 4JY        -0.0314
     34 C32         9.4190   38.8390   21.0210 C.ar      1 4JY        -0.0617
     35 C35         8.2540   40.2110   18.9280 C.ar      1 4JY        -0.0668
     36 C36         7.6140   40.1530   20.1570 C.ar      1 4JY        -0.0617
     37 H1          9.4317   34.3690   25.3485 H         1 4JY         0.0515
     38 H2          3.8420   35.4048   22.2619 H         1 4JY         0.0609
     39 H3          4.6127   34.0896   23.2122 H         1 4JY         0.0609
     40 H4          3.3236   33.2198   21.3561 H         1 4JY         0.0255
     41 H5          1.8599   34.0463   21.9892 H         1 4JY         0.0255
     42 H6          2.6305   32.7312   22.9395 H         1 4JY         0.0255
     43 H7          1.6770   35.5419   28.2844 H         1 4JY         0.0643
     44 H8          7.4349   37.0206   28.0515 H         1 4JY         0.0515
     45 H9          8.2697   35.7131   29.9484 H         1 4JY         0.0582
     46 H10        10.0106   39.7102   17.8143 H         1 4JY         0.0575
     47 H11        11.0719   38.5401   19.6975 H         1 4JY         0.0604
     48 H12         8.0642   36.1605   24.5408 H         1 4JY         0.1815
     49 H13         7.2262   38.1994   26.5161 H         1 4JY         0.0938
     50 H14         1.8178   35.9376   26.1280 H         1 4JY         0.0402
     51 H15         5.4508   36.1127   23.8659 H         1 4JY         0.0387
     52 H16        10.2938   33.0776   27.2579 H         1 4JY         0.0582
     53 H17        10.0807   33.5404   31.9573 H         1 4JY         0.3179
     54 H18         9.2629   34.9639   31.2591 H         1 4JY         0.3179
     55 H19        10.4301   32.0168   28.6937 H         1 4JY         0.3179
     56 H20        10.6749   31.7650   30.4428 H         1 4JY         0.3179
     57 H21         0.8749   35.8529   30.5747 H         1 4JY         0.0258
     58 H22         1.7538   37.4159   30.6803 H         1 4JY         0.0258
     59 H23         2.6699   35.8799   30.5121 H         1 4JY         0.0258
     60 H24        -0.4066   36.8329   28.5924 H         1 4JY         0.0258
     61 H25         0.5332   37.4131   27.1758 H         1 4JY         0.0258
     62 H26         0.5574   38.3438   28.7120 H         1 4JY         0.0258
     63 H27         5.4402   39.8971   24.8815 H         1 4JY         0.2407
     64 H28         5.9886   40.9751   22.5495 H         1 4JY         0.0879
     65 H29         9.8485   38.2334   21.8109 H         1 4JY         0.0576
     66 H30         7.7760   40.7096   18.0926 H         1 4JY         0.0604
     67 H31         6.6505   40.6325   20.2868 H         1 4JY         0.0576
@<TRIPOS>BOND
     1    1    2 1  
     2    8    1 ar 
     3   21    1 ar 
     4    2   23 ar 
     5    2   24 ar 
     6   20    3 ar 
     7    3   21 ar 
     8    4    5 1  
     9   26    4 1  
    10   22    6 1  
    11    6   27 1  
    12    6   28 1  
    13    7    8 ar 
    14   20    7 ar 
    15   10    9 ar 
    16    9   35 ar 
    17   34   10 ar 
    18   12   11 1  
    19   11   20 1  
    20   12   13 1  
    21   14   12 1  
    22   13   15 ar 
    23   13   19 ar 
    24   14   29 1  
    25   32   14 2  
    26   15   16 ar 
    27   15   25 1  
    28   16   17 ar 
    29   16   22 1  
    30   18   17 ar 
    31   19   18 ar 
    32   18   26 1  
    33   30   29 1  
    34   31   30 2  
    35   31   32 1  
    36   33   31 1  
    37   33   34 ar 
    38   33   36 ar 
    39   35   36 ar 
    40    3   37 1  
    41    4   38 1  
    42    4   39 1  
    43    5   40 1  
    44    5   41 1  
    45    5   42 1  
    46    6   43 1  
    47    7   44 1  
    48    8   45 1  
    49    9   46 1  
    50   10   47 1  
    51   11   48 1  
    52   12   49 1  
    53   17   50 1  
    54   19   51 1  
    55   21   52 1  
    56   23   53 1  
    57   23   54 1  
    58   24   55 1  
    59   24   56 1  
    60   27   57 1  
    61   27   58 1  
    62   27   59 1  
    63   28   60 1  
    64   28   61 1  
    65   28   62 1  
    66   29   63 1  
    67   30   64 1  
    68   34   65 1  
    69   35   66 1  
    70   36   67 1  
@<TRIPOS>SUBSTRUCTURE
     1 4JY         1

