### 
### Created by X-TOOL on Mon Sep 10 21:13:23 2018
### 

@<TRIPOS>MOLECULE
4yt7_ligand
   71    74     1     0     0
SMALL
GAST_HUCK


@<TRIPOS>ATOM
      1 C13        10.2940   32.5880   27.3060 C.ar      1 4K1        -0.0685
      2 C18         4.2150   33.1580   23.3380 C.3       1 4K1         0.0664
      3 C17        10.7370   32.2510   29.7470 C.cat     1 4K1         0.2283
      4 C16         8.9260   34.9450   27.7910 C.ar      1 4K1        -0.0442
      5 C15         9.4600   34.2230   28.8410 C.ar      1 4K1        -0.0685
      6 C19         3.3540   32.1730   22.7550 C.3       1 4K1        -0.0373
      7 C21         7.8610   38.0580   22.4140 C.2       1 4K1         0.0183
      8 C22         7.2280   39.0020   23.1720 C.2       1 4K1         0.0453
      9 C11         9.0520   34.4830   26.4850 C.ar      1 4K1         0.0418
     10 C12         9.7520   33.3040   26.2500 C.ar      1 4K1        -0.0442
     11 C34         9.5410   38.1080   18.5000 C.ar      1 4K1        -0.0614
     12 C27         2.8790   35.3180   30.6680 C.3       1 4K1        -0.0347
     13 C33        10.2630   37.6300   19.5760 C.ar      1 4K1        -0.0628
     14 C1          5.5610   36.1880   27.0630 C.ar      1 4K1         0.1523
     15 C2          6.1910   35.8840   25.8650 C.ar      1 4K1         0.0158
     16 C3          5.5080   35.0750   24.9660 C.ar      1 4K1        -0.0398
     17 C4          4.2360   34.6160   25.2650 C.ar      1 4K1         0.0728
     18 C5          3.6040   34.9710   26.4470 C.ar      1 4K1        -0.0131
     19 C6          4.2780   35.7590   27.3690 C.ar      1 4K1         0.1105
     20 O7          3.5630   33.6890   24.5100 O.3       1 4K1        -0.3251
     21 C8          7.6210   36.3370   25.5860 C.3       1 4K1         0.1416
     22 N9          8.4670   35.1630   25.4130 N.pl3     1 4K1        -0.2933
     23 C10         7.5530   37.1980   24.3620 C.2       1 4K1         0.1521
     24 C14        10.1710   33.0420   28.6180 C.ar      1 4K1         0.0122
     25 N20         8.0500   36.9250   23.1730 N.2       1 4K1        -0.3228
     26 N23         7.0250   38.4410   24.3880 N.pl3     1 4K1        -0.2527
     27 F24         6.2420   36.9150   27.9720 F         1 4K1        -0.2047
     28 O25         3.7420   36.1740   28.5760 O.3       1 4K1        -0.3195
     29 C26         2.6440   35.4280   29.2060 C.3       1 4K1         0.0744
     30 C28         1.4040   36.1740   28.8970 C.3       1 4K1        -0.0347
     31 C29         8.4150   38.0960   21.0470 C.ar      1 4K1        -0.0120
     32 N30        11.1990   31.0860   29.4950 N.pl3     1 4K1        -0.2736
     33 N31        10.6590   32.7620   30.9930 N.pl3     1 4K1        -0.2736
     34 C32         9.7080   37.6090   20.8420 C.ar      1 4K1        -0.0565
     35 C35         8.2570   38.5950   18.6790 C.ar      1 4K1        -0.0475
     36 C36         7.6800   38.5950   19.9510 C.ar      1 4K1         0.0483
     37 C37         6.2750   39.0950   20.0820 C.2       1 4K1         0.1978
     38 N38         5.3150   38.3630   19.5340 N.am      1 4K1        -0.3012
     39 O39         6.0460   40.1630   20.6930 O.2       1 4K1        -0.3883
     40 H1         10.8211   31.6616   27.1085 H         1 4K1         0.0582
     41 H2          4.3986   33.9668   22.6154 H         1 4K1         0.0609
     42 H3          5.1718   32.6954   23.6216 H         1 4K1         0.0609
     43 H4          8.4063   35.8761   27.9859 H         1 4K1         0.0515
     44 H5          9.3247   34.5796   29.8557 H         1 4K1         0.0582
     45 H6          3.8319   31.7534   21.8575 H         1 4K1         0.0255
     46 H7          2.3979   32.6403   22.4767 H         1 4K1         0.0255
     47 H8          3.1711   31.3689   23.4829 H         1 4K1         0.0255
     48 H9          6.9433   40.0059   22.8605 H         1 4K1         0.0901
     49 H10         9.8743   32.9431   25.2352 H         1 4K1         0.0515
     50 H11         9.9819   38.1019   17.5097 H         1 4K1         0.0586
     51 H12         2.0528   34.7585   31.1311 H         1 4K1         0.0258
     52 H13         2.9317   36.3249   31.1077 H         1 4K1         0.0258
     53 H14         3.8264   34.7890   30.8483 H         1 4K1         0.0258
     54 H15        11.2738   37.2681   19.4265 H         1 4K1         0.0637
     55 H16         5.9729   34.8015   24.0257 H         1 4K1         0.0387
     56 H17         2.5930   34.6361   26.6489 H         1 4K1         0.0402
     57 H18         8.0041   36.9300   26.4296 H         1 4K1         0.0939
     58 H19         8.6417   34.8189   24.4580 H         1 4K1         0.1815
     59 H20         6.5525   38.8832   25.1893 H         1 4K1         0.2414
     60 H21         2.5820   34.4164   28.7785 H         1 4K1         0.0643
     61 H22         1.2719   36.2299   27.8064 H         1 4K1         0.0258
     62 H23         1.4752   37.1909   29.3102 H         1 4K1         0.0258
     63 H24         0.5431   35.6558   29.3446 H         1 4K1         0.0258
     64 H25        11.5969   30.5145   30.2539 H         1 4K1         0.3179
     65 H26        11.1733   30.7188   28.5330 H         1 4K1         0.3179
     66 H27        10.2776   33.7076   31.1389 H         1 4K1         0.3179
     67 H28        10.9809   32.2066   31.7985 H         1 4K1         0.3179
     68 H29        10.2767   37.2143   21.6762 H         1 4K1         0.0587
     69 H30         7.6994   38.9765   17.8313 H         1 4K1         0.0655
     70 H31         4.3621   38.6595   19.5976 H         1 4K1         0.1805
     71 H32         5.5438   37.5143   19.0571 H         1 4K1         0.1805
@<TRIPOS>BOND
     1   10    1 ar 
     2    1   24 ar 
     3    2    6 1  
     4   20    2 1  
     5   24    3 1  
     6    3   32 ar 
     7    3   33 ar 
     8    4    5 ar 
     9    9    4 ar 
    10    5   24 ar 
    11    7    8 2  
    12    7   25 1  
    13   31    7 1  
    14    8   26 1  
    15    9   10 ar 
    16   22    9 1  
    17   13   11 ar 
    18   11   35 ar 
    19   29   12 1  
    20   34   13 ar 
    21   15   14 ar 
    22   14   19 ar 
    23   14   27 1  
    24   15   16 ar 
    25   21   15 1  
    26   16   17 ar 
    27   17   18 ar 
    28   17   20 1  
    29   19   18 ar 
    30   19   28 1  
    31   21   22 1  
    32   23   21 1  
    33   25   23 2  
    34   23   26 1  
    35   28   29 1  
    36   29   30 1  
    37   31   34 ar 
    38   31   36 ar 
    39   35   36 ar 
    40   36   37 1  
    41   37   38 am 
    42   37   39 2  
    43    1   40 1  
    44    2   41 1  
    45    2   42 1  
    46    4   43 1  
    47    5   44 1  
    48    6   45 1  
    49    6   46 1  
    50    6   47 1  
    51    8   48 1  
    52   10   49 1  
    53   11   50 1  
    54   12   51 1  
    55   12   52 1  
    56   12   53 1  
    57   13   54 1  
    58   16   55 1  
    59   18   56 1  
    60   21   57 1  
    61   22   58 1  
    62   26   59 1  
    63   29   60 1  
    64   30   61 1  
    65   30   62 1  
    66   30   63 1  
    67   32   64 1  
    68   32   65 1  
    69   33   66 1  
    70   33   67 1  
    71   34   68 1  
    72   35   69 1  
    73   38   70 1  
    74   38   71 1  
@<TRIPOS>SUBSTRUCTURE
     1 4K1         1

