### 
### Created by X-TOOL on Mon Sep 10 21:13:23 2018
### 

@<TRIPOS>MOLECULE
4ytc_ligand
   42    45     1     0     0
SMALL
GAST_HUCK


@<TRIPOS>ATOM
      1 C1         16.6340   13.2070    5.6330 C.ar      1 4HW        -0.0715
      2 C2         15.4170   13.7520    5.2280 C.ar      1 4HW        -0.0383
      3 C3         15.3890   14.8140    4.3190 C.ar      1 4HW         0.0636
      4 N1         11.3760   12.9740    1.6380 N.ar      1 4HW        -0.2541
      5 C7         13.2530   13.1170    3.1520 C.ar      1 4HW         0.0423
      6 C6         13.1740   14.5090    3.0510 C.ar      1 4HW         0.1396
      7 N2         12.2080   15.1330    2.3410 N.ar      1 4HW        -0.2601
      8 C5         17.8050   14.7790    4.2520 C.ar      1 4HW        -0.0715
      9 C4         16.5910   15.3430    3.8520 C.ar      1 4HW        -0.0383
     10 C8         12.3430   12.3970    2.3750 C.ar      1 4HW         0.1826
     11 C9         11.3660   14.3170    1.6840 C.ar      1 4HW         0.0643
     12 N7         10.8570   10.3310    0.6420 N.pl3     1 4HW        -0.2851
     13 C10        11.8430   10.0580    1.4960 C.2       1 4HW         0.2498
     14 N4         12.3990    8.8570    1.7040 N.2       1 4HW        -0.2621
     15 C11        13.4310    9.1250    2.5680 C.2       1 4HW         0.1573
     16 N6         14.2480    8.1050    3.0160 N.pl3     1 4HW        -0.2622
     17 C12        15.3870    8.1130    3.8710 C.ar      1 4HW         0.0591
     18 C17        15.9590    9.2920    4.3670 C.ar      1 4HW        -0.0399
     19 C16        17.0450    9.2230    5.2450 C.ar      1 4HW        -0.0723
     20 C15        17.5600    7.9860    5.6290 C.ar      1 4HW        -0.0741
     21 C14        17.0040    6.8230    5.1350 C.ar      1 4HW        -0.0723
     22 C13        15.9210    6.8770    4.2540 C.ar      1 4HW        -0.0399
     23 N5         13.5320   10.3980    2.9120 N.2       1 4HW        -0.1908
     24 N3         12.4970   11.0060    2.2130 N.pl3     1 4HW        -0.1120
     25 N          14.2650   15.1990    3.5500 N.pl3     1 4HW        -0.2559
     26 C          17.8250   13.7130    5.1380 C.ar      1 4HW        -0.0734
     27 H1         16.6488   12.3838    6.3382 H         1 4HW         0.0587
     28 H2         14.4889   13.3512    5.6191 H         1 4HW         0.0536
     29 H3         13.9760   12.6267    3.7938 H         1 4HW         0.0624
     30 H4         18.7369   15.1773    3.8672 H         1 4HW         0.0587
     31 H5         16.5839   16.1922    3.1783 H         1 4HW         0.0536
     32 H6         10.5790   14.8040    1.1196 H         1 4HW         0.1058
     33 H7         10.3973    9.5678    0.1251 H         1 4HW         0.1857
     34 H8         10.5546   11.3052    0.4988 H         1 4HW         0.1857
     35 H9         13.9864    7.1710    2.6694 H         1 4HW         0.2095
     36 H10        15.5604   10.2555    4.0707 H         1 4HW         0.0529
     37 H11        17.4881   10.1350    5.6285 H         1 4HW         0.0585
     38 H12        18.3973    7.9372    6.3157 H         1 4HW         0.0513
     39 H13        17.4098    5.8628    5.4322 H         1 4HW         0.0585
     40 H14        15.4932    5.9596    3.8661 H         1 4HW         0.0529
     41 H15        14.2573   16.2012    3.3123 H         1 4HW         0.2155
     42 H16        18.7695   13.2767    5.4425 H         1 4HW         0.0519
@<TRIPOS>BOND
     1    2    1 ar 
     2    1   26 ar 
     3    3    2 ar 
     4    3    9 ar 
     5   25    3 1  
     6   10    4 ar 
     7    4   11 ar 
     8    5    6 ar 
     9   10    5 ar 
    10    6    7 ar 
    11    6   25 1  
    12   11    7 ar 
    13    9    8 ar 
    14    8   26 ar 
    15   24   10 1  
    16   13   12 1  
    17   13   14 2  
    18   13   24 1  
    19   14   15 1  
    20   15   16 1  
    21   15   23 2  
    22   16   17 1  
    23   17   18 ar 
    24   17   22 ar 
    25   18   19 ar 
    26   19   20 ar 
    27   20   21 ar 
    28   21   22 ar 
    29   23   24 1  
    30    1   27 1  
    31    2   28 1  
    32    5   29 1  
    33    8   30 1  
    34    9   31 1  
    35   11   32 1  
    36   12   33 1  
    37   12   34 1  
    38   16   35 1  
    39   18   36 1  
    40   19   37 1  
    41   20   38 1  
    42   21   39 1  
    43   22   40 1  
    44   25   41 1  
    45   26   42 1  
@<TRIPOS>SUBSTRUCTURE
     1 4HW         1

