### 
### Created by X-TOOL on Mon Sep 10 21:13:23 2018
### 

@<TRIPOS>MOLECULE
4ytf_ligand
   41    43     1     0     0
SMALL
GAST_HUCK


@<TRIPOS>ATOM
      1 C1         14.6480   14.8140    5.7080 C.3       1 4HZ         0.1260
      2 N2         17.3790   10.5010    5.1220 N.ar      1 4HZ        -0.2959
      3 C3         15.8310   15.8110    2.1470 C.3       1 4HZ         0.1260
      4 C4         15.7620   14.6950    1.1490 C.3       1 4HZ         0.4095
      5 C5         16.4070   13.0350    5.7570 C.ar      1 4HZ         0.1561
      6 C6         17.7090   12.6140    6.2210 C.ar      1 4HZ         0.1927
      7 C8         16.1400   10.9440    4.6870 C.ar      1 4HZ         0.0819
      8 C9         15.3630   10.0350    3.8590 C.2       1 4HZ         0.0294
      9 C10        15.7450    8.7490    3.5150 C.2       1 4HZ         0.0550
     10 C15        11.8950    9.9320    1.4750 C.ar      1 4HZ         0.0096
     11 F3         18.4610   13.3900    6.9390 F         1 4HZ        -0.1818
     12 C7         18.1460   11.3330    5.8820 C.ar      1 4HZ         0.0376
     13 N3         15.6040   12.1790    4.9770 N.ar      1 4HZ        -0.2655
     14 N1         15.9570   14.2820    6.0950 N.pl3     1 4HZ        -0.2813
     15 C2         14.6050   15.2330    4.2280 C.2       1 4HZ         0.2018
     16 N          15.8240   15.3730    3.5370 N.am      1 4HZ        -0.2764
     17 F2         16.7860   13.8670    1.2580 F         1 4HZ        -0.1685
     18 F1         15.7820   15.1370   -0.1050 F         1 4HZ        -0.1685
     19 F          14.6450   13.9700    1.2680 F         1 4HZ        -0.1685
     20 O          13.5010   15.3920    3.6510 O.2       1 4HZ        -0.3945
     21 C          14.3450   16.0500    6.5540 C.3       1 4HZ        -0.0243
     22 C12        14.1370   10.2880    3.1910 C.ar      1 4HZ         0.0183
     23 C13        13.2030   11.3740    3.0860 C.ar      1 4HZ        -0.0389
     24 C14        12.1050   11.1610    2.2230 C.ar      1 4HZ         0.0521
     25 CL         10.9610   12.4130    1.9810 Cl        1 4HZ        -0.0723
     26 N5         12.7750    8.8700    1.5670 N.ar      1 4HZ        -0.2831
     27 C11        13.8430    9.0740    2.4120 C.ar      1 4HZ         0.1430
     28 N4         14.8270    8.1700    2.6500 N.pl3     1 4HZ        -0.2533
     29 H1         13.8832   14.0439    5.8868 H         1 4HZ         0.0799
     30 H2         14.9639   16.4690    1.9887 H         1 4HZ         0.0609
     31 H3         16.7576   16.3762    1.9685 H         1 4HZ         0.0609
     32 H4         16.6470    8.2569    3.8758 H         1 4HZ         0.1115
     33 H5         11.0280    9.8466    0.8300 H         1 4HZ         0.0760
     34 H6         19.1146   10.9927    6.2299 H         1 4HZ         0.0844
     35 H7         16.5766   14.8838    6.6561 H         1 4HZ         0.1864
     36 H8         16.6866   15.1715    4.0010 H         1 4HZ         0.1855
     37 H9         13.3632   16.4568    6.2703 H         1 4HZ         0.0277
     38 H10        15.1206   16.8109    6.3825 H         1 4HZ         0.0277
     39 H11        14.3330   15.7720    7.6182 H         1 4HZ         0.0277
     40 H12        13.3326   12.2997    3.6349 H         1 4HZ         0.0680
     41 H13        14.8828    7.2196    2.2570 H         1 4HZ         0.2371
@<TRIPOS>BOND
     1   14    1 1  
     2    1   15 1  
     3    1   21 1  
     4    7    2 ar 
     5    2   12 ar 
     6    3    4 1  
     7   16    3 1  
     8    4   17 1  
     9    4   18 1  
    10    4   19 1  
    11    5    6 ar 
    12   13    5 ar 
    13    5   14 1  
    14    6   11 1  
    15   12    6 ar 
    16    8    7 1  
    17    7   13 ar 
    18    8    9 2  
    19   22    8 1  
    20    9   28 1  
    21   24   10 ar 
    22   10   26 ar 
    23   15   16 am 
    24   15   20 2  
    25   23   22 ar 
    26   22   27 ar 
    27   23   24 ar 
    28   24   25 1  
    29   26   27 ar 
    30   27   28 1  
    31    1   29 1  
    32    3   30 1  
    33    3   31 1  
    34    9   32 1  
    35   10   33 1  
    36   12   34 1  
    37   14   35 1  
    38   16   36 1  
    39   21   37 1  
    40   21   38 1  
    41   21   39 1  
    42   23   40 1  
    43   28   41 1  
@<TRIPOS>SUBSTRUCTURE
     1 4HZ         1

