### 
### Created by X-TOOL on Mon Sep 10 21:13:24 2018
### 

@<TRIPOS>MOLECULE
4yti_ligand
   47    49     1     0     0
SMALL
GAST_HUCK


@<TRIPOS>ATOM
      1 C1         13.9890   14.2990    5.1700 C.3       1 VJK        -0.0227
      2 C2         15.3830   14.8910    5.4370 C.3       1 VJK         0.1286
      3 C3         15.4120   15.6390    6.7570 C.3       1 VJK        -0.0318
      4 C4         15.7810   15.8880    4.3290 C.2       1 VJK         0.2246
      5 C5         16.8130   14.9170    2.2730 C.3       1 VJK         0.1261
      6 C6         15.7960   14.9090    1.1740 C.3       1 VJK         0.4096
      7 C7         16.5740   12.5180    4.9190 C.ar      1 VJK         0.1169
      8 C8         17.8310   11.9080    5.1510 C.ar      1 VJK        -0.0007
      9 C9         18.0020   10.5950    4.7410 C.ar      1 VJK         0.0035
     10 C10        15.7680   10.6110    3.9770 C.ar      1 VJK         0.0856
     11 C11        14.6580    9.9230    3.3070 C.2       1 VJK         0.0321
     12 C12        14.7380    8.6070    2.9250 C.2       1 VJK         0.0567
     13 C13        12.7680    9.3290    2.1200 C.ar      1 VJK         0.1433
     14 F2         16.2710   14.4300    0.1120 F         1 VJK        -0.1685
     15 F          15.3600   16.0570    0.8780 F         1 VJK        -0.1685
     16 F1         14.7790   14.2390    1.4520 F         1 VJK        -0.1685
     17 N          16.8350   15.4880    3.6210 N.am      1 VJK        -0.2754
     18 O          15.1250   16.9110    4.1010 O.2       1 VJK        -0.3420
     19 C          13.0960   15.0560    4.1890 C.3       1 VJK        -0.0638
     20 N1         16.3590   13.7910    5.4750 N.pl3     1 VJK        -0.2923
     21 N3         15.5510   11.8890    4.3170 N.ar      1 VJK        -0.2640
     22 N2         17.0500    9.8600    4.1680 N.ar      1 VJK        -0.2938
     23 C14        13.3350   10.3990    2.8280 C.ar      1 VJK         0.0185
     24 C15        12.6670   11.6200    2.7450 C.ar      1 VJK        -0.0527
     25 C16        11.5190   11.7300    1.9600 C.ar      1 VJK        -0.0495
     26 C17        11.0600   10.6240    1.2850 C.ar      1 VJK        -0.0044
     27 N5         11.6470    9.4060    1.3500 N.ar      1 VJK        -0.2836
     28 N4         13.6000    8.2440    2.2170 N.pl3     1 VJK        -0.2524
     29 H1         13.4586   14.2491    6.1324 H         1 VJK         0.0275
     30 H2         14.1293   13.2818    4.7755 H         1 VJK         0.0275
     31 H3         16.4183   16.0512    6.9228 H         1 VJK         0.0242
     32 H4         15.1592   14.9487    7.5753 H         1 VJK         0.0242
     33 H5         14.6796   16.4593    6.7298 H         1 VJK         0.0242
     34 H6         17.6952   15.3680    1.7952 H         1 VJK         0.0611
     35 H7         16.9988   13.8475    2.4506 H         1 VJK         0.0611
     36 H8         18.6348   12.4514    5.6344 H         1 VJK         0.0616
     37 H9         18.9721   10.1371    4.8965 H         1 VJK         0.0862
     38 H10        15.5731    7.9437    3.1453 H         1 VJK         0.1129
     39 H11        17.7314   15.5875    4.0530 H         1 VJK         0.1861
     40 H12        12.1347   14.5310    4.0881 H         1 VJK         0.0229
     41 H13        13.5904   15.1074    3.2077 H         1 VJK         0.0229
     42 H14        12.9197   16.0747    4.5647 H         1 VJK         0.0229
     43 H15        17.1317   14.0299    6.1128 H         1 VJK         0.1829
     44 H16        13.0385   12.4811    3.2887 H         1 VJK         0.0674
     45 H17        10.9954   12.6760    1.8833 H         1 VJK         0.0606
     46 H18        10.1774   10.7335    0.6652 H         1 VJK         0.0754
     47 H19        13.4113    7.3094    1.8273 H         1 VJK         0.2375
@<TRIPOS>BOND
     1    2    1 1  
     2    1   19 1  
     3    2    3 1  
     4    2    4 1  
     5   20    2 1  
     6    4   17 am 
     7    4   18 2  
     8    5    6 1  
     9   17    5 1  
    10    6   14 1  
    11    6   15 1  
    12    6   16 1  
    13    7    8 ar 
    14    7   20 1  
    15   21    7 ar 
    16    8    9 ar 
    17    9   22 ar 
    18   10   11 1  
    19   10   21 ar 
    20   10   22 ar 
    21   11   12 2  
    22   11   23 1  
    23   12   28 1  
    24   23   13 ar 
    25   13   27 ar 
    26   13   28 1  
    27   23   24 ar 
    28   24   25 ar 
    29   25   26 ar 
    30   26   27 ar 
    31    1   29 1  
    32    1   30 1  
    33    3   31 1  
    34    3   32 1  
    35    3   33 1  
    36    5   34 1  
    37    5   35 1  
    38    8   36 1  
    39    9   37 1  
    40   12   38 1  
    41   17   39 1  
    42   19   40 1  
    43   19   41 1  
    44   19   42 1  
    45   20   43 1  
    46   24   44 1  
    47   25   45 1  
    48   26   46 1  
    49   28   47 1  
@<TRIPOS>SUBSTRUCTURE
     1 VJK         1

