### 
### Created by X-TOOL on Mon Sep 10 21:13:23 2018
### 

@<TRIPOS>MOLECULE
4yuw_ligand
   24    24     1     0     0
SMALL
GAST_HUCK


@<TRIPOS>ATOM
      1 N1         17.5730   52.2450   -1.8590 N.4       1 4JU         0.2207
      2 C5         18.4430   53.0640   -0.9300 C.3       1 4JU        -0.0244
      3 C6         19.8650   52.9310   -1.4380 C.3       1 4JU        -0.0095
      4 C4         18.0340   54.5610   -0.9380 C.3       1 4JU        -0.0095
      5 C3         19.0380   55.5000   -0.2410 C.3       1 4JU        -0.0454
      6 C2         20.4620   55.3220   -0.7380 C.3       1 4JU        -0.0435
      7 C1         21.4550   56.0710    0.1690 C.3       1 4JU        -0.0624
      8 C7         20.8290   53.8330   -0.6000 C.3       1 4JU        -0.0454
      9 H1         17.8649   51.2806   -1.8296 H         1 4JU         0.1997
     10 H2         17.6638   52.5949   -2.7999 H         1 4JU         0.1997
     11 H3         16.6109   52.3139   -1.5662 H         1 4JU         0.1997
     12 H4         18.3662   52.6720    0.0949 H         1 4JU         0.0850
     13 H5         19.9037   53.2410   -2.4927 H         1 4JU         0.0320
     14 H6         20.1841   51.8818   -1.3522 H         1 4JU         0.0320
     15 H7         17.0640   54.6552   -0.4279 H         1 4JU         0.0320
     16 H8         17.9309   54.8837   -1.9845 H         1 4JU         0.0320
     17 H9         19.0161   55.2963    0.8397 H         1 4JU         0.0270
     18 H10        18.7304   56.5401   -0.4244 H         1 4JU         0.0270
     19 H11        20.5490   55.6631   -1.7801 H         1 4JU         0.0298
     20 H12        22.4776   55.9278   -0.2101 H         1 4JU         0.0232
     21 H13        21.3851   55.6767    1.1935 H         1 4JU         0.0232
     22 H14        21.2119   57.1438    0.1716 H         1 4JU         0.0232
     23 H15        21.8593   53.6834   -0.9552 H         1 4JU         0.0270
     24 H16        20.7606   53.5437    0.4590 H         1 4JU         0.0270
@<TRIPOS>BOND
     1    1    2 1  
     2    2    3 1  
     3    2    4 1  
     4    3    8 1  
     5    4    5 1  
     6    5    6 1  
     7    6    7 1  
     8    6    8 1  
     9    1    9 1  
    10    1   10 1  
    11    1   11 1  
    12    2   12 1  
    13    3   13 1  
    14    3   14 1  
    15    4   15 1  
    16    4   16 1  
    17    5   17 1  
    18    5   18 1  
    19    6   19 1  
    20    7   20 1  
    21    7   21 1  
    22    7   22 1  
    23    8   23 1  
    24    8   24 1  
@<TRIPOS>SUBSTRUCTURE
     1 4JU         1

