### 
### Created by X-TOOL on Mon Sep 10 21:13:23 2018
### 

@<TRIPOS>MOLECULE
4yux_ligand
   20    21     1     0     0
SMALL
GAST_HUCK


@<TRIPOS>ATOM
      1 C10         4.0180    8.6040   38.4760 C.ar      1 4JT        -0.0013
      2 C11         4.1880    7.2860   38.8360 C.ar      1 4JT        -0.0034
      3 C8          2.9150    8.9730   37.7210 C.ar      1 4JT         0.0457
      4 C9          3.2810    6.3160   38.4050 C.ar      1 4JT         0.0252
      5 C4          1.9940    8.0030   37.3040 C.ar      1 4JT         0.1925
      6 C5          2.2030    6.7020   37.6190 C.ar      1 4JT         0.1534
      7 C3         -0.2480    7.8080   36.5480 C.cat     1 4JT         0.1031
      8 C6         -0.4810    6.5830   37.3030 C.3       1 4JT         0.0616
      9 N1          0.8830    8.4390   36.5570 N.pl3     1 4JT        -0.2399
     10 N7         -1.3420    8.3380   35.9030 N.pl3     1 4JT        -0.3508
     11 S2          0.9890    5.5200   37.0330 S.3       1 4JT        -0.0297
     12 H1          4.7430    9.3498   38.7814 H         1 4JT         0.0931
     13 H2          5.0295    7.0002   39.4566 H         1 4JT         0.1078
     14 H3          2.7652   10.0127   37.4532 H         1 4JT         0.0814
     15 H4          3.4163    5.2762   38.6800 H         1 4JT         0.0734
     16 H5         -1.3876    6.0780   36.9383 H         1 4JT         0.0418
     17 H6         -0.5938    6.8114   38.3731 H         1 4JT         0.0418
     18 H7          0.9736    9.2965   35.9936 H         1 4JT         0.2505
     19 H8         -1.2459    9.2028   35.3518 H         1 4JT         0.1768
     20 H9         -2.2569    7.8699   35.9714 H         1 4JT         0.1768
@<TRIPOS>BOND
     1    1    2 ar 
     2    3    1 ar 
     3    4    2 ar 
     4    5    3 ar 
     5    6    4 ar 
     6    5    6 ar 
     7    9    5 1  
     8    6   11 1  
     9    7    8 1  
    10    7    9 ar 
    11    7   10 ar 
    12    8   11 1  
    13    1   12 1  
    14    2   13 1  
    15    3   14 1  
    16    4   15 1  
    17    8   16 1  
    18    8   17 1  
    19    9   18 1  
    20   10   19 1  
    21   10   20 1  
@<TRIPOS>SUBSTRUCTURE
     1 4JT         1

