### 
### Created by X-TOOL on Mon Sep 10 21:13:24 2018
### 

@<TRIPOS>MOLECULE
4yuy_ligand
   19    20     1     0     0
SMALL
GAST_HUCK


@<TRIPOS>ATOM
      1 N1          0.2190    8.8790   36.0340 N.pl3     1 1SQ        -0.3155
      2 C2          0.5560    7.7710   36.7650 C.ar      1 1SQ         0.1223
      3 N3         -0.3560    6.7950   36.6960 N.ar      1 1SQ        -0.2916
      4 C4         -0.0420    5.6970   37.4080 C.ar      1 1SQ        -0.0144
      5 C5          1.1020    5.5610   38.1590 C.ar      1 1SQ        -0.0498
      6 C6          2.0160    6.5970   38.2030 C.ar      1 1SQ        -0.0142
      7 C7          3.1890    6.5270   38.9440 C.ar      1 1SQ        -0.0523
      8 C8          4.0550    7.5970   38.9370 C.ar      1 1SQ        -0.0593
      9 C9          3.8030    8.7310   38.2110 C.ar      1 1SQ        -0.0583
     10 C10         2.6260    8.7900   37.4890 C.ar      1 1SQ        -0.0462
     11 C11         1.7280    7.7360   37.4870 C.ar      1 1SQ         0.0336
     12 H1          0.8487    9.6938   36.0139 H         1 1SQ         0.1821
     13 H2         -0.6642    8.8975   35.5043 H         1 1SQ         0.1821
     14 H3         -0.7366    4.8650   37.3882 H         1 1SQ         0.0720
     15 H4          1.2857    4.6474   38.7128 H         1 1SQ         0.0557
     16 H5          3.4199    5.6392   39.5216 H         1 1SQ         0.0616
     17 H6          4.9645    7.5405   39.5241 H         1 1SQ         0.0647
     18 H7          4.5052    9.5568   38.2030 H         1 1SQ         0.0611
     19 H8          2.4012    9.6799   36.9123 H         1 1SQ         0.0663
@<TRIPOS>BOND
     1    1    2 1  
     2    2    3 ar 
     3    2   11 ar 
     4    3    4 ar 
     5    4    5 ar 
     6    5    6 ar 
     7    6    7 ar 
     8    6   11 ar 
     9    7    8 ar 
    10    8    9 ar 
    11    9   10 ar 
    12   10   11 ar 
    13    1   12 1  
    14    1   13 1  
    15    4   14 1  
    16    5   15 1  
    17    7   16 1  
    18    8   17 1  
    19    9   18 1  
    20   10   19 1  
@<TRIPOS>SUBSTRUCTURE
     1 1SQ         1

