### 
### Created by X-TOOL on Mon Sep 10 21:13:24 2018
### 

@<TRIPOS>MOLECULE
4yuz_ligand
   37    39     1     0     0
SMALL
GAST_HUCK


@<TRIPOS>ATOM
      1 C11        -4.1230  -20.8590  -55.4880 C.ar      1 4JV        -0.0723
      2 C18        -1.7450  -16.3100  -58.4400 C.ar      1 4JV        -0.0670
      3 C19        -4.1260  -16.2290  -58.2210 C.ar      1 4JV        -0.0670
      4 C16        -1.6550  -16.5650  -57.0830 C.ar      1 4JV        -0.0642
      5 C17        -4.0230  -16.5060  -56.8570 C.ar      1 4JV        -0.0642
      6 C5         -5.2570  -21.2830  -54.8270 C.ar      1 4JV        -0.0616
      7 C8         -3.6130  -19.5800  -55.3440 C.ar      1 4JV        -0.0307
      8 C1         -5.4540  -19.1400  -53.8340 C.ar      1 4JV         0.0787
      9 C20        -2.9870  -16.1370  -59.0110 C.ar      1 4JV        -0.0528
     10 C15        -2.7740  -16.6700  -56.2970 C.ar      1 4JV        -0.0189
     11 C2         -5.9610  -20.4290  -53.9840 C.ar      1 4JV         0.0175
     12 C3         -4.2920  -18.7200  -54.4990 C.ar      1 4JV         0.1157
     13 C4         -6.1680  -18.3290  -52.9810 C.ar      1 4JV         0.1320
     14 C12        -7.6670  -20.0140  -52.5260 C.ar      1 4JV         0.1559
     15 C21        -3.0910  -15.8210  -60.4810 C.3       1 4JV        -0.0343
     16 C13        -2.5980  -16.9880  -54.8610 C.3       1 4JV         0.1047
     17 N6         -7.0530  -20.8710  -53.3620 N.ar      1 4JV        -0.2979
     18 N9         -7.2540  -18.7690  -52.3250 N.ar      1 4JV        -0.2427
     19 N10        -5.7600  -17.0050  -52.7670 N.pl3     1 4JV        -0.3085
     20 N14        -8.8250  -20.3600  -51.8000 N.pl3     1 4JV        -0.3077
     21 O7         -3.8400  -17.4170  -54.3230 O.3       1 4JV        -0.2980
     22 H1         -3.6119  -21.5534  -56.1450 H         1 4JV         0.0627
     23 H2         -0.8489  -16.2471  -59.0468 H         1 4JV         0.0540
     24 H3         -5.1030  -16.0844  -58.6678 H         1 4JV         0.0540
     25 H4         -0.6772  -16.6846  -56.6306 H         1 4JV         0.0541
     26 H5         -4.9140  -16.5911  -56.2455 H         1 4JV         0.0541
     27 H6         -5.6059  -22.2998  -54.9669 H         1 4JV         0.0468
     28 H7         -2.7194  -19.2655  -55.8710 H         1 4JV         0.0485
     29 H8         -2.0838  -15.7938  -60.9223 H         1 4JV         0.0378
     30 H9         -3.5754  -14.8422  -60.6123 H         1 4JV         0.0378
     31 H10        -3.6896  -16.5964  -60.9813 H         1 4JV         0.0378
     32 H11        -2.2548  -16.0910  -54.3247 H         1 4JV         0.0773
     33 H12        -1.8525  -17.7892  -54.7501 H         1 4JV         0.0773
     34 H13        -6.2942  -16.3982  -52.1288 H         1 4JV         0.1875
     35 H14        -4.9260  -16.6390  -53.2480 H         1 4JV         0.1875
     36 H15        -9.2248  -21.3052  -51.8880 H         1 4JV         0.1832
     37 H16        -9.2712  -19.6676  -51.1816 H         1 4JV         0.1832
@<TRIPOS>BOND
     1    1    6 ar 
     2    7    1 ar 
     3    4    2 ar 
     4    2    9 ar 
     5    5    3 ar 
     6    3    9 ar 
     7   10    4 ar 
     8   10    5 ar 
     9   11    6 ar 
    10   12    7 ar 
    11    8   11 ar 
    12   12    8 ar 
    13    8   13 ar 
    14    9   15 1  
    15   16   10 1  
    16   11   17 ar 
    17   21   12 1  
    18   13   18 ar 
    19   13   19 1  
    20   17   14 ar 
    21   18   14 ar 
    22   14   20 1  
    23   16   21 1  
    24    1   22 1  
    25    2   23 1  
    26    3   24 1  
    27    4   25 1  
    28    5   26 1  
    29    6   27 1  
    30    7   28 1  
    31   15   29 1  
    32   15   30 1  
    33   15   31 1  
    34   16   32 1  
    35   16   33 1  
    36   19   34 1  
    37   19   35 1  
    38   20   36 1  
    39   20   37 1  
@<TRIPOS>SUBSTRUCTURE
     1 4JV         1

