### 
### Created by X-TOOL on Mon Sep 10 21:13:24 2018
### 

@<TRIPOS>MOLECULE
4yv0_ligand
   35    37     1     0     0
SMALL
GAST_HUCK


@<TRIPOS>ATOM
      1 C20        -9.6090  -14.4390  -61.2110 C.ar      1 4JW        -0.0772
      2 C18       -10.7850  -15.1550  -61.3530 C.ar      1 4JW        -0.0755
      3 C19        -9.3030  -13.7940  -60.0250 C.ar      1 4JW        -0.0755
      4 C17       -13.0540  -19.8700  -53.9510 C.ar      1 4JW        -0.0819
      5 C16       -12.0110  -19.2540  -53.2770 C.ar      1 4JW        -0.0819
      6 C15       -11.6950  -15.2150  -60.3220 C.ar      1 4JW        -0.0411
      7 C14       -10.2230  -13.8610  -58.9970 C.ar      1 4JW        -0.0411
      8 C13       -13.3490  -19.4980  -55.2420 C.ar      1 4JW        -0.0414
      9 C12       -11.2690  -18.2500  -53.8710 C.ar      1 4JW        -0.0412
     10 C10       -11.4140  -14.5640  -59.1450 C.ar      1 4JW         0.0688
     11 C8        -12.5820  -18.5070  -55.8380 C.ar      1 4JW         0.1203
     12 C6        -11.5530  -17.8690  -55.1670 C.ar      1 4JW         0.1234
     13 C1        -12.1930  -15.4070  -56.9360 C.2       1 4JW         0.2420
     14 C7        -11.7020  -17.6900  -57.7750 C.3       1 4JW         0.1157
     15 C2        -11.1320  -16.4780  -57.0620 C.3       1 4JW         0.1996
     16 C11       -13.5210  -13.7570  -58.1970 C.3       1 4JW         0.0445
     17 N4        -12.3660  -14.6440  -58.0950 N.am      1 4JW        -0.2205
     18 O9        -12.8390  -15.2800  -55.8850 O.2       1 4JW        -0.3813
     19 O5        -12.8770  -18.1520  -57.1260 O.3       1 4JW        -0.3164
     20 O3        -10.7890  -16.8340  -55.7250 O.3       1 4JW        -0.2949
     21 H1         -8.9159  -14.3824  -62.0426 H         1 4JW         0.0487
     22 H2        -10.9909  -15.6723  -62.2831 H         1 4JW         0.0577
     23 H3         -8.3708  -13.2534  -59.9068 H         1 4JW         0.0577
     24 H4        -13.6357  -20.6430  -53.4619 H         1 4JW         0.0495
     25 H5        -11.7729  -19.5650  -52.2662 H         1 4JW         0.0495
     26 H6        -12.6202  -15.7680  -60.4370 H         1 4JW         0.0502
     27 H7        -10.0135  -13.3577  -58.0600 H         1 4JW         0.0502
     28 H8        -14.1627  -19.9686  -55.7819 H         1 4JW         0.0509
     29 H9        -10.4695  -17.7652  -53.3226 H         1 4JW         0.0509
     30 H10       -10.9511  -18.4938  -57.7758 H         1 4JW         0.0665
     31 H11       -11.9471  -17.4160  -58.8118 H         1 4JW         0.0665
     32 H12       -10.2545  -16.0979  -57.6056 H         1 4JW         0.0924
     33 H13       -13.5001  -13.2379  -59.1666 H         1 4JW         0.0550
     34 H14       -13.4878  -13.0168  -57.3840 H         1 4JW         0.0550
     35 H15       -14.4453  -14.3480  -58.1174 H         1 4JW         0.0550
@<TRIPOS>BOND
     1    2    1 ar 
     2    3    1 ar 
     3    6    2 ar 
     4    7    3 ar 
     5    4    5 ar 
     6    8    4 ar 
     7    9    5 ar 
     8   10    6 ar 
     9   10    7 ar 
    10   11    8 ar 
    11   12    9 ar 
    12   17   10 1  
    13   11   12 ar 
    14   19   11 1  
    15   12   20 1  
    16   15   13 1  
    17   13   17 am 
    18   13   18 2  
    19   14   15 1  
    20   14   19 1  
    21   15   20 1  
    22   17   16 1  
    23    1   21 1  
    24    2   22 1  
    25    3   23 1  
    26    4   24 1  
    27    5   25 1  
    28    6   26 1  
    29    7   27 1  
    30    8   28 1  
    31    9   29 1  
    32   14   30 1  
    33   14   31 1  
    34   15   32 1  
    35   16   33 1  
    36   16   34 1  
    37   16   35 1  
@<TRIPOS>SUBSTRUCTURE
     1 4JW         1

