### 
### Created by X-TOOL on Mon Sep 10 21:13:24 2018
### 

@<TRIPOS>MOLECULE
4yv1_ligand
   35    37     1     0     0
SMALL
GAST_HUCK


@<TRIPOS>ATOM
      1 C12       -11.2290  -18.4200  -53.5950 C.ar      1 4K2        -0.0678
      2 C18       -15.4770  -20.4740  -54.5420 C.ar      1 4K2        -0.0342
      3 C14       -12.2790  -19.2420  -53.2270 C.ar      1 4K2        -0.0595
      4 C15       -14.4020  -20.2630  -53.6960 C.ar      1 4K2        -0.0386
      5 C11       -11.2750  -17.7970  -54.8180 C.ar      1 4K2        -0.0237
      6 C13       -15.4700  -19.8320  -55.7580 C.ar      1 4K2         0.0090
      7 C8        -13.3580  -19.4380  -54.0760 C.ar      1 4K2         0.0003
      8 C5        -13.4290  -18.8190  -55.3130 C.ar      1 4K2         0.0869
      9 C4        -12.3650  -17.9990  -55.6490 C.ar      1 4K2         0.1510
     10 C1        -13.0210  -16.1670  -56.7230 C.2       1 4K2         0.3491
     11 C19       -12.7160  -14.0160  -60.3140 C.3       1 4K2        -0.0494
     12 C16       -13.1990  -13.3490  -59.0360 C.3       1 4K2        -0.0325
     13 C17       -11.8360  -15.2050  -60.0200 C.3       1 4K2        -0.0325
     14 C9        -13.8930  -14.3140  -58.1030 C.3       1 4K2         0.0361
     15 C10       -12.6340  -16.1680  -59.1750 C.3       1 4K2         0.0361
     16 N6        -14.4770  -19.0210  -56.1440 N.ar      1 4K2        -0.2935
     17 N2        -13.1340  -15.5420  -57.9620 N.am      1 4K2        -0.2449
     18 O7        -13.4680  -15.7180  -55.6630 O.2       1 4K2        -0.3714
     19 O3        -12.3500  -17.3640  -56.8790 O.3       1 4K2        -0.1929
     20 H1        -10.3857  -18.2704  -52.9305 H         1 4K2         0.0607
     21 H2        -16.2965  -21.1232  -54.2557 H         1 4K2         0.0690
     22 H3        -12.2582  -19.7388  -52.2637 H         1 4K2         0.0531
     23 H4        -14.3777  -20.7484  -52.7270 H         1 4K2         0.0749
     24 H5        -10.4630  -17.1508  -55.1314 H         1 4K2         0.0546
     25 H6        -16.3038  -19.9891  -56.4327 H         1 4K2         0.0840
     26 H7        -12.1435  -13.2852  -60.9040 H         1 4K2         0.0267
     27 H8        -13.5886  -14.3521  -60.8933 H         1 4K2         0.0267
     28 H9        -13.9039  -12.5474  -59.3017 H         1 4K2         0.0285
     29 H10       -12.3320  -12.9170  -58.5147 H         1 4K2         0.0285
     30 H11       -10.9387  -14.8809  -59.4725 H         1 4K2         0.0285
     31 H12       -11.5363  -15.6910  -60.9602 H         1 4K2         0.0285
     32 H13       -14.8882  -14.5513  -58.5070 H         1 4K2         0.0522
     33 H14       -14.0011  -13.8432  -57.1148 H         1 4K2         0.0522
     34 H15       -11.9898  -17.0154  -58.8978 H         1 4K2         0.0522
     35 H16       -13.4880  -16.5339  -59.7639 H         1 4K2         0.0522
@<TRIPOS>BOND
     1    1    3 ar 
     2    5    1 ar 
     3    4    2 ar 
     4    6    2 ar 
     5    7    3 ar 
     6    7    4 ar 
     7    9    5 ar 
     8   16    6 ar 
     9    8    7 ar 
    10    9    8 ar 
    11    8   16 ar 
    12   19    9 1  
    13   17   10 am 
    14   10   18 2  
    15   10   19 1  
    16   12   11 1  
    17   11   13 1  
    18   14   12 1  
    19   13   15 1  
    20   14   17 1  
    21   15   17 1  
    22    1   20 1  
    23    2   21 1  
    24    3   22 1  
    25    4   23 1  
    26    5   24 1  
    27    6   25 1  
    28   11   26 1  
    29   11   27 1  
    30   12   28 1  
    31   12   29 1  
    32   13   30 1  
    33   13   31 1  
    34   14   32 1  
    35   14   33 1  
    36   15   34 1  
    37   15   35 1  
@<TRIPOS>SUBSTRUCTURE
     1 4K2         1

