### 
### Created by X-TOOL on Mon Sep 10 21:13:25 2018
### 

@<TRIPOS>MOLECULE
4yv2_ligand
   21    21     1     0     0
SMALL
GAST_HUCK


@<TRIPOS>ATOM
      1 C12        11.2040    7.5940    4.9110 C.ar      1 4K3        -0.0772
      2 C10        11.5950    8.8440    5.3490 C.ar      1 4K3        -0.0755
      3 C11        11.6240    6.4610    5.6020 C.ar      1 4K3        -0.0755
      4 C9         12.4070    8.9210    6.4680 C.ar      1 4K3        -0.0414
      5 C8         12.4390    6.5390    6.7170 C.ar      1 4K3        -0.0414
      6 C6         12.8360    7.7850    7.1500 C.ar      1 4K3         0.0651
      7 C3         14.9380    7.9340   10.1090 C.2       1 4K3         0.0136
      8 C5         15.5530    7.3850   11.1670 C.2       1 4K3        -0.0022
      9 C2         14.5060    7.1340    8.9400 C.2       1 4K3         0.2043
     10 N1         13.6430    7.9750    8.2830 N.am      1 4K3        -0.2386
     11 O7         14.8720    5.9900    8.6790 O.2       1 4K3        -0.3897
     12 S4         16.0510    5.7430   11.4590 S.3       1 4K3        -0.1056
     13 H1         10.5739    7.4958    4.0344 H         1 4K3         0.0487
     14 H2         11.2749    9.7407    4.8308 H         1 4K3         0.0577
     15 H3         11.3019    5.4858    5.2551 H         1 4K3         0.0577
     16 H4         12.7186    9.8962    6.8244 H         1 4K3         0.0502
     17 H5         12.7571    5.6425    7.2368 H         1 4K3         0.0502
     18 H6         14.7496    9.0066   10.1096 H         1 4K3         0.0487
     19 H7         15.7773    8.0798   11.9750 H         1 4K3         0.0966
     20 H8         13.5771    8.8887    8.6840 H         1 4K3         0.2241
     21 H9         16.4878    5.6817   12.3654 H         1 4K3         0.1302
@<TRIPOS>BOND
     1    2    1 ar 
     2    3    1 ar 
     3    4    2 ar 
     4    5    3 ar 
     5    6    4 ar 
     6    6    5 ar 
     7   10    6 1  
     8    7    8 2  
     9    9    7 1  
    10    8   12 1  
    11    9   10 am 
    12    9   11 2  
    13    1   13 1  
    14    2   14 1  
    15    3   15 1  
    16    4   16 1  
    17    5   17 1  
    18    7   18 1  
    19    8   19 1  
    20   10   20 1  
    21   12   21 1  
@<TRIPOS>SUBSTRUCTURE
     1 4K3         1

