### 
### Created by X-TOOL on Mon Sep 10 21:13:27 2018
### 

@<TRIPOS>MOLECULE
4yv8_ligand
   77    76     1     0     0
SMALL
GAST_HUCK


@<TRIPOS>ATOM
      1 CA        -21.6750   18.4700   -8.1360 C.3       1 AG2         0.0313
      2 CB        -22.6320   18.5750   -9.2810 C.3       1 AG2        -0.0298
      3 CG        -22.0440   19.3280  -10.4580 C.3       1 AG2        -0.0180
      4 CD        -22.7340   20.6930  -10.5670 C.3       1 AG2         0.0626
      5 NE        -23.8420   20.4390  -11.4420 N.pl3     1 AG2        -0.2723
      6 CZ        -23.5710   20.4780  -12.8450 C.cat     1 AG2         0.2882
      7 NH1       -24.6380   20.1840  -13.7250 N.pl3     1 AG2        -0.2849
      8 NH2       -22.3600   20.7400  -13.2680 N.pl3     1 AG2        -0.2849
      9 C         -20.2530   17.7930   -6.1150 C.2       1 URE         0.2597
     10 O         -19.1830   17.9360   -6.6360 O.2       1 URE        -0.4007
     11 N1        -21.4640   17.8910   -6.8330 N.am      1 URE        -0.2731
     12 N         -20.1210   17.1420   -4.8080 N.am      1 SER        -0.2496
     13 CA        -19.1240   16.2240   -4.2710 C.3       1 SER         0.1541
     14 C         -19.4930   14.7740   -4.5670 C.2       1 SER         0.2059
     15 O         -20.2040   14.1330   -3.7920 O.2       1 SER        -0.3943
     16 CB        -18.9640   16.4290   -2.7630 C.3       1 SER         0.0841
     17 OG        -20.2240   16.4430   -2.1140 O.3       1 SER        -0.3904
     18 N         -19.0050   14.2620   -5.6920 N.am      1 VAL        -0.2634
     19 CA        -19.2820   12.8870   -6.0920 C.3       1 VAL         0.1332
     20 C         -18.1930   11.9400   -5.6020 C.2       1 VAL         0.2036
     21 O         -17.0690   11.9580   -6.1020 O.2       1 VAL        -0.3944
     22 CB        -19.4100   12.7600   -7.6220 C.3       1 VAL        -0.0063
     23 CG1       -19.8850   11.3650   -8.0000 C.3       1 VAL        -0.0584
     24 CG2       -20.3570   13.8180   -8.1640 C.3       1 VAL        -0.0584
     25 N         -18.5160   11.0750   -4.4880 N.am      1 RGL        -0.2695
     26 CA        -17.5920   10.1420   -3.9410 C.3       1 RGL         0.0945
     27 C         -18.0810    8.7480   -4.1670 C.2       1 RGL         0.0601
     28 O         -17.7730    7.7760   -3.5040 O.co2     1 RGL        -0.5666
     29 CB        -17.3860   10.4390   -2.4550 C.3       1 RGL        -0.0148
     30 CG        -16.5020   11.6580   -2.2990 C.3       1 RGL        -0.0162
     31 CD        -16.3700   12.0020   -0.8340 C.3       1 RGL         0.0627
     32 NE        -15.4740   11.0330   -0.1810 N.pl3     1 RGL        -0.2723
     33 CZ        -14.7560   11.3650    0.8160 C.cat     1 RGL         0.2882
     34 NH1       -13.9580   10.4620    1.3780 N.pl3     1 RGL        -0.2849
     35 NH2       -14.7900   12.6040    1.3040 N.pl3     1 RGL        -0.2849
     36 OXT       -18.8510    8.4040   -5.0430 O.co2     1 RGL        -0.5666
     37 H1        -21.5387   19.5355   -7.8989 H         1 AG2         0.0517
     38 H2        -20.7846   18.0944   -8.6614 H         1 AG2         0.0517
     39 H3        -23.5349   19.1025   -8.9396 H         1 AG2         0.0285
     40 H4        -22.9021   17.5607   -9.6099 H         1 AG2         0.0285
     41 H5        -22.2092   18.7556  -11.3827 H         1 AG2         0.0300
     42 H6        -20.9644   19.4710  -10.3031 H         1 AG2         0.0300
     43 H7        -22.0555   21.4432  -10.9993 H         1 AG2         0.0689
     44 H8        -23.0818   21.0376   -9.5820 H         1 AG2         0.0689
     45 H9        -24.7845   20.2388  -11.0780 H         1 AG2         0.2642
     46 H10       -24.4852   20.2010  -14.7435 H         1 AG2         0.2615
     47 H11       -25.5681   19.9528  -13.3476 H         1 AG2         0.2615
     48 H12       -21.6121   20.9491  -12.5914 H         1 AG2         0.2615
     49 H13       -22.1552   20.7370  -14.2774 H         1 AG2         0.2615
     50 H14       -22.2734   17.5131   -6.3835 H         1 URE         0.1845
     51 H15       -20.8516   17.3704   -4.1645 H         1 SER         0.1878
     52 H16       -18.1606   16.4409   -4.7555 H         1 SER         0.0820
     53 H17       -18.4562   17.3879   -2.5825 H         1 SER         0.0606
     54 H18       -18.3568   15.6093   -2.3513 H         1 SER         0.0606
     55 H19       -20.6653   15.6151   -2.2637 H         1 SER         0.2097
     56 H20       -18.4330   14.8343   -6.2796 H         1 VAL         0.1883
     57 H21       -20.2370   12.5858   -5.6368 H         1 VAL         0.0802
     58 H22       -18.4179   12.9213   -8.0689 H         1 VAL         0.0343
     59 H23       -19.9711   11.2909   -9.0941 H         1 VAL         0.0234
     60 H24       -20.8666   11.1750   -7.5413 H         1 VAL         0.0234
     61 H25       -19.1608   10.6204   -7.6380 H         1 VAL         0.0234
     62 H26       -19.9935   14.8162   -7.8786 H         1 VAL         0.0234
     63 H27       -21.3618   13.6600   -7.7451 H         1 VAL         0.0234
     64 H28       -20.4010   13.7436   -9.2606 H         1 VAL         0.0234
     65 H29       -19.4291   11.1357   -4.0848 H         1 RGL         0.1875
     66 H30       -16.6264   10.2571   -4.4551 H         1 RGL         0.0726
     67 H31       -16.9066    9.5749   -1.9719 H         1 RGL         0.0307
     68 H32       -18.3602   10.6302   -1.9813 H         1 RGL         0.0307
     69 H33       -16.9505   12.5070   -2.8357 H         1 RGL         0.0301
     70 H34       -15.5068   11.4448   -2.7164 H         1 RGL         0.0301
     71 H35       -17.3608   11.9639   -0.3577 H         1 RGL         0.0689
     72 H36       -15.9524   13.0144   -0.7313 H         1 RGL         0.0689
     73 H37       -15.4274   10.0680   -0.5380 H         1 RGL         0.2642
     74 H38       -13.3737   10.7224    2.1852 H         1 RGL         0.2615
     75 H39       -13.9242    9.5021    1.0061 H         1 RGL         0.2615
     76 H40       -15.4052   13.3098    0.8748 H         1 RGL         0.2615
     77 H41       -14.2011   12.8562    2.1105 H         1 RGL         0.2615
@<TRIPOS>BOND
     1    1    2 1  
     2   11    1 1  
     3    2    3 1  
     4    3    4 1  
     5    4    5 1  
     6    5    6 ar 
     7    6    7 ar 
     8    6    8 ar 
     9    9   10 2  
    10    9   11 am 
    11    9   12 am 
    12   12   13 1  
    13   13   14 1  
    14   13   16 1  
    15   14   15 2  
    16   14   18 am 
    17   16   17 1  
    18   18   19 1  
    19   19   20 1  
    20   19   22 1  
    21   20   21 2  
    22   20   25 am 
    23   22   23 1  
    24   22   24 1  
    25   25   26 1  
    26   26   27 1  
    27   26   29 1  
    28   27   28 ar 
    29   27   36 ar 
    30   29   30 1  
    31   30   31 1  
    32   31   32 1  
    33   32   33 ar 
    34   33   34 ar 
    35   33   35 ar 
    36    1   37 1  
    37    1   38 1  
    38    2   39 1  
    39    2   40 1  
    40    3   41 1  
    41    3   42 1  
    42    4   43 1  
    43    4   44 1  
    44    5   45 1  
    45    7   46 1  
    46    7   47 1  
    47    8   48 1  
    48    8   49 1  
    49   11   50 1  
    50   12   51 1  
    51   13   52 1  
    52   16   53 1  
    53   16   54 1  
    54   17   55 1  
    55   18   56 1  
    56   19   57 1  
    57   22   58 1  
    58   23   59 1  
    59   23   60 1  
    60   23   61 1  
    61   24   62 1  
    62   24   63 1  
    63   24   64 1  
    64   25   65 1  
    65   26   66 1  
    66   29   67 1  
    67   29   68 1  
    68   30   69 1  
    69   30   70 1  
    70   31   71 1  
    71   31   72 1  
    72   32   73 1  
    73   34   74 1  
    74   34   75 1  
    75   35   76 1  
    76   35   77 1  
@<TRIPOS>SUBSTRUCTURE
     1 AG2         1

