### 
### Created by X-TOOL on Mon Sep 10 21:13:24 2018
### 

@<TRIPOS>MOLECULE
4yvc_ligand
   31    33     1     0     0
SMALL
GAST_HUCK


@<TRIPOS>ATOM
      1 C20        50.0260  100.9640   25.3840 C.ar      1 4KH        -0.0324
      2 C19        49.9720   99.9920   24.3940 C.ar      1 4KH         0.0056
      3 C17        50.5240   98.3160   25.9080 C.ar      1 4KH         0.0056
      4 C7         51.3010  103.0180   32.1940 C.2       1 4KH         0.2433
      5 C4         51.3310  101.3440   34.0620 C.ar      1 4KH         0.1541
      6 N9         51.4010  102.1230   31.1790 N.am      1 4KH        -0.1936
      7 C2         52.3690  101.8500   36.1710 C.ar      1 4KH        -0.0593
      8 C1         52.7310  103.1050   35.6920 C.ar      1 4KH        -0.0602
      9 C3         51.6750  100.9710   35.3540 C.ar      1 4KH        -0.0222
     10 C10        50.9760  102.3020   29.8650 C.2       1 4KH         0.2085
     11 C12        50.4110  101.5930   27.7980 C.2       1 4KH         0.0108
     12 C15        50.3270  100.5780   26.7100 C.ar      1 4KH        -0.0080
     13 C16        50.5780   99.2150   26.9600 C.ar      1 4KH        -0.0324
     14 C5         51.7210  102.6080   33.5580 C.ar      1 4KH         0.0917
     15 C6         52.4110  103.4960   34.4030 C.ar      1 4KH        -0.0430
     16 O8         50.8510  104.1380   32.0490 O.2       1 4KH        -0.3703
     17 N11        50.8950  101.3290   29.0110 N.2       1 4KH        -0.3131
     18 C13        50.0250  102.8740   27.6190 C.2       1 4KH         0.0134
     19 S14        50.3450  103.7660   29.1040 S.3       1 4KH         0.0234
     20 N18        50.2310   98.7190   24.6800 N.ar      1 4KH        -0.3039
     21 F21        50.6600  100.4720   33.2790 F         1 4KH        -0.1773
     22 H1         49.8399  102.0044   25.1433 H         1 4KH         0.0682
     23 H2         49.7164  100.2731   23.3787 H         1 4KH         0.0807
     24 H3         50.7245   97.2667   26.0918 H         1 4KH         0.0807
     25 H4         51.8238  101.2435   31.3972 H         1 4KH         0.2406
     26 H5         52.6294  101.5597   37.1824 H         1 4KH         0.0642
     27 H6         53.2719  103.7872   36.3379 H         1 4KH         0.0595
     28 H7         51.4004   99.9902   35.7250 H         1 4KH         0.0616
     29 H8         50.8104   98.8741   27.9624 H         1 4KH         0.0682
     30 H9         52.6906  104.4809   34.0469 H         1 4KH         0.0659
     31 H10        49.5894  103.2864   26.7101 H         1 4KH         0.0700
@<TRIPOS>BOND
     1    1    2 ar 
     2   12    1 ar 
     3    2   20 ar 
     4    3   13 ar 
     5   20    3 ar 
     6    6    4 am 
     7    4   14 1  
     8    4   16 2  
     9    5    9 ar 
    10   14    5 ar 
    11    5   21 1  
    12   10    6 1  
    13    7    8 ar 
    14    9    7 ar 
    15    8   15 ar 
    16   17   10 2  
    17   10   19 1  
    18   11   12 1  
    19   11   17 1  
    20   11   18 2  
    21   12   13 ar 
    22   14   15 ar 
    23   18   19 1  
    24    1   22 1  
    25    2   23 1  
    26    3   24 1  
    27    6   25 1  
    28    7   26 1  
    29    8   27 1  
    30    9   28 1  
    31   13   29 1  
    32   15   30 1  
    33   18   31 1  
@<TRIPOS>SUBSTRUCTURE
     1 4KH         1

