### 
### Created by X-TOOL on Mon Sep 10 21:13:25 2018
### 

@<TRIPOS>MOLECULE
4yve_ligand
   38    40     1     0     0
SMALL
GAST_HUCK


@<TRIPOS>ATOM
      1 C1         49.3180  108.1110   35.4390 C.3       1 4KK         0.0592
      2 C3         49.0530  105.6780   35.3420 C.ar      1 4KK         0.0845
      3 C4         48.0550  104.6880   35.4150 C.ar      1 4KK        -0.0398
      4 C5         48.2170  103.4570   34.7720 C.ar      1 4KK        -0.0768
      5 C6         49.3960  103.1850   34.0800 C.ar      1 4KK        -0.0690
      6 C7         50.4030  104.1500   34.0040 C.ar      1 4KK        -0.0325
      7 C8         50.2370  105.3850   34.6340 C.ar      1 4KK        -0.0298
      8 C9         51.6620  103.8880   33.2230 C.3       1 4KK         0.0759
      9 C10        51.3680  104.2180   31.7870 C.2       1 4KK         0.2264
     10 O2         48.8800  106.8700   36.0090 O.3       1 4KK        -0.3229
     11 C13        50.9510  103.2500   29.5650 C.2       1 4KK         0.2090
     12 C15        50.5970  102.3380   27.5490 C.2       1 4KK         0.0107
     13 C16        50.4730  103.6280   27.1590 C.2       1 4KK         0.0133
     14 C18        50.5230  101.1950   26.5970 C.ar      1 4KK        -0.0080
     15 O11        51.2370  105.3720   31.4500 O.2       1 4KK        -0.3770
     16 N12        51.2190  103.1890   30.9300 N.am      1 4KK        -0.1920
     17 N14        50.8670  102.1800   28.8370 N.2       1 4KK        -0.3132
     18 S17        50.7100  104.6840   28.5520 S.3       1 4KK         0.0234
     19 C19        50.3220  101.4100   25.2190 C.ar      1 4KK        -0.0325
     20 C20        50.2840  100.3270   24.3560 C.ar      1 4KK         0.0056
     21 N21        50.4790   99.0960   24.7990 N.ar      1 4KK        -0.3039
     22 C22        50.7100   98.8530   26.0800 C.ar      1 4KK         0.0056
     23 C23        50.7410   99.8720   27.0220 C.ar      1 4KK        -0.0325
     24 H1         49.0857  108.9343   36.1305 H         1 4KK         0.0577
     25 H2         48.8005  108.2782   34.4828 H         1 4KK         0.0577
     26 H3         50.4037  108.0724   35.2665 H         1 4KK         0.0577
     27 H4         47.1488  104.8826   35.9772 H         1 4KK         0.0488
     28 H5         47.4272  102.7156   34.8116 H         1 4KK         0.0573
     29 H6         49.5317  102.2226   33.5999 H         1 4KK         0.0468
     30 H7         51.0262  106.1261   34.5783 H         1 4KK         0.0482
     31 H8         51.9503  102.8305   33.3157 H         1 4KK         0.0665
     32 H9         52.4774  104.5245   33.5970 H         1 4KK         0.0665
     33 H10        50.2603  103.9617   26.1445 H         1 4KK         0.0699
     34 H11        51.3119  102.2731   31.3205 H         1 4KK         0.2413
     35 H12        50.1979  102.4167   24.8365 H         1 4KK         0.0682
     36 H13        50.0916  100.4908   23.3019 H         1 4KK         0.0807
     37 H14        50.8793   97.8317   26.4014 H         1 4KK         0.0807
     38 H15        50.9298   99.6521   28.0665 H         1 4KK         0.0682
@<TRIPOS>BOND
     1   10    1 1  
     2    2    3 ar 
     3    7    2 ar 
     4    2   10 1  
     5    4    3 ar 
     6    5    4 ar 
     7    6    5 ar 
     8    6    7 ar 
     9    8    6 1  
    10    9    8 1  
    11    9   15 2  
    12   16    9 am 
    13   11   16 1  
    14   17   11 2  
    15   11   18 1  
    16   12   13 2  
    17   12   14 1  
    18   12   17 1  
    19   13   18 1  
    20   14   19 ar 
    21   14   23 ar 
    22   19   20 ar 
    23   20   21 ar 
    24   21   22 ar 
    25   22   23 ar 
    26    1   24 1  
    27    1   25 1  
    28    1   26 1  
    29    3   27 1  
    30    4   28 1  
    31    5   29 1  
    32    7   30 1  
    33    8   31 1  
    34    8   32 1  
    35   13   33 1  
    36   16   34 1  
    37   19   35 1  
    38   20   36 1  
    39   22   37 1  
    40   23   38 1  
@<TRIPOS>SUBSTRUCTURE
     1 4KK         1

