### 
### Created by X-TOOL on Mon Sep 10 21:13:23 2018
### 

@<TRIPOS>MOLECULE
4yw2_ligand
   60    61     1     0     0
SMALL
GAST_HUCK


@<TRIPOS>ATOM
      1 C1         26.6890  -15.1890   50.4750 C.2       1 SIA         0.1041
      2 C2         25.6490  -14.3590   51.1810 C.3       1 SIA         0.2204
      3 C3         26.2360  -13.5350   52.3360 C.3       1 SIA         0.0353
      4 C4         27.0100  -12.3430   51.8010 C.3       1 SIA         0.0850
      5 C5         26.1020  -11.5340   50.8810 C.3       1 SIA         0.0964
      6 C6         25.6030  -12.4080   49.7350 C.3       1 SIA         0.1143
      7 C7         24.5880  -11.7370   48.8050 C.3       1 SIA         0.1114
      8 C8         24.0080  -12.7070   47.7950 C.3       1 SIA         0.1065
      9 C9         23.5450  -11.9170   46.5820 C.3       1 SIA         0.0727
     10 C10        26.3800   -9.1900   50.1490 C.2       1 SIA         0.1733
     11 C11        27.3480   -8.1520   49.6220 C.3       1 SIA         0.0257
     12 N5         26.8490  -10.4290   50.3070 N.am      1 SIA        -0.2790
     13 O1A        26.6700  -15.2220   49.2320 O.co2     1 SIA        -0.5426
     14 O1B        27.4880  -15.8680   51.1610 O.co2     1 SIA        -0.5426
     15 O2         24.6630  -15.2890   51.6950 O.3       1 SIA        -0.3441
     16 O4         27.5020  -11.5460   52.8870 O.3       1 SIA        -0.3893
     17 O6         24.9290  -13.5450   50.2380 O.3       1 SIA        -0.3384
     18 O7         23.5360  -11.1820   49.6040 O.3       1 SIA        -0.3865
     19 O8         24.9840  -13.6750   47.3810 O.3       1 SIA        -0.3869
     20 O9         22.5410  -12.6890   45.9550 O.3       1 SIA        -0.3924
     21 O10        25.2390   -8.8670   50.4410 O.2       1 SIA        -0.3974
     22 C1         20.7370  -16.0900   52.3640 C.3       1 GAL         0.1854
     23 C2         20.1470  -17.4630   52.0220 C.3       1 GAL         0.1339
     24 C3         21.1810  -18.6030   52.0650 C.3       1 GAL         0.1141
     25 C4         22.4880  -18.2280   51.3950 C.3       1 GAL         0.1119
     26 C5         22.9330  -16.8920   51.9320 C.3       1 GAL         0.1132
     27 C6         24.2370  -16.5130   51.2750 C.3       1 GAL         0.0786
     28 O1         19.8280  -15.0310   52.0280 O.3       1 GAL        -0.3649
     29 O2         19.1040  -17.7360   52.9610 O.3       1 GAL        -0.3841
     30 O3         20.6950  -19.7660   51.3920 O.3       1 GAL        -0.3864
     31 O4         22.3120  -18.0940   49.9850 O.3       1 GAL        -0.3865
     32 O5         21.9460  -15.9000   51.6330 O.3       1 GAL        -0.3407
     33 H1         26.9127  -14.1703   52.9263 H         1 SIA         0.0336
     34 H2         25.4173  -13.1764   52.9772 H         1 SIA         0.0336
     35 H3         27.8691  -12.7066   51.2182 H         1 SIA         0.0618
     36 H4         25.2468  -11.1493   51.4559 H         1 SIA         0.0608
     37 H5         26.4766  -12.7212   49.1446 H         1 SIA         0.0646
     38 H6         25.0926  -10.9265   48.2588 H         1 SIA         0.0647
     39 H7         23.1514  -13.2299   48.2454 H         1 SIA         0.0643
     40 H8         24.3857  -11.7551   45.8913 H         1 SIA         0.0584
     41 H9         23.1358  -10.9454   46.8957 H         1 SIA         0.0584
     42 H10        26.8364   -7.1817   49.5401 H         1 SIA         0.0467
     43 H11        27.7116   -8.4596   48.6304 H         1 SIA         0.0467
     44 H12        28.1993   -8.0605   50.3125 H         1 SIA         0.0467
     45 H13        27.7857  -10.6104   50.0075 H         1 SIA         0.1856
     46 H14        27.9987  -10.8137   52.5413 H         1 SIA         0.2099
     47 H15        22.9223  -10.7226   49.0428 H         1 SIA         0.2100
     48 H16        25.2763  -14.1714   48.1365 H         1 SIA         0.2100
     49 H17        22.2223  -12.2288   45.1874 H         1 SIA         0.2095
     50 H18        20.9504  -16.0520   53.4424 H         1 SIA         0.0935
     51 H19        19.7236  -17.4195   51.0077 H         1 SIA         0.0671
     52 H20        21.3763  -18.8483   53.1194 H         1 SIA         0.0648
     53 H21        23.2468  -18.9961   51.6054 H         1 SIA         0.0647
     54 H22        23.0711  -16.9579   53.0213 H         1 SIA         0.0647
     55 H23        24.9987  -17.2647   51.5294 H         1 SIA         0.0586
     56 H24        24.0955  -16.4889   50.1844 H         1 SIA         0.0586
     57 H25        20.2178  -14.1957   52.2578 H         1 SIA         0.2126
     58 H26        18.4650  -17.0335   52.9359 H         1 SIA         0.2101
     59 H27        20.5596  -19.5655   50.4733 H         1 SIA         0.2100
     60 H28        22.0307  -18.9255   49.6217 H         1 SIA         0.2100
@<TRIPOS>BOND
     1    2    1 1  
     2    1   13 ar 
     3    1   14 ar 
     4    2    3 1  
     5   15    2 1  
     6    2   17 1  
     7    3    4 1  
     8    4    5 1  
     9    4   16 1  
    10    6    5 1  
    11    5   12 1  
    12    6    7 1  
    13   17    6 1  
    14    7    8 1  
    15    7   18 1  
    16    8    9 1  
    17    8   19 1  
    18    9   20 1  
    19   10   11 1  
    20   12   10 am 
    21   10   21 2  
    22   27   15 1  
    23   23   22 1  
    24   22   28 1  
    25   22   32 1  
    26   24   23 1  
    27   23   29 1  
    28   25   24 1  
    29   24   30 1  
    30   26   25 1  
    31   25   31 1  
    32   26   27 1  
    33   26   32 1  
    34    3   33 1  
    35    3   34 1  
    36    4   35 1  
    37    5   36 1  
    38    6   37 1  
    39    7   38 1  
    40    8   39 1  
    41    9   40 1  
    42    9   41 1  
    43   11   42 1  
    44   11   43 1  
    45   11   44 1  
    46   12   45 1  
    47   16   46 1  
    48   18   47 1  
    49   19   48 1  
    50   20   49 1  
    51   22   50 1  
    52   23   51 1  
    53   24   52 1  
    54   25   53 1  
    55   26   54 1  
    56   27   55 1  
    57   27   56 1  
    58   28   57 1  
    59   29   58 1  
    60   30   59 1  
    61   31   60 1  
@<TRIPOS>SUBSTRUCTURE
     1 SIA         1

