### 
### Created by X-TOOL on Mon Sep 10 21:13:23 2018
### 

@<TRIPOS>MOLECULE
4yw6_ligand
   70    72     1     0     0
SMALL
GAST_HUCK


@<TRIPOS>ATOM
      1 C12       -10.2370   13.6910   54.8850 C.3       1 G0P         0.0340
      2 C13       -10.7830   13.5840   53.4730 C.3       1 G0P        -0.0307
      3 C14        -9.9890   12.4100   52.9540 C.3       1 G0P        -0.0307
      4 C15        -8.6250   12.6120   53.6320 C.3       1 G0P         0.0340
      5 N16        -8.8130   13.5760   54.6980 N.am      1 G0P        -0.2713
      6 C17        -7.7570   14.2940   55.4430 C.2       1 G0P         0.2040
      7 O18        -8.0370   15.0740   56.3300 O.2       1 G0P        -0.3943
      8 C19        -6.3020   14.0000   55.1000 C.3       1 G0P         0.1303
      9 C20        -5.6080   13.4030   56.3370 C.3       1 G0P        -0.0123
     10 C21        -4.8320   14.4040   57.2210 C.3       1 G0P        -0.0440
     11 C22        -5.1760   14.2070   58.7210 C.3       1 G0P        -0.0124
     12 C23        -4.0090   13.6030   59.4950 C.3       1 G0P        -0.0354
     13 N24        -4.4630   13.0900   60.7540 N.4       1 G0P         0.2185
     14 N25        -5.5640   15.0930   54.5140 N.am      1 G0P        -0.2665
     15 C26        -4.4680   14.6880   53.6740 C.2       1 G0P         0.1990
     16 O27        -4.2970   13.4910   53.5640 O.2       1 G0P        -0.3896
     17 C28        -3.4600   15.5420   52.8760 C.ar      1 G0P         0.0386
     18 C29        -3.5380   17.0340   52.5360 C.ar      1 G0P        -0.0504
     19 C30        -2.5310   17.6130   51.7780 C.ar      1 G0P        -0.0268
     20 C31        -1.3790   16.7490   51.3040 C.ar      1 G0P         0.1001
     21 C32        -1.3300   15.4380   51.5960 C.ar      1 G0P        -0.0268
     22 C33        -2.4260   14.8060   52.4150 C.ar      1 G0P        -0.0504
     23 O34        -0.2560   17.1930   50.5110 O.3       1 G0P        -0.2814
     24 C35        -0.3360   18.4390   49.8550 C.3       1 G0P         0.2107
     25 O36        -1.2320   18.3510   48.7610 O.3       1 G0P        -0.3367
     26 C37        -1.3560   19.6070   48.1190 C.3       1 G0P         0.1134
     27 C38        -2.3600   19.4390   47.0080 C.3       1 G0P         0.0730
     28 O39        -3.6180   19.1050   47.5600 O.3       1 G0P        -0.3924
     29 C40        -0.0340   20.0960   47.5640 C.3       1 G0P         0.1119
     30 O41         0.4570   19.2720   46.5240 O.3       1 G0P        -0.3865
     31 C42         1.0000   20.0990   48.6680 C.3       1 G0P         0.1145
     32 O43         2.2490   20.3400   48.0950 O.3       1 G0P        -0.3864
     33 C44         1.0360   18.7650   49.3590 C.3       1 G0P         0.1387
     34 O45         1.9590   18.8090   50.4280 O.3       1 G0P        -0.3837
     35 H1        -10.6185   12.8764   55.5181 H         1 G0P         0.0522
     36 H2        -10.4984   14.6594   55.3365 H         1 G0P         0.0522
     37 H3        -10.5845   14.4963   52.8915 H         1 G0P         0.0285
     38 H4        -11.8630   13.3755   53.4708 H         1 G0P         0.0285
     39 H5         -9.8981   12.4437   51.8583 H         1 G0P         0.0285
     40 H6        -10.4460   11.4557   53.2549 H         1 G0P         0.0285
     41 H7         -7.8951   12.9941   52.9032 H         1 G0P         0.0522
     42 H8         -8.2652   11.6584   54.0458 H         1 G0P         0.0522
     43 H9         -6.3192   13.2118   54.3329 H         1 G0P         0.0799
     44 H10        -4.8975   12.6386   55.9894 H         1 G0P         0.0312
     45 H11        -6.3799   12.9293   56.9613 H         1 G0P         0.0312
     46 H12        -5.0987   15.4286   56.9228 H         1 G0P         0.0269
     47 H13        -3.7526   14.2493   57.0766 H         1 G0P         0.0269
     48 H14        -6.0430   13.5349   58.8022 H         1 G0P         0.0317
     49 H15        -5.4269   15.1839   59.1601 H         1 G0P         0.0317
     50 H16        -3.2495   14.3789   59.6714 H         1 G0P         0.0813
     51 H17        -3.5677   12.7847   58.9071 H         1 G0P         0.0813
     52 H18        -3.6838   12.6938   61.2560 H         1 G0P         0.1994
     53 H19        -5.1580   12.3773   60.5955 H         1 G0P         0.1994
     54 H20        -4.8664   13.8381   61.2959 H         1 G0P         0.1994
     55 H21        -5.7950   16.0520   54.6780 H         1 G0P         0.1873
     56 H22        -4.3725   17.6316   52.8847 H         1 G0P         0.0642
     57 H23        -2.5672   18.6672   51.5283 H         1 G0P         0.0556
     58 H24        -0.5017   14.8348   51.2422 H         1 G0P         0.0556
     59 H25        -2.3836   13.7458   52.6371 H         1 G0P         0.0642
     60 H26        -0.6812   19.2145   50.5545 H         1 G0P         0.0995
     61 H27        -1.7276   20.3478   48.8422 H         1 G0P         0.0647
     62 H28        -2.0301   18.6353   46.3333 H         1 G0P         0.0584
     63 H29        -2.4445   20.3797   46.4441 H         1 G0P         0.0584
     64 H30        -3.5433   18.2927   48.0469 H         1 G0P         0.2095
     65 H31        -0.1692   21.1176   47.1792 H         1 G0P         0.0647
     66 H32        -0.1711   19.2553   45.8114 H         1 G0P         0.2100
     67 H33         0.7612   20.8865   49.3979 H         1 G0P         0.0648
     68 H34         2.4447   19.6559   47.4656 H         1 G0P         0.2100
     69 H35         1.3537   17.9922   48.6436 H         1 G0P         0.0675
     70 H36         1.9792   17.9644   50.8624 H         1 G0P         0.2101
@<TRIPOS>BOND
     1    1    2 1  
     2    1    5 1  
     3    2    3 1  
     4    3    4 1  
     5    4    5 1  
     6    5    6 am 
     7    6    7 2  
     8    6    8 1  
     9    8    9 1  
    10    8   14 1  
    11    9   10 1  
    12   10   11 1  
    13   11   12 1  
    14   12   13 1  
    15   14   15 am 
    16   15   16 2  
    17   15   17 1  
    18   17   18 ar 
    19   17   22 ar 
    20   18   19 ar 
    21   19   20 ar 
    22   20   21 ar 
    23   20   23 1  
    24   21   22 ar 
    25   23   24 1  
    26   24   25 1  
    27   24   33 1  
    28   25   26 1  
    29   26   27 1  
    30   26   29 1  
    31   27   28 1  
    32   29   30 1  
    33   29   31 1  
    34   31   32 1  
    35   31   33 1  
    36   33   34 1  
    37    1   35 1  
    38    1   36 1  
    39    2   37 1  
    40    2   38 1  
    41    3   39 1  
    42    3   40 1  
    43    4   41 1  
    44    4   42 1  
    45    8   43 1  
    46    9   44 1  
    47    9   45 1  
    48   10   46 1  
    49   10   47 1  
    50   11   48 1  
    51   11   49 1  
    52   12   50 1  
    53   12   51 1  
    54   13   52 1  
    55   13   53 1  
    56   13   54 1  
    57   14   55 1  
    58   18   56 1  
    59   19   57 1  
    60   21   58 1  
    61   22   59 1  
    62   24   60 1  
    63   26   61 1  
    64   27   62 1  
    65   27   63 1  
    66   28   64 1  
    67   29   65 1  
    68   30   66 1  
    69   31   67 1  
    70   32   68 1  
    71   33   69 1  
    72   34   70 1  
@<TRIPOS>SUBSTRUCTURE
     1 G0P         1

