### 
### Created by X-TOOL on Mon Sep 10 21:13:26 2018
### 

@<TRIPOS>MOLECULE
4yx4_ligand
   17    17     1     0     0
SMALL
GAST_HUCK


@<TRIPOS>ATOM
      1 C01        -1.1430    6.4730   84.4120 C.ar      1 FB2        -0.0616
      2 C02        -2.4720    6.4170   84.7710 C.ar      1 FB2        -0.0599
      3 C03        -2.9690    5.3280   85.4680 C.ar      1 FB2        -0.0351
      4 C04        -2.1100    4.2940   85.8060 C.ar      1 FB2         0.1079
      5 C05        -0.7730    4.3350   85.4400 C.ar      1 FB2        -0.0351
      6 C06        -0.2980    5.4340   84.7430 C.ar      1 FB2        -0.0599
      7 S07        -2.7160    2.9340   86.7620 S.o2      1 FB2         0.0659
      8 O09        -4.1410    2.9110   86.6050 O.2       1 FB2        -0.1505
      9 O08        -2.1710    3.0770   88.0790 O.2       1 FB2        -0.1505
     10 NP0        -2.1010    1.6270   86.1490 N.am      1 FB2        -0.2609
     11 H1         -0.7622    7.3315   83.8707 H         1 FB2         0.0618
     12 H2         -3.1348    7.2327   84.5056 H         1 FB2         0.0618
     13 H3         -4.0160    5.2850   85.7455 H         1 FB2         0.0637
     14 H4         -0.1083    3.5178   85.6959 H         1 FB2         0.0637
     15 H5          0.7462    5.4779   84.4554 H         1 FB2         0.0618
     16 H6         -2.3202    0.7365   86.5478 H         1 FB2         0.1635
     17 H7         -1.4899    1.6845   85.3596 H         1 FB2         0.1635
@<TRIPOS>BOND
     1    1    2 ar 
     2    1    6 ar 
     3    2    3 ar 
     4    3    4 ar 
     5    4    5 ar 
     6    4    7 1  
     7    5    6 ar 
     8    7    8 2  
     9    7    9 2  
    10    7   10 am 
    11    1   11 1  
    12    2   12 1  
    13    3   13 1  
    14    5   14 1  
    15    6   15 1  
    16   10   16 1  
    17   10   17 1  
@<TRIPOS>SUBSTRUCTURE
     1 FB2         1

