### 
### Created by X-TOOL on Mon Sep 10 21:13:21 2018
### 

@<TRIPOS>MOLECULE
4yx9_ligand
   29    30     1     0     0
SMALL
GAST_HUCK


@<TRIPOS>ATOM
      1 C1        -23.3610   28.1500   34.8590 C.ar      1 4HY        -0.0345
      2 C2        -22.2150   25.7150   30.6170 C.ar      1 4HY         0.1079
      3 C3        -23.4570   26.7770   34.7040 C.ar      1 4HY        -0.0527
      4 C4        -22.3390   24.9210   29.4850 C.ar      1 4HY        -0.0257
      5 C5        -23.4260   26.2350   33.4340 C.ar      1 4HY         0.0383
      6 C6        -21.2740   24.2090   28.9570 C.ar      1 4HY         0.0300
      7 C7        -23.2930   27.0260   32.3190 C.ar      1 4HY         0.1290
      8 C8        -20.0540   24.2840   29.5800 C.ar      1 4HY         0.0884
      9 C9        -23.2190   28.4240   32.4850 C.ar      1 4HY         0.0383
     10 C10       -19.9120   25.0660   30.7180 C.ar      1 4HY        -0.0376
     11 C11       -23.2510   28.9680   33.7510 C.ar      1 4HY        -0.0527
     12 C12       -20.9890   25.7680   31.2470 C.ar      1 4HY        -0.0340
     13 C13       -23.4100   28.7760   36.2510 C.3       1 4HY         0.0299
     14 C14       -24.7450   29.4300   36.5250 C.2       1 4HY         0.0448
     15 I1        -23.5470   24.0830   33.1670 I         1 4HY        -0.0569
     16 I2        -21.5730   23.0510   27.2680 I         1 4HY        -0.0593
     17 I3        -23.0300   29.7830   30.8470 I         1 4HY        -0.0569
     18 O3        -25.0540   30.5290   35.9150 O.co2     1 4HY        -0.5667
     19 O2        -23.2970   26.3970   31.0660 O.3       1 4HY        -0.2643
     20 O1        -18.9690   23.5710   29.0860 O.3       1 4HY        -0.3376
     21 O4        -25.5730   28.8820   37.3380 O.co2     1 4HY        -0.5667
     22 H1        -23.5555   26.1340   35.5711 H         1 4HY         0.0584
     23 H2        -23.3044   24.8556   28.9962 H         1 4HY         0.0555
     24 H3        -18.9445   25.1304   31.2026 H         1 4HY         0.0525
     25 H4        -23.1896   30.0428   33.8780 H         1 4HY         0.0584
     26 H5        -20.8659   26.3543   32.1504 H         1 4HY         0.0548
     27 H6        -22.6186   29.5361   36.3278 H         1 4HY         0.0569
     28 H7        -23.2377   27.9902   37.0012 H         1 4HY         0.0569
     29 H8        -18.2694   24.1743   28.8644 H         1 4HY         0.2458
@<TRIPOS>BOND
     1    3    1 ar 
     2    1   11 ar 
     3    1   13 1  
     4    2    4 ar 
     5    2   12 ar 
     6   19    2 1  
     7    5    3 ar 
     8    4    6 ar 
     9    7    5 ar 
    10    5   15 1  
    11    6    8 ar 
    12    6   16 1  
    13    7    9 ar 
    14    7   19 1  
    15    8   10 ar 
    16    8   20 1  
    17    9   11 ar 
    18    9   17 1  
    19   10   12 ar 
    20   13   14 1  
    21   14   18 ar 
    22   14   21 ar 
    23    3   22 1  
    24    4   23 1  
    25   10   24 1  
    26   11   25 1  
    27   12   26 1  
    28   13   27 1  
    29   13   28 1  
    30   20   29 1  
@<TRIPOS>SUBSTRUCTURE
     1 4HY         1

