### 
### Created by X-TOOL on Mon Sep 10 21:13:29 2018
### 

@<TRIPOS>MOLECULE
4yxd_ligand
   39    40     1     0     0
SMALL
GAST_HUCK


@<TRIPOS>ATOM
      1 N         -20.2530  -24.0300   61.1400 N.am      1 FTN        -0.2321
      2 C1        -22.3350  -27.0410   58.8570 C.3       1 FTN         0.3787
      3 F1        -21.0700  -26.7180   58.6900 F         1 FTN        -0.2201
      4 O1        -20.0940  -26.2700   60.8430 O.2       1 FTN        -0.3617
      5 C2        -23.0160  -26.1520   59.8650 C.ar      1 FTN         0.0659
      6 F2        -22.3480  -28.2860   59.2870 F         1 FTN        -0.2201
      7 O2        -16.7110  -20.8000   60.8030 O.3       1 FTN        -0.3192
      8 C3        -22.2740  -25.3070   60.8430 C.ar      1 FTN         0.0852
      9 F3        -22.9780  -26.9520   57.7060 F         1 FTN        -0.2201
     10 C4        -23.0170  -24.5350   61.7370 C.ar      1 FTN        -0.0129
     11 C5        -24.4070  -24.5430   61.7180 C.ar      1 FTN        -0.0289
     12 C6        -25.0940  -25.3290   60.8090 C.ar      1 FTN        -0.0284
     13 C7        -24.4050  -26.1180   59.8970 C.ar      1 FTN        -0.0271
     14 C8        -20.7680  -25.2440   60.9400 C.2       1 FTN         0.2504
     15 C9        -18.8990  -23.7210   61.3190 C.ar      1 FTN         0.0574
     16 C10       -18.4650  -22.4430   60.9710 C.ar      1 FTN        -0.0138
     17 C11       -17.1350  -22.0680   61.1710 C.ar      1 FTN         0.0780
     18 C12       -16.2450  -22.9870   61.7350 C.ar      1 FTN        -0.0482
     19 C13       -16.6760  -24.2570   62.1060 C.ar      1 FTN        -0.0836
     20 C14       -18.0040  -24.6240   61.9060 C.ar      1 FTN        -0.0520
     21 C15       -15.9820  -19.9000   61.6710 C.3       1 FTN         0.0753
     22 C16       -14.6720  -19.4700   61.0070 C.3       1 FTN        -0.0346
     23 C17       -16.8430  -18.6890   62.0400 C.3       1 FTN        -0.0346
     24 H1        -20.8971  -23.2654   61.1645 H         1 FTN         0.2257
     25 H2        -22.4996  -23.9163   62.4613 H         1 FTN         0.0752
     26 H3        -24.9576  -23.9285   62.4210 H         1 FTN         0.0863
     27 H4        -26.1780  -25.3287   60.8089 H         1 FTN         0.0728
     28 H5        -24.9647  -26.7225   59.1924 H         1 FTN         0.0867
     29 H6        -19.1650  -21.7352   60.5420 H         1 FTN         0.0420
     30 H7        -15.2085  -22.7073   61.8848 H         1 FTN         0.0419
     31 H8        -15.9793  -24.9590   62.5497 H         1 FTN         0.0552
     32 H9        -18.3451  -25.6086   62.2046 H         1 FTN         0.0415
     33 H10       -15.7357  -20.4385   62.5980 H         1 FTN         0.0644
     34 H11       -14.1285  -18.7871   61.6765 H         1 FTN         0.0258
     35 H12       -14.8924  -18.9563   60.0596 H         1 FTN         0.0258
     36 H13       -14.0534  -20.3574   60.8077 H         1 FTN         0.0258
     37 H14       -16.2707  -18.0193   62.6988 H         1 FTN         0.0258
     38 H15       -17.7499  -19.0291   62.5614 H         1 FTN         0.0258
     39 H16       -17.1269  -18.1485   61.1250 H         1 FTN         0.0258
@<TRIPOS>BOND
     1    1   14 am 
     2   15    1 1  
     3    2    3 1  
     4    5    2 1  
     5    2    6 1  
     6    2    9 1  
     7   14    4 2  
     8    8    5 ar 
     9    5   13 ar 
    10   17    7 1  
    11    7   21 1  
    12    8   10 ar 
    13   14    8 1  
    14   10   11 ar 
    15   11   12 ar 
    16   13   12 ar 
    17   16   15 ar 
    18   15   20 ar 
    19   16   17 ar 
    20   17   18 ar 
    21   18   19 ar 
    22   19   20 ar 
    23   21   22 1  
    24   21   23 1  
    25    1   24 1  
    26   10   25 1  
    27   11   26 1  
    28   12   27 1  
    29   13   28 1  
    30   16   29 1  
    31   18   30 1  
    32   19   31 1  
    33   20   32 1  
    34   21   33 1  
    35   22   34 1  
    36   22   35 1  
    37   22   36 1  
    38   23   37 1  
    39   23   38 1  
    40   23   39 1  
@<TRIPOS>SUBSTRUCTURE
     1 FTN         1

