### 
### Created by X-TOOL on Mon Sep 10 21:13:25 2018
### 

@<TRIPOS>MOLECULE
4yxi_ligand
   20    20     1     0     0
SMALL
GAST_HUCK


@<TRIPOS>ATOM
      1 C1         -1.1120    4.6970   84.6020 C.ar      1 4J8        -0.0460
      2 C2         -0.3140    3.6280   84.9820 C.ar      1 4J8        -0.0588
      3 C4         -2.1690    2.5470   86.0310 C.ar      1 4J8         0.1009
      4 C6         -2.4560    4.6600   84.9470 C.ar      1 4J8        -0.0588
      5 O1         -4.2550    1.2680   86.8560 O.2       1 4J8        -0.1514
      6 S          -2.8330    1.2080   86.9890 S.o2      1 4J8         0.0628
      7 O          -2.2880    1.3330   88.3180 O.2       1 4J8        -0.1514
      8 N          -2.3150   -0.1590   86.3580 N.am      1 4J8        -0.2617
      9 C3         -0.8270    2.5540   85.6930 C.ar      1 4J8        -0.0420
     10 C5         -2.9940    3.5960   85.6550 C.ar      1 4J8        -0.0420
     11 C          -0.5390    5.8690   83.8470 C.3       1 4J8        -0.0311
     12 H1          0.7370    3.6324   84.7164 H         1 4J8         0.0557
     13 H2         -3.1000    5.4820   84.6562 H         1 4J8         0.0557
     14 H3         -2.5858   -1.0316   86.7645 H         1 4J8         0.1634
     15 H4         -1.7189   -0.1449   85.5552 H         1 4J8         0.1634
     16 H5         -0.1846    1.7296   85.9807 H         1 4J8         0.0619
     17 H6         -4.0472    3.5845   85.9115 H         1 4J8         0.0619
     18 H7          0.5347    5.7040   83.6737 H         1 4J8         0.0391
     19 H8         -0.6784    6.7878   84.4355 H         1 4J8         0.0391
     20 H9         -1.0550    5.9705   82.8808 H         1 4J8         0.0391
@<TRIPOS>BOND
     1    2    1 ar 
     2    1    4 ar 
     3    1   11 1  
     4    9    2 ar 
     5    3    6 1  
     6    3    9 ar 
     7    3   10 ar 
     8    4   10 ar 
     9    6    5 2  
    10    6    7 2  
    11    6    8 am 
    12    2   12 1  
    13    4   13 1  
    14    8   14 1  
    15    8   15 1  
    16    9   16 1  
    17   10   17 1  
    18   11   18 1  
    19   11   19 1  
    20   11   20 1  
@<TRIPOS>SUBSTRUCTURE
     1 4J8         1

