### 
### Created by X-TOOL on Mon Sep 10 21:13:26 2018
### 

@<TRIPOS>MOLECULE
4yxo_ligand
   23    23     1     0     0
SMALL
GAST_HUCK


@<TRIPOS>ATOM
      1 O1        -29.3120    0.1630   84.6060 O.2       1 4JC        -0.1514
      2 S         -28.4570    1.2740   84.3150 S.o2      1 4JC         0.0628
      3 O         -29.0510    2.5130   83.8960 O.2       1 4JC        -0.1514
      4 N         -27.6090    1.5740   85.6440 N.am      1 4JC        -0.2617
      5 C5        -27.3430    0.7600   83.0450 C.ar      1 4JC         0.1009
      6 C4        -26.8380    1.6860   82.1480 C.ar      1 4JC        -0.0420
      7 C3        -25.9650    1.2670   81.1610 C.ar      1 4JC        -0.0585
      8 C6        -26.9800   -0.5720   82.9560 C.ar      1 4JC        -0.0420
      9 C7        -26.1060   -0.9720   81.9630 C.ar      1 4JC        -0.0585
     10 C2        -25.5880   -0.0630   81.0540 C.ar      1 4JC        -0.0432
     11 C1        -24.6380   -0.5130   79.9640 C.3       1 4JC        -0.0220
     12 C         -24.5320    0.4480   78.8090 C.3       1 4JC        -0.0554
     13 H1        -27.1128    0.8341   86.0982 H         1 4JC         0.1634
     14 H2        -27.5767    2.5009   86.0180 H         1 4JC         0.1634
     15 H3        -27.1242    2.7291   82.2188 H         1 4JC         0.0619
     16 H4        -25.5684    1.9911   80.4585 H         1 4JC         0.0557
     17 H5        -27.3775   -1.2953   83.6587 H         1 4JC         0.0619
     18 H6        -25.8205   -2.0154   81.8938 H         1 4JC         0.0557
     19 H7        -24.9888   -1.4812   79.5773 H         1 4JC         0.0423
     20 H8        -23.6379   -0.6350   80.4054 H         1 4JC         0.0423
     21 H9        -23.8265    0.0502   78.0646 H         1 4JC         0.0252
     22 H10       -24.1705    1.4209   79.1734 H         1 4JC         0.0252
     23 H11       -25.5214    0.5747   78.3454 H         1 4JC         0.0252
@<TRIPOS>BOND
     1    1    2 2  
     2    2    3 2  
     3    2    4 am 
     4    2    5 1  
     5    5    6 ar 
     6    5    8 ar 
     7    6    7 ar 
     8    7   10 ar 
     9    8    9 ar 
    10    9   10 ar 
    11   10   11 1  
    12   11   12 1  
    13    4   13 1  
    14    4   14 1  
    15    6   15 1  
    16    7   16 1  
    17    8   17 1  
    18    9   18 1  
    19   11   19 1  
    20   11   20 1  
    21   12   21 1  
    22   12   22 1  
    23   12   23 1  
@<TRIPOS>SUBSTRUCTURE
     1 4JC         1

