### 
### Created by X-TOOL on Mon Sep 10 21:13:26 2018
### 

@<TRIPOS>MOLECULE
4yxu_ligand
   26    26     1     0     0
SMALL
GAST_HUCK


@<TRIPOS>ATOM
      1 C1         17.7280    1.0490   78.4780 C.3       1 4JE        -0.0461
      2 C5         15.8020    2.6030   82.0840 C.ar      1 4JE        -0.0420
      3 C2         18.0600    0.5140   79.8570 C.3       1 4JE        -0.0194
      4 C8         16.5270   -0.0450   81.7770 C.ar      1 4JE        -0.0585
      5 C3         17.0740    0.9090   80.9310 C.ar      1 4JE        -0.0429
      6 O1         13.5060    3.3200   83.7680 O.2       1 4JE        -0.1514
      7 S          14.1370    2.1050   84.1920 S.o2      1 4JE         0.0628
      8 O          13.3220    0.9650   84.4830 O.2       1 4JE        -0.1514
      9 N          14.9700    2.4460   85.5160 N.am      1 4JE        -0.2617
     10 C6         15.2690    1.6350   82.9180 C.ar      1 4JE         0.1009
     11 C4         16.6980    2.2330   81.0990 C.ar      1 4JE        -0.0585
     12 C7         15.6270    0.3060   82.7660 C.ar      1 4JE        -0.0420
     13 C          18.7540    0.6660   77.4290 C.3       1 4JE        -0.0635
     14 H1         17.6749    2.1464   78.5316 H         1 4JE         0.0285
     15 H2         16.7497    0.6490   78.1734 H         1 4JE         0.0285
     16 H3         15.5189    3.6426   82.2026 H         1 4JE         0.0619
     17 H4         19.0520    0.8929   80.1439 H         1 4JE         0.0426
     18 H5         18.0886   -0.5843   79.8028 H         1 4JE         0.0426
     19 H6         16.8105   -1.0847   81.6604 H         1 4JE         0.0557
     20 H7         15.6062    3.2175   85.5216 H         1 4JE         0.1634
     21 H8         14.8541    1.8875   86.3374 H         1 4JE         0.1634
     22 H9         17.1143    2.9915   80.4460 H         1 4JE         0.0557
     23 H10        15.2056   -0.4520   83.4163 H         1 4JE         0.0619
     24 H11        18.4562    1.0828   76.4556 H         1 4JE         0.0231
     25 H12        18.8124   -0.4300   77.3561 H         1 4JE         0.0231
     26 H13        19.7376    1.0674   77.7143 H         1 4JE         0.0231
@<TRIPOS>BOND
     1    3    1 1  
     2    1   13 1  
     3   10    2 ar 
     4    2   11 ar 
     5    5    3 1  
     6    5    4 ar 
     7    4   12 ar 
     8   11    5 ar 
     9    7    6 2  
    10    7    8 2  
    11    7    9 am 
    12    7   10 1  
    13   10   12 ar 
    14    1   14 1  
    15    1   15 1  
    16    2   16 1  
    17    3   17 1  
    18    3   18 1  
    19    4   19 1  
    20    9   20 1  
    21    9   21 1  
    22   11   22 1  
    23   12   23 1  
    24   13   24 1  
    25   13   25 1  
    26   13   26 1  
@<TRIPOS>SUBSTRUCTURE
     1 4JE         1

