### 
### Created by X-TOOL on Mon Sep 10 21:13:24 2018
### 

@<TRIPOS>MOLECULE
4yyl_ligand
   31    32     1     0     0
SMALL
GAST_HUCK


@<TRIPOS>ATOM
      1 CAO       -35.9980    3.7930   15.7100 C.ar      1 4KN        -0.0345
      2 CAQ       -37.2240    3.1680   15.4680 C.ar      1 4KN        -0.0370
      3 CAS       -37.5500    1.9090   15.9740 C.ar      1 4KN         0.1203
      4 FAT       -38.9680    1.2530   15.7150 F         1 4KN        -0.1929
      5 CAR       -36.5970    1.2380   16.7190 C.ar      1 4KN        -0.0370
      6 CAP       -35.3690    1.8500   16.9410 C.ar      1 4KN        -0.0345
      7 CAN       -35.0130    3.0990   16.4060 C.ar      1 4KN         0.0901
      8 OAM       -33.7750    3.6830   16.6530 O.3       1 4KN        -0.3024
      9 CAL       -32.8110    2.8440   17.3730 C.3       1 4KN         0.1397
     10 CAJ       -32.5010    1.6950   16.3570 C.2       1 4KN         0.1474
     11 OAK       -32.7440    1.9060   15.1640 O.2       1 4KN        -0.3876
     12 CAC       -31.8160    0.5200   16.7360 C.ar      1 4KN         0.0448
     13 CAB       -31.0410    0.3890   17.9000 C.ar      1 4KN        -0.0698
     14 CAA       -30.3440   -0.8010   18.1760 C.ar      1 4KN        -0.0455
     15 CAF       -30.4130   -1.8730   17.2510 C.ar      1 4KN         0.1138
     16 OAI       -29.7710   -3.0800   17.3790 O.3       1 4KN        -0.3364
     17 CAE       -31.1270   -1.7280   16.0800 C.ar      1 4KN         0.1504
     18 OAH       -31.1680   -2.7690   15.2100 O.3       1 4KN        -0.3411
     19 CAD       -31.7820   -0.5320   15.8070 C.ar      1 4KN         0.1286
     20 OAG       -32.5360   -0.4420   14.6810 O.3       1 4KN        -0.3344
     21 H1        -35.8169    4.8031   15.3609 H         1 4KN         0.0533
     22 H2        -37.9562    3.6853   14.8587 H         1 4KN         0.0577
     23 H3        -36.8041    0.2533   17.1221 H         1 4KN         0.0577
     24 H4        -34.6453    1.3344   17.5619 H         1 4KN         0.0533
     25 H5        -33.2514    2.4434   18.2979 H         1 4KN         0.0834
     26 H6        -31.9002    3.4108   17.6161 H         1 4KN         0.0834
     27 H7        -30.9791    1.2176   18.5962 H         1 4KN         0.0527
     28 H8        -29.7612   -0.8973   19.0849 H         1 4KN         0.0443
     29 H9        -29.9762   -3.6276   16.6303 H         1 4KN         0.2457
     30 H10       -31.6913   -2.5284   14.4545 H         1 4KN         0.2399
     31 H11       -32.9195    0.4254   14.6266 H         1 4KN         0.2466
@<TRIPOS>BOND
     1    1    2 ar 
     2    1    7 ar 
     3    2    3 ar 
     4    3    4 1  
     5    3    5 ar 
     6    5    6 ar 
     7    6    7 ar 
     8    7    8 1  
     9    8    9 1  
    10    9   10 1  
    11   10   11 2  
    12   10   12 1  
    13   12   13 ar 
    14   12   19 ar 
    15   13   14 ar 
    16   14   15 ar 
    17   15   16 1  
    18   15   17 ar 
    19   17   18 1  
    20   17   19 ar 
    21   19   20 1  
    22    1   21 1  
    23    2   22 1  
    24    5   23 1  
    25    6   24 1  
    26    9   25 1  
    27    9   26 1  
    28   13   27 1  
    29   14   28 1  
    30   16   29 1  
    31   18   30 1  
    32   20   31 1  
@<TRIPOS>SUBSTRUCTURE
     1 4KN         1

