### 
### Created by X-TOOL on Mon Sep 10 21:13:26 2018
### 

@<TRIPOS>MOLECULE
4yyt_ligand
   24    24     1     0     0
SMALL
GAST_HUCK


@<TRIPOS>ATOM
      1 O2         -4.0410    2.5880   86.7010 O.2       1 S2O        -0.1514
      2 S          -2.6170    2.5220   86.8500 S.o2      1 S2O         0.0628
      3 O1         -2.0760    2.6250   88.1750 O.2       1 S2O        -0.1514
      4 N          -2.1110    1.1520   86.2110 N.am      1 S2O        -0.2617
      5 C2         -1.9400    3.8570   85.9060 C.ar      1 S2O         0.1009
      6 C1         -2.7470    4.9280   85.5560 C.ar      1 S2O        -0.0419
      7 C3         -0.5850    3.8800   85.6170 C.ar      1 S2O        -0.0419
      8 C4         -0.0450    4.9840   84.9800 C.ar      1 S2O        -0.0584
      9 C5         -0.8340    6.0680   84.6250 C.ar      1 S2O        -0.0407
     10 C          -2.1880    6.0230   84.9200 C.ar      1 S2O        -0.0584
     11 C6         -0.2330    7.2730   83.9390 C.3       1 S2O         0.0041
     12 C7          0.3250    6.9090   82.5790 C.3       1 S2O         0.0537
     13 O          -0.7200    6.7630   81.6410 O.3       1 S2O        -0.3929
     14 H1         -2.3863    0.9014   85.2829 H         1 S2O         0.1634
     15 H2         -1.5183    0.5432   86.7383 H         1 S2O         0.1634
     16 H3         -3.8077    4.9083   85.7786 H         1 S2O         0.0619
     17 H4          0.0463    3.0412   85.8872 H         1 S2O         0.0619
     18 H5          1.0151    5.0016   84.7543 H         1 S2O         0.0557
     19 H6         -2.8202    6.8604   84.6477 H         1 S2O         0.0557
     20 H7          0.5787    7.6737   84.5640 H         1 S2O         0.0448
     21 H8         -1.0118    8.0397   83.8135 H         1 S2O         0.0448
     22 H9          0.8779    5.9612   82.6560 H         1 S2O         0.0580
     23 H10         1.0059    7.7044   82.2419 H         1 S2O         0.0580
     24 H11        -1.1978    7.5812   81.5710 H         1 S2O         0.2096
@<TRIPOS>BOND
     1    1    2 2  
     2    2    3 2  
     3    2    4 am 
     4    2    5 1  
     5    5    6 ar 
     6    5    7 ar 
     7    6   10 ar 
     8    7    8 ar 
     9    8    9 ar 
    10    9   10 ar 
    11    9   11 1  
    12   11   12 1  
    13   12   13 1  
    14    4   14 1  
    15    4   15 1  
    16    6   16 1  
    17    7   17 1  
    18    8   18 1  
    19   10   19 1  
    20   11   20 1  
    21   11   21 1  
    22   12   22 1  
    23   12   23 1  
    24   13   24 1  
@<TRIPOS>SUBSTRUCTURE
     1 S2O         1

