### 
### Created by X-TOOL on Mon Sep 10 21:13:25 2018
### 

@<TRIPOS>MOLECULE
4yz5_ligand
   60    61     1     0     0
SMALL
GAST_HUCK


@<TRIPOS>ATOM
      1 O17       -50.7030  -51.9950  -21.9190 O.2       1 SLT        -0.3974
      2 C17       -50.0850  -52.7430  -22.6360 C.2       1 SLT         0.1733
      3 C18       -48.5960  -52.6000  -22.7730 C.3       1 SLT         0.0257
      4 N12       -50.7000  -53.7080  -23.3050 N.am      1 SLT        -0.2790
      5 C12       -52.1350  -54.0240  -23.1750 C.3       1 SLT         0.0964
      6 C13       -53.0050  -53.5050  -24.3210 C.3       1 SLT         0.1143
      7 O13       -54.3550  -53.9960  -24.2140 O.3       1 SLT        -0.3384
      8 C14       -53.0050  -51.9640  -24.4230 C.3       1 SLT         0.1114
      9 O14       -53.7930  -51.3880  -23.3770 O.3       1 SLT        -0.3865
     10 C15       -53.3760  -51.4210  -25.8200 C.3       1 SLT         0.1065
     11 O15       -53.6610  -50.0220  -25.8470 O.3       1 SLT        -0.3869
     12 C16       -54.5470  -52.0710  -26.4980 C.3       1 SLT         0.0727
     13 O16       -54.0100  -53.1860  -27.2030 O.3       1 SLT        -0.3924
     14 C11       -52.2340  -55.5400  -23.1530 C.3       1 SLT         0.0850
     15 O11       -51.4570  -56.0330  -22.0460 O.3       1 SLT        -0.3893
     16 C10       -53.6870  -55.9740  -23.0280 C.3       1 SLT         0.0353
     17 C9        -54.5890  -55.4180  -24.1440 C.3       1 SLT         0.2208
     18 C19       -54.2310  -56.1360  -25.4450 C.2       1 SLT         0.1041
     19 O20       -54.0940  -57.3930  -25.4810 O.co2     1 SLT        -0.5426
     20 O19       -54.0390  -55.4540  -26.4830 O.co2     1 SLT        -0.5426
     21 O9        -55.9140  -55.5850  -23.5710 O.3       1 SLT        -0.3380
     22 C3        -57.2540  -55.8970  -24.0610 C.3       1 SLT         0.1197
     23 C4        -58.2620  -54.9710  -23.3100 C.3       1 SLT         0.1121
     24 C5        -59.6740  -54.9390  -23.9370 C.3       1 SLT         0.1130
     25 O5        -59.5430  -54.7640  -25.3530 O.3       1 SLT        -0.3407
     26 C6        -60.6190  -53.8660  -23.3730 C.3       1 SLT         0.0730
     27 O6        -61.9450  -54.0240  -23.9180 O.3       1 SLT        -0.3924
     28 O4        -57.7300  -53.6440  -23.1720 O.3       1 SLT        -0.3865
     29 C2        -57.4790  -55.9770  -25.5790 C.3       1 SLT         0.1342
     30 O2        -57.0870  -57.2680  -26.0590 O.3       1 SLT        -0.3841
     31 C1        -58.9480  -55.9130  -25.9550 C.3       1 SLT         0.1854
     32 O1        -59.0610  -55.8770  -27.3720 O.3       1 SLT        -0.3649
     33 H1        -48.2161  -53.3665  -23.4645 H         1 SLT         0.0467
     34 H2        -48.1232  -52.7281  -21.7881 H         1 SLT         0.0467
     35 H3        -48.3583  -51.6008  -23.1668 H         1 SLT         0.0467
     36 H4        -50.1558  -54.2575  -23.9390 H         1 SLT         0.1856
     37 H5        -52.5105  -53.6033  -22.2306 H         1 SLT         0.0608
     38 H6        -52.5790  -53.8968  -25.2564 H         1 SLT         0.0646
     39 H7        -51.9677  -51.6448  -24.2439 H         1 SLT         0.0647
     40 H8        -53.7803  -50.4415  -23.4571 H         1 SLT         0.2100
     41 H9        -52.4922  -51.5968  -26.4508 H         1 SLT         0.0643
     42 H10       -54.3945  -49.8382  -25.2719 H         1 SLT         0.2100
     43 H11       -55.0247  -51.3686  -27.1969 H         1 SLT         0.0584
     44 H12       -55.2843  -52.4061  -25.7537 H         1 SLT         0.0584
     45 H13       -53.5933  -53.7776  -26.5875 H         1 SLT         0.2095
     46 H14       -51.8233  -55.9435  -24.0902 H         1 SLT         0.0618
     47 H15       -50.5509  -55.7684  -22.1538 H         1 SLT         0.2099
     48 H16       -54.0737  -55.6231  -22.0599 H         1 SLT         0.0336
     49 H17       -53.7269  -57.0727  -23.0624 H         1 SLT         0.0336
     50 H18       -57.4592  -56.9185  -23.7084 H         1 SLT         0.0650
     51 H19       -58.3762  -55.3843  -22.2970 H         1 SLT         0.0647
     52 H20       -60.1406  -55.9168  -23.7467 H         1 SLT         0.0647
     53 H21       -60.2350  -52.8699  -23.6381 H         1 SLT         0.0584
     54 H22       -60.6638  -53.9623  -22.2782 H         1 SLT         0.0584
     55 H23       -61.9098  -53.9389  -24.8635 H         1 SLT         0.2095
     56 H24       -56.8635  -53.6901  -22.7853 H         1 SLT         0.2100
     57 H25       -56.9132  -55.1751  -26.0757 H         1 SLT         0.0671
     58 H26       -56.1670  -57.4093  -25.8690 H         1 SLT         0.2101
     59 H27       -59.4581  -56.8127  -25.5805 H         1 SLT         0.0935
     60 H28       -58.6564  -56.6535  -27.7407 H         1 SLT         0.2126
@<TRIPOS>BOND
     1    1    2 2  
     2    2    3 1  
     3    2    4 am 
     4    4    5 1  
     5    5    6 1  
     6    5   14 1  
     7    6    7 1  
     8    6    8 1  
     9    7   17 1  
    10    8    9 1  
    11    8   10 1  
    12   10   11 1  
    13   10   12 1  
    14   12   13 1  
    15   14   15 1  
    16   14   16 1  
    17   16   17 1  
    18   17   18 1  
    19   17   21 1  
    20   18   19 ar 
    21   18   20 ar 
    22   21   22 1  
    23   22   23 1  
    24   22   29 1  
    25   23   24 1  
    26   23   28 1  
    27   24   25 1  
    28   24   26 1  
    29   25   31 1  
    30   26   27 1  
    31   29   30 1  
    32   29   31 1  
    33   31   32 1  
    34    3   33 1  
    35    3   34 1  
    36    3   35 1  
    37    4   36 1  
    38    5   37 1  
    39    6   38 1  
    40    8   39 1  
    41    9   40 1  
    42   10   41 1  
    43   11   42 1  
    44   12   43 1  
    45   12   44 1  
    46   13   45 1  
    47   14   46 1  
    48   15   47 1  
    49   16   48 1  
    50   16   49 1  
    51   22   50 1  
    52   23   51 1  
    53   24   52 1  
    54   26   53 1  
    55   26   54 1  
    56   27   55 1  
    57   28   56 1  
    58   29   57 1  
    59   30   58 1  
    60   31   59 1  
    61   32   60 1  
@<TRIPOS>SUBSTRUCTURE
     1 SLT         1

