### 
### Created by X-TOOL on Mon Sep 10 21:13:25 2018
### 

@<TRIPOS>MOLECULE
4yz9_ligand
   60    63     1     0     0
SMALL
GAST_HUCK


@<TRIPOS>ATOM
      1 C1        -72.1360   17.4250  -18.1970 C.ar      1 4K7        -0.0670
      2 C2        -70.4360   18.9130  -17.3040 C.ar      1 4K7        -0.0670
      3 C3        -72.8920   18.5340  -18.5940 C.ar      1 4K7        -0.0649
      4 C4        -71.1920   20.0210  -17.7030 C.ar      1 4K7        -0.0649
      5 C5        -67.2500   22.9080  -14.5350 C.ar      1 4K7        -0.0545
      6 C6        -66.8930   21.5550  -14.5080 C.ar      1 4K7        -0.0539
      7 C7        -67.7600   22.7250  -16.8880 C.ar      1 4K7        -0.0409
      8 C8        -70.9090   17.6220  -17.5550 C.ar      1 4K7        -0.0528
      9 C9        -72.4180   19.8310  -18.3510 C.ar      1 4K7        -0.0279
     10 C10       -67.6890   23.4980  -15.7250 C.ar      1 4K7         0.0021
     11 C11       -66.9690   20.7830  -15.6740 C.ar      1 4K7         0.0469
     12 C12       -67.4050   21.3730  -16.8630 C.ar      1 4K7         0.0479
     13 C13       -73.3730   22.1020  -16.5870 C.2       1 4K7         0.2616
     14 C14       -73.6020   24.3150  -13.5690 C.3       1 4K7        -0.0320
     15 C15       -72.2920   25.1180  -13.6870 C.3       1 4K7        -0.0387
     16 C16       -71.4120   26.5310  -15.6070 C.3       1 4K7        -0.0002
     17 C17       -73.5790   22.9940  -14.3420 C.3       1 4K7         0.0343
     18 C18       -72.6520   24.4510  -16.1400 C.3       1 4K7         0.0449
     19 C19       -69.8910   26.5370  -15.8620 C.3       1 4K7        -0.0297
     20 C20       -70.3450   24.3450  -15.1300 C.3       1 4K7        -0.0227
     21 C21       -71.6980   25.0980  -15.1160 C.3       1 4K7         0.0356
     22 C22       -70.0900   16.4420  -17.1170 C.3       1 4K7        -0.0343
     23 C23       -73.2420   21.0200  -18.7790 C.3       1 4K7         0.0618
     24 C24       -68.0800   24.9640  -15.7510 C.3       1 4K7         0.0021
     25 N25       -73.2090   23.1380  -15.7550 N.am      1 4K7        -0.2587
     26 N26       -73.0330   22.1650  -17.8760 N.am      1 4K7        -0.2627
     27 N27       -69.5180   25.1260  -16.0550 N.4       1 4K7         0.2477
     28 O28       -73.8660   21.0470  -16.1290 O.2       1 4K7        -0.4005
     29 CL1       -66.5300   19.1010  -15.6510 Cl        1 4K7        -0.0764
     30 CL2       -67.5120   20.4350  -18.3210 Cl        1 4K7        -0.0718
     31 H1        -72.4986   16.4210  -18.3856 H         1 4K7         0.0540
     32 H2        -69.4861   19.0556  -16.8016 H         1 4K7         0.0540
     33 H3        -73.8451   18.3900  -19.0899 H         1 4K7         0.0540
     34 H4        -70.8289   21.0241  -17.5107 H         1 4K7         0.0540
     35 H5        -67.1861   23.5012  -13.6300 H         1 4K7         0.0561
     36 H6        -66.5567   21.1033  -13.5818 H         1 4K7         0.0606
     37 H7        -68.0926   23.1771  -17.8154 H         1 4K7         0.0564
     38 H8        -74.4252   24.9321  -13.9583 H         1 4K7         0.0285
     39 H9        -73.7805   24.0937  -12.5064 H         1 4K7         0.0285
     40 H10       -71.5535   24.6881  -12.9943 H         1 4K7         0.0274
     41 H11       -72.4941   26.1621  -13.4059 H         1 4K7         0.0274
     42 H12       -71.9653   26.7454  -16.5332 H         1 4K7         0.0325
     43 H13       -71.6832   27.2698  -14.8385 H         1 4K7         0.0325
     44 H14       -74.5820   22.5452  -14.2907 H         1 4K7         0.0519
     45 H15       -72.8521   22.3235  -13.8603 H         1 4K7         0.0519
     46 H16       -72.0990   24.3206  -17.0819 H         1 4K7         0.0527
     47 H17       -73.4934   25.1410  -16.3012 H         1 4K7         0.0527
     48 H18       -69.3582   26.9605  -14.9979 H         1 4K7         0.0815
     49 H19       -69.6546   27.1235  -16.7621 H         1 4K7         0.0815
     50 H20       -70.4738   23.3150  -15.4941 H         1 4K7         0.0821
     51 H21       -69.8972   24.3255  -14.1255 H         1 4K7         0.0821
     52 H22       -70.6094   15.5125  -17.3931 H         1 4K7         0.0378
     53 H23       -69.9531   16.4753  -16.0261 H         1 4K7         0.0378
     54 H24       -69.1077   16.4737  -17.6110 H         1 4K7         0.0378
     55 H25       -74.3063   20.7424  -18.7662 H         1 4K7         0.0667
     56 H26       -72.9509   21.3099  -19.7994 H         1 4K7         0.0667
     57 H27       -67.4894   25.4797  -16.5225 H         1 4K7         0.0981
     58 H28       -67.8682   25.4098  -14.7680 H         1 4K7         0.0981
     59 H29       -72.6285   23.0058  -18.2359 H         1 4K7         0.1870
     60 H30       -69.6970   24.8400  -17.0048 H         1 4K7         0.2048
@<TRIPOS>BOND
     1    3    1 ar 
     2    1    8 ar 
     3    4    2 ar 
     4    2    8 ar 
     5    9    3 ar 
     6    9    4 ar 
     7    5    6 ar 
     8   10    5 ar 
     9    6   11 ar 
    10   10    7 ar 
    11    7   12 ar 
    12    8   22 1  
    13   23    9 1  
    14   24   10 1  
    15   12   11 ar 
    16   11   29 1  
    17   12   30 1  
    18   25   13 am 
    19   13   26 am 
    20   13   28 2  
    21   15   14 1  
    22   14   17 1  
    23   21   15 1  
    24   19   16 1  
    25   21   16 1  
    26   25   17 1  
    27   21   18 1  
    28   18   25 1  
    29   27   19 1  
    30   20   21 1  
    31   27   20 1  
    32   26   23 1  
    33   24   27 1  
    34    1   31 1  
    35    2   32 1  
    36    3   33 1  
    37    4   34 1  
    38    5   35 1  
    39    6   36 1  
    40    7   37 1  
    41   14   38 1  
    42   14   39 1  
    43   15   40 1  
    44   15   41 1  
    45   16   42 1  
    46   16   43 1  
    47   17   44 1  
    48   17   45 1  
    49   18   46 1  
    50   18   47 1  
    51   19   48 1  
    52   19   49 1  
    53   20   50 1  
    54   20   51 1  
    55   22   52 1  
    56   22   53 1  
    57   22   54 1  
    58   23   55 1  
    59   23   56 1  
    60   24   57 1  
    61   24   58 1  
    62   26   59 1  
    63   27   60 1  
@<TRIPOS>SUBSTRUCTURE
     1 4K7         1

