### 
### Created by X-TOOL on Mon Sep 10 21:13:25 2018
### 

@<TRIPOS>MOLECULE
4yzc_ligand
   65    72     1     0     0
SMALL
GAST_HUCK


@<TRIPOS>ATOM
      1 O4        -20.0840   35.7080  -53.7190 O.3       1 STU        -0.3153
      2 C25       -21.1110   34.6560  -53.5710 C.3       1 STU         0.1663
      3 C24       -21.3570   34.3920  -52.0680 C.3       1 STU         0.0455
      4 C23       -20.4600   35.2690  -51.2390 C.3       1 STU         0.0141
      5 C22       -19.0480   35.1280  -51.6700 C.3       1 STU         0.1552
      6 C21       -18.8770   35.7480  -53.0240 C.3       1 STU         0.2002
      7 C26       -18.5400   37.1870  -52.8960 C.3       1 STU        -0.0063
      8 N2        -17.8440   35.0410  -53.7670 N.pl3     1 STU        -0.2358
      9 C18       -18.1370   33.8880  -54.5310 C.ar      1 STU         0.0861
     10 C19       -19.3030   33.2340  -54.7310 C.ar      1 STU         0.0859
     11 C6        -19.3970   32.0670  -55.5440 C.ar      1 STU        -0.0077
     12 C7        -18.2090   31.6060  -56.1510 C.ar      1 STU         0.0211
     13 C10       -17.0400   32.2680  -55.9470 C.ar      1 STU        -0.0073
     14 C11       -16.9770   33.4160  -55.1370 C.ar      1 STU        -0.0104
     15 C12       -15.9080   34.2830  -54.7620 C.ar      1 STU        -0.0115
     16 C17       -16.4300   35.2780  -53.9240 C.ar      1 STU         0.0664
     17 C16       -15.5970   36.2630  -53.4120 C.ar      1 STU        -0.0416
     18 C15       -14.2280   36.2680  -53.7270 C.ar      1 STU        -0.0743
     19 C14       -13.6970   35.2710  -54.5670 C.ar      1 STU        -0.0762
     20 C13       -14.5500   34.2800  -55.0830 C.ar      1 STU        -0.0703
     21 C9        -15.8720   31.5890  -56.7100 C.3       1 STU        -0.0069
     22 N1        -16.5590   30.4170  -57.3000 N.4       1 STU         0.2674
     23 C8        -17.9540   30.5300  -56.9890 C.3       1 STU         0.1053
     24 O5        -18.8780   29.6180  -57.5260 O.3       1 STU        -0.3440
     25 C5        -20.7610   31.6280  -55.5410 C.ar      1 STU        -0.0114
     26 C20       -21.5060   32.4880  -54.7530 C.ar      1 STU         0.0661
     27 C1        -22.8610   32.3370  -54.5410 C.ar      1 STU        -0.0416
     28 C2        -23.5440   31.2830  -55.1410 C.ar      1 STU        -0.0743
     29 C3        -22.8350   30.3860  -55.9540 C.ar      1 STU        -0.0762
     30 C4        -21.4440   30.5570  -56.1540 C.ar      1 STU        -0.0703
     31 N3        -20.6630   33.5280  -54.1820 N.pl3     1 STU        -0.2401
     32 O6        -18.7030   33.7370  -51.7040 O.3       1 STU        -0.3686
     33 C27       -17.3810   33.4220  -51.2370 C.3       1 STU         0.0373
     34 N4        -20.5630   34.8870  -49.8390 N.4       1 STU         0.2291
     35 C28       -20.2220   36.0080  -48.9880 C.3       1 STU        -0.0445
     36 H1        -22.0493   34.9826  -54.0431 H         1 STU         0.0932
     37 H2        -21.1432   33.3366  -51.8436 H         1 STU         0.0372
     38 H3        -22.4071   34.6129  -51.8263 H         1 STU         0.0372
     39 H4        -20.7724   36.3171  -51.3569 H         1 STU         0.0880
     40 H5        -18.3936   35.6445  -50.9523 H         1 STU         0.0709
     41 H6        -17.5898   37.2941  -52.3523 H         1 STU         0.0284
     42 H7        -19.3388   37.7029  -52.3431 H         1 STU         0.0284
     43 H8        -18.4414   37.6310  -53.8975 H         1 STU         0.0284
     44 H9        -16.0047   37.0321  -52.7660 H         1 STU         0.0535
     45 H10       -13.5812   37.0388  -53.3237 H         1 STU         0.0560
     46 H11       -12.6414   35.2675  -54.8134 H         1 STU         0.0513
     47 H12       -14.1510   33.5099  -55.7333 H         1 STU         0.0565
     48 H13       -15.0672   31.2825  -56.0257 H         1 STU         0.0938
     49 H14       -15.4604   32.2490  -57.4878 H         1 STU         0.0938
     50 H15       -16.1871   29.5667  -56.9068 H         1 STU         0.2064
     51 H16       -16.4293   30.4098  -58.2996 H         1 STU         0.2064
     52 H17       -17.8495   29.8685  -56.1164 H         1 STU         0.1309
     53 H18       -19.7507   29.8361  -57.2204 H         1 STU         0.2180
     54 H19       -23.3928   33.0382  -53.9081 H         1 STU         0.0535
     55 H20       -24.6089   31.1570  -54.9823 H         1 STU         0.0560
     56 H21       -23.3529   29.5610  -56.4296 H         1 STU         0.0513
     57 H22       -20.9005   29.8605  -56.7821 H         1 STU         0.0565
     58 H23       -17.2175   32.3363  -51.3039 H         1 STU         0.0524
     59 H24       -17.2750   33.7449  -50.1908 H         1 STU         0.0524
     60 H25       -16.6385   33.9436  -51.8588 H         1 STU         0.0524
     61 H26       -19.9301   34.1245  -49.6545 H         1 STU         0.2014
     62 H27       -21.5075   34.5949  -49.6422 H         1 STU         0.2014
     63 H28       -20.3038   35.7060  -47.9334 H         1 STU         0.0777
     64 H29       -20.9122   36.8414  -49.1853 H         1 STU         0.0777
     65 H30       -19.1909   36.3280  -49.1987 H         1 STU         0.0777
@<TRIPOS>BOND
     1    1    2 1  
     2    1    6 1  
     3    2    3 1  
     4    2   31 1  
     5    3    4 1  
     6    4    5 1  
     7    4   34 1  
     8    5    6 1  
     9    5   32 1  
    10    6    7 1  
    11    6    8 1  
    12    8    9 1  
    13    8   16 1  
    14    9   10 ar 
    15    9   14 ar 
    16   10   11 ar 
    17   10   31 1  
    18   11   12 ar 
    19   11   25 1  
    20   12   13 ar 
    21   12   23 1  
    22   13   14 ar 
    23   13   21 1  
    24   14   15 1  
    25   15   16 ar 
    26   15   20 ar 
    27   16   17 ar 
    28   17   18 ar 
    29   18   19 ar 
    30   19   20 ar 
    31   21   22 1  
    32   22   23 1  
    33   23   24 1  
    34   25   26 ar 
    35   25   30 ar 
    36   26   27 ar 
    37   26   31 1  
    38   27   28 ar 
    39   28   29 ar 
    40   29   30 ar 
    41   32   33 1  
    42   34   35 1  
    43    2   36 1  
    44    3   37 1  
    45    3   38 1  
    46    4   39 1  
    47    5   40 1  
    48    7   41 1  
    49    7   42 1  
    50    7   43 1  
    51   17   44 1  
    52   18   45 1  
    53   19   46 1  
    54   20   47 1  
    55   21   48 1  
    56   21   49 1  
    57   22   50 1  
    58   22   51 1  
    59   23   52 1  
    60   24   53 1  
    61   27   54 1  
    62   28   55 1  
    63   29   56 1  
    64   30   57 1  
    65   33   58 1  
    66   33   59 1  
    67   33   60 1  
    68   34   61 1  
    69   34   62 1  
    70   35   63 1  
    71   35   64 1  
    72   35   65 1  
@<TRIPOS>SUBSTRUCTURE
     1 STU         1

