### 
### Created by X-TOOL on Mon Sep 10 21:13:24 2018
### 

@<TRIPOS>MOLECULE
4yzm_ligand
   82    87     1     0     0
SMALL
GAST_HUCK


@<TRIPOS>ATOM
      1 C4        -21.6110  -10.4730  -30.4760 C.ar      1 4K4         0.1645
      2 C5        -22.4590  -10.0990  -29.4240 C.ar      1 4K4         0.1307
      3 C6        -23.7990  -10.4460  -29.5550 C.ar      1 4K4         0.0207
      4 N1        -24.2160  -11.1180  -30.7060 N.ar      1 4K4        -0.2872
      5 N3        -22.0750  -11.1100  -31.5840 N.ar      1 4K4        -0.2472
      6 CAU       -14.3050  -14.8380  -37.2370 C.3       1 4K4         0.0097
      7 CAS       -13.4100  -15.8890  -37.9410 C.3       1 4K4         0.0092
      8 NBL       -14.1920  -17.1000  -38.2900 N.4       1 4K4         0.2405
      9 CAB       -13.4550  -18.0020  -39.1970 C.3       1 4K4        -0.0427
     10 CAT       -14.5960  -17.8040  -37.0570 C.3       1 4K4         0.0092
     11 CAV       -15.3670  -16.8770  -36.0710 C.3       1 4K4         0.0097
     12 NBN       -15.4270  -15.4280  -36.4390 N.4       1 4K4         0.2449
     13 CBK       -16.8150  -14.8850  -36.6240 C.3       1 4K4        -0.0167
     14 CAP       -17.1070  -13.6090  -35.7640 C.3       1 4K4         0.0107
     15 CAR       -18.5380  -13.0120  -36.0210 C.3       1 4K4         0.0382
     16 CAO       -17.1890  -14.6340  -38.1070 C.3       1 4K4         0.0107
     17 CAQ       -18.6870  -14.2670  -38.2870 C.3       1 4K4         0.0382
     18 NBM       -19.3810  -13.7380  -37.0580 N.am      1 4K4        -0.2739
     19 CBA       -20.7470  -13.9290  -36.9670 C.2       1 4K4         0.1959
     20 OAE       -21.3620  -14.5270  -37.8510 O.2       1 4K4        -0.3902
     21 CBB       -21.5280  -13.4560  -35.8870 C.ar      1 4K4         0.0287
     22 CAN       -22.5420  -14.2640  -35.3220 C.ar      1 4K4        -0.0230
     23 CBE       -23.3320  -13.7580  -34.2620 C.ar      1 4K4         0.1199
     24 OAZ       -24.3320  -14.4810  -33.5950 O.3       1 4K4        -0.3244
     25 CAA       -25.4000  -15.0370  -34.3090 C.3       1 4K4         0.0570
     26 CAI       -21.3320  -12.1570  -35.3870 C.ar      1 4K4        -0.0628
     27 CAJ       -22.0770  -11.6580  -34.3250 C.ar      1 4K4        -0.0406
     28 CBC       -23.0580  -12.4600  -33.7650 C.ar      1 4K4         0.0980
     29 NAY       -23.8310  -12.0550  -32.7650 N.pl3     1 4K4        -0.2525
     30 C2        -23.3570  -11.4380  -31.6920 C.ar      1 4K4         0.1790
     31 NBP       -20.2960  -10.1830  -30.5790 N.pl3     1 4K4        -0.2441
     32 CAD       -19.2980  -11.1270  -31.1840 C.3       1 4K4         0.0374
     33 CBH       -19.8690   -8.9650  -30.2680 C.ar      1 4K4         0.0853
     34 CAL       -19.0900   -8.4390  -31.2920 C.ar      1 4K4        -0.0326
     35 CAH       -18.5740   -7.1780  -31.1660 C.ar      1 4K4        -0.0674
     36 CAG       -18.8670   -6.4680  -30.0090 C.ar      1 4K4        -0.0679
     37 CAK       -19.6780   -6.9710  -28.9960 C.ar      1 4K4        -0.0510
     38 CBG       -20.1920   -8.2530  -29.1220 C.ar      1 4K4         0.0789
     39 CBF       -21.0410   -8.6490  -28.0660 C.2       1 4K4         0.2275
     40 OAF       -20.9170   -8.1650  -26.9270 O.2       1 4K4        -0.3767
     41 NBO       -22.1270   -9.4560  -28.2480 N.am      1 4K4        -0.2228
     42 CAC       -22.9300   -9.7240  -26.9600 C.3       1 4K4         0.0413
     43 H1        -24.5098  -10.1985  -28.7749 H         1 4K4         0.0700
     44 H2        -14.7364  -14.1805  -38.0061 H         1 4K4         0.0868
     45 H3        -13.6736  -14.2446  -36.5593 H         1 4K4         0.0868
     46 H4        -12.5886  -16.1725  -37.2666 H         1 4K4         0.0868
     47 H5        -12.9948  -15.4508  -38.8606 H         1 4K4         0.0868
     48 H6        -15.0272  -16.8015  -38.7689 H         1 4K4         0.2035
     49 H7        -14.0760  -18.8811  -39.4242 H         1 4K4         0.0778
     50 H8        -12.5224  -18.3272  -38.7127 H         1 4K4         0.0778
     51 H9        -13.2175  -17.4699  -40.1300 H         1 4K4         0.0778
     52 H10       -13.6938  -18.1823  -36.5542 H         1 4K4         0.0868
     53 H11       -15.2457  -18.6489  -37.3290 H         1 4K4         0.0868
     54 H12       -14.8803  -16.9539  -35.0875 H         1 4K4         0.0868
     55 H13       -16.3999  -17.2483  -35.9990 H         1 4K4         0.0868
     56 H14       -15.2075  -15.0201  -35.5438 H         1 4K4         0.2040
     57 H15       -17.4952  -15.6688  -36.2595 H         1 4K4         0.0852
     58 H16       -16.3576  -12.8418  -36.0087 H         1 4K4         0.0339
     59 H17       -17.0242  -13.8763  -34.7002 H         1 4K4         0.0339
     60 H18       -18.4146  -11.9712  -36.3549 H         1 4K4         0.0523
     61 H19       -19.0870  -13.0288  -35.0679 H         1 4K4         0.0523
     62 H20       -16.9773  -15.5464  -38.6838 H         1 4K4         0.0339
     63 H21       -16.5743  -13.8066  -38.4910 H         1 4K4         0.0339
     64 H22       -19.2202  -15.1721  -38.6133 H         1 4K4         0.0523
     65 H23       -18.7552  -13.4985  -39.0711 H         1 4K4         0.0523
     66 H24       -22.7134  -15.2658  -35.6988 H         1 4K4         0.0553
     67 H25       -26.0727  -15.5607  -33.6138 H         1 4K4         0.0573
     68 H26       -25.0129  -15.7501  -35.0517 H         1 4K4         0.0573
     69 H27       -25.9538  -14.2372  -34.8224 H         1 4K4         0.0573
     70 H28       -20.5778  -11.5259  -35.8430 H         1 4K4         0.0548
     71 H29       -21.8939  -10.6605  -33.9423 H         1 4K4         0.0514
     72 H30       -24.8446  -12.2279  -32.8255 H         1 4K4         0.2125
     73 H31       -19.7842  -12.0920  -31.3899 H         1 4K4         0.0535
     74 H32       -18.4646  -11.2787  -30.4823 H         1 4K4         0.0535
     75 H33       -18.9140  -10.7022  -32.1232 H         1 4K4         0.0535
     76 H34       -18.8928   -9.0233  -32.1835 H         1 4K4         0.0545
     77 H35       -17.9558   -6.7467  -31.9450 H         1 4K4         0.0622
     78 H36       -18.4448   -5.4768  -29.8894 H         1 4K4         0.0529
     79 H37       -19.9043   -6.3704  -28.1224 H         1 4K4         0.0638
     80 H38       -23.7838  -10.3785  -27.1897 H         1 4K4         0.0542
     81 H39       -23.2979   -8.7709  -26.5523 H         1 4K4         0.0542
     82 H40       -22.2815  -10.2140  -26.2188 H         1 4K4         0.0542
@<TRIPOS>BOND
     1    1    2 ar 
     2    5    1 ar 
     3    1   31 1  
     4    3    2 ar 
     5    2   41 1  
     6    4    3 ar 
     7   30    4 ar 
     8   30    5 ar 
     9    6    7 1  
    10   12    6 1  
    11    7    8 1  
    12    8    9 1  
    13   10    8 1  
    14   11   10 1  
    15   12   11 1  
    16   13   12 1  
    17   14   13 1  
    18   16   13 1  
    19   15   14 1  
    20   18   15 1  
    21   17   16 1  
    22   18   17 1  
    23   19   18 am 
    24   19   20 2  
    25   21   19 1  
    26   22   21 ar 
    27   26   21 ar 
    28   23   22 ar 
    29   23   24 1  
    30   28   23 ar 
    31   24   25 1  
    32   27   26 ar 
    33   28   27 ar 
    34   29   28 1  
    35   29   30 1  
    36   31   32 1  
    37   31   33 1  
    38   33   34 ar 
    39   33   38 ar 
    40   34   35 ar 
    41   35   36 ar 
    42   36   37 ar 
    43   37   38 ar 
    44   38   39 1  
    45   39   40 2  
    46   39   41 am 
    47   41   42 1  
    48    3   43 1  
    49    6   44 1  
    50    6   45 1  
    51    7   46 1  
    52    7   47 1  
    53    8   48 1  
    54    9   49 1  
    55    9   50 1  
    56    9   51 1  
    57   10   52 1  
    58   10   53 1  
    59   11   54 1  
    60   11   55 1  
    61   12   56 1  
    62   13   57 1  
    63   14   58 1  
    64   14   59 1  
    65   15   60 1  
    66   15   61 1  
    67   16   62 1  
    68   16   63 1  
    69   17   64 1  
    70   17   65 1  
    71   22   66 1  
    72   25   67 1  
    73   25   68 1  
    74   25   69 1  
    75   26   70 1  
    76   27   71 1  
    77   29   72 1  
    78   32   73 1  
    79   32   74 1  
    80   32   75 1  
    81   34   76 1  
    82   35   77 1  
    83   36   78 1  
    84   37   79 1  
    85   42   80 1  
    86   42   81 1  
    87   42   82 1  
@<TRIPOS>SUBSTRUCTURE
     1 4K4         1

