### 
### Created by X-TOOL on Mon Sep 10 21:13:23 2018
### 

@<TRIPOS>MOLECULE
4yzn_ligand
   53    56     1     0     0
SMALL
GAST_HUCK


@<TRIPOS>ATOM
      1 C4         -8.3450   12.5790   16.6080 C.ar      1 4K5         0.1499
      2 C5         -9.2830   11.9080   15.7330 C.ar      1 4K5         0.0978
      3 C6        -10.6130   12.3120   15.8760 C.ar      1 4K5         0.0374
      4 N1        -11.0070   13.3420   16.6870 N.ar      1 4K5        -0.2275
      5 N3         -8.8130   13.6340   17.3460 N.ar      1 4K5        -0.2078
      6 CAL        -5.7090   14.3530   17.3210 C.3       1 4K5        -0.0258
      7 CAM        -4.7710   13.1830   17.2960 C.3       1 4K5        -0.0258
      8 CBD        -6.2470   12.9610   17.6380 C.3       1 4K5         0.0479
      9 NAS        -7.0580   12.2820   16.5710 N.pl3     1 4K5        -0.2820
     10 CBF        -8.9060   10.8800   14.8600 C.3       1 4K5         0.3622
     11 FAE        -9.8780   10.3580   14.0930 F         1 4K5        -0.2412
     12 FAF        -7.9750   11.2920   13.9100 F         1 4K5        -0.2412
     13 FAD        -8.2930    9.8450   15.3900 F         1 4K5        -0.2412
     14 C2        -10.0910   14.0070   17.4280 C.ar      1 4K5         0.2276
     15 NAR       -10.5360   15.0070   18.1550 N.pl3     1 4K5        -0.2279
     16 CAY        -9.7770   15.8800   18.9530 C.ar      1 4K5         0.1093
     17 CAZ       -10.3920   17.1080   19.2660 C.ar      1 4K5         0.1208
     18 CAI        -9.7980   18.0310   20.1530 C.ar      1 4K5        -0.0215
     19 OAT       -11.6070   17.3340   18.6530 O.3       1 4K5        -0.3248
     20 CAA       -12.3110   18.6090   19.0300 C.3       1 4K5         0.0568
     21 CAH        -8.5590   15.5810   19.5810 C.ar      1 4K5        -0.0025
     22 CAW        -7.9740   16.5200   20.4440 C.ar      1 4K5         0.1346
     23 FAC        -6.8010   16.2170   20.9500 F         1 4K5        -0.1888
     24 CBA        -8.5540   17.7680   20.7080 C.ar      1 4K5         0.0647
     25 CAV        -8.0400   18.7170   21.6330 C.2       1 4K5         0.1972
     26 OAB        -8.5240   18.6890   22.7800 O.2       1 4K5        -0.3913
     27 NBE        -7.1520   19.6730   21.3320 N.am      1 4K5        -0.2702
     28 CAN        -6.7650   20.6240   22.4510 C.3       1 4K5         0.0565
     29 CAJ        -5.3430   21.2000   22.3170 C.3       1 4K5         0.0680
     30 OAU        -5.0620   21.5360   20.9190 O.3       1 4K5        -0.3758
     31 CAK        -5.1210   20.3490   20.0300 C.3       1 4K5         0.0680
     32 CAO        -6.5560   19.7880   19.9740 C.3       1 4K5         0.0565
     33 H1        -11.3735   11.7813   15.3146 H         1 4K5         0.1102
     34 H2         -5.9919   14.8485   16.3805 H         1 4K5         0.0290
     35 H3         -5.6271   15.1038   18.1208 H         1 4K5         0.0290
     36 H4         -4.0046   13.0772   18.0779 H         1 4K5         0.0290
     37 H5         -4.3694   12.8219   16.3377 H         1 4K5         0.0290
     38 H6         -6.5842   12.6844   18.6478 H         1 4K5         0.0579
     39 H7         -6.6483   11.6434   15.8744 H         1 4K5         0.1982
     40 H8        -11.5531   15.1689   18.1382 H         1 4K5         0.2293
     41 H9        -10.3163   18.9500   20.4019 H         1 4K5         0.0551
     42 H10       -13.2620   18.6787   18.4816 H         1 4K5         0.0573
     43 H11       -11.6753   19.4689   18.7723 H         1 4K5         0.0573
     44 H12       -12.5106   18.6117   20.1117 H         1 4K5         0.0573
     45 H13        -8.0722   14.6294   19.4006 H         1 4K5         0.0521
     46 H14        -6.8300   20.0807   23.4052 H         1 4K5         0.0544
     47 H15        -7.4786   21.4611   22.4563 H         1 4K5         0.0544
     48 H16        -4.6143   20.4529   22.6645 H         1 4K5         0.0580
     49 H17        -5.2593   22.1078   22.9325 H         1 4K5         0.0580
     50 H18        -4.4437   19.5731   20.4164 H         1 4K5         0.0580
     51 H19        -4.8059   20.6393   19.0169 H         1 4K5         0.0580
     52 H20        -7.1789   20.4610   19.3665 H         1 4K5         0.0544
     53 H21        -6.5318   18.7914   19.5091 H         1 4K5         0.0544
@<TRIPOS>BOND
     1    1    2 ar 
     2    1    5 ar 
     3    9    1 1  
     4    2    3 ar 
     5    2   10 1  
     6    3    4 ar 
     7   14    4 ar 
     8    5   14 ar 
     9    7    6 1  
    10    8    6 1  
    11    8    7 1  
    12    8    9 1  
    13   10   11 1  
    14   10   12 1  
    15   10   13 1  
    16   14   15 1  
    17   15   16 1  
    18   16   17 ar 
    19   16   21 ar 
    20   17   18 ar 
    21   17   19 1  
    22   18   24 ar 
    23   19   20 1  
    24   21   22 ar 
    25   22   23 1  
    26   22   24 ar 
    27   24   25 1  
    28   25   26 2  
    29   25   27 am 
    30   27   28 1  
    31   27   32 1  
    32   28   29 1  
    33   29   30 1  
    34   30   31 1  
    35   31   32 1  
    36    3   33 1  
    37    6   34 1  
    38    6   35 1  
    39    7   36 1  
    40    7   37 1  
    41    8   38 1  
    42    9   39 1  
    43   15   40 1  
    44   18   41 1  
    45   20   42 1  
    46   20   43 1  
    47   20   44 1  
    48   21   45 1  
    49   28   46 1  
    50   28   47 1  
    51   29   48 1  
    52   29   49 1  
    53   31   50 1  
    54   31   51 1  
    55   32   52 1  
    56   32   53 1  
@<TRIPOS>SUBSTRUCTURE
     1 4K5         1

