### 
### Created by X-TOOL on Mon Sep 10 21:13:20 2018
### 

@<TRIPOS>MOLECULE
4yzu_ligand
   47    50     1     0     0
SMALL
GAST_HUCK


@<TRIPOS>ATOM
      1 O         -17.2670  -38.8730  -12.7280 O.2       1 4K6        -0.3880
      2 C11       -16.0760  -39.0400  -12.4670 C.2       1 4K6         0.1999
      3 C12       -15.6130  -40.2830  -11.7740 C.ar      1 4K6         0.0427
      4 C17       -16.3740  -41.4340  -11.9710 C.ar      1 4K6        -0.0459
      5 C16       -16.1520  -42.5680  -11.2130 C.ar      1 4K6        -0.0203
      6 C15       -15.1540  -42.5780  -10.2490 C.ar      1 4K6         0.1100
      7 N3        -14.9740  -43.7270   -9.4180 N.pl3     1 4K6        -0.1733
      8 C19       -14.7660  -43.7610   -8.0750 C.2       1 4K6         0.1362
      9 N5        -14.7120  -44.9870   -7.6420 N.2       1 4K6        -0.2517
     10 N4        -14.8960  -45.8150   -8.7460 N.2       1 4K6        -0.2517
     11 C18       -15.0450  -45.0370   -9.7800 C.2       1 4K6         0.1362
     12 C14       -14.3540  -41.4540  -10.0740 C.ar      1 4K6        -0.0203
     13 C13       -14.5800  -40.3170  -10.8360 C.ar      1 4K6        -0.0459
     14 N2        -15.1530  -38.1320  -12.7940 N.am      1 4K6        -0.2844
     15 C10       -15.5250  -36.8670  -13.4190 C.3       1 4K6         0.0476
     16 C9        -14.3590  -35.9190  -13.5290 C.3       1 4K6         0.0486
     17 C8        -13.8380  -35.5140  -12.1930 C.2       1 4K6         0.1185
     18 N1        -14.5930  -34.8530  -11.2860 N.2       1 4K6        -0.3252
     19 C3        -13.7630  -34.5410  -10.2110 C.ar      1 4K6         0.0076
     20 C2        -13.9910  -33.9400   -8.9820 C.ar      1 4K6        -0.0699
     21 N         -12.5900  -35.6830  -11.7970 N.pl3     1 4K6        -0.2521
     22 C4        -12.5160  -35.0630  -10.5500 C.ar      1 4K6         0.0655
     23 C5        -11.4560  -34.9470   -9.6570 C.ar      1 4K6        -0.0465
     24 C6        -11.6570  -34.3420   -8.4200 C.ar      1 4K6        -0.0573
     25 C7        -10.4840  -34.1910   -7.4860 C.3       1 4K6        -0.0384
     26 C1        -12.9490  -33.8690   -8.0590 C.ar      1 4K6        -0.0595
     27 C         -13.2240  -33.3700   -6.6610 C.3       1 4K6        -0.0392
     28 H1        -17.1497  -41.4397  -12.7282 H         1 4K6         0.0652
     29 H2        -16.7590  -43.4519  -11.3719 H         1 4K6         0.0599
     30 H3        -14.6588  -42.8792   -7.4450 H         1 4K6         0.1325
     31 H4        -15.2050  -45.3880  -10.7984 H         1 4K6         0.1325
     32 H5        -13.5541  -41.4663   -9.3425 H         1 4K6         0.0599
     33 H6        -13.9482  -39.4465  -10.7016 H         1 4K6         0.0652
     34 H7        -14.1893  -38.3225  -12.6071 H         1 4K6         0.1845
     35 H8        -16.3116  -36.3916  -12.8146 H         1 4K6         0.0551
     36 H9        -15.9113  -37.0712  -14.4285 H         1 4K6         0.0551
     37 H10       -14.6838  -35.0185  -14.0709 H         1 4K6         0.0548
     38 H11       -13.5518  -36.4131  -14.0896 H         1 4K6         0.0548
     39 H12       -14.9660  -33.5312   -8.7426 H         1 4K6         0.0451
     40 H13       -11.8338  -36.1683  -12.3006 H         1 4K6         0.2300
     41 H14       -10.4763  -35.3267   -9.9238 H         1 4K6         0.0458
     42 H15        -9.5854  -34.6196   -7.9537 H         1 4K6         0.0364
     43 H16       -10.6946  -34.7192   -6.5444 H         1 4K6         0.0364
     44 H17       -10.3157  -33.1240   -7.2782 H         1 4K6         0.0364
     45 H18       -14.2741  -33.0512   -6.5854 H         1 4K6         0.0359
     46 H19       -12.5652  -32.5173   -6.4398 H         1 4K6         0.0359
     47 H20       -13.0332  -34.1778   -5.9392 H         1 4K6         0.0359
@<TRIPOS>BOND
     1    1    2 2  
     2    2    3 1  
     3    2   14 am 
     4    3    4 ar 
     5    3   13 ar 
     6    4    5 ar 
     7    5    6 ar 
     8    6    7 1  
     9    6   12 ar 
    10    7    8 1  
    11    7   11 1  
    12    8    9 2  
    13    9   10 1  
    14   10   11 2  
    15   12   13 ar 
    16   14   15 1  
    17   15   16 1  
    18   16   17 1  
    19   17   18 2  
    20   17   21 1  
    21   18   19 1  
    22   19   20 ar 
    23   19   22 ar 
    24   20   26 ar 
    25   21   22 1  
    26   22   23 ar 
    27   23   24 ar 
    28   24   25 1  
    29   24   26 ar 
    30   26   27 1  
    31    4   28 1  
    32    5   29 1  
    33    8   30 1  
    34   11   31 1  
    35   12   32 1  
    36   13   33 1  
    37   14   34 1  
    38   15   35 1  
    39   15   36 1  
    40   16   37 1  
    41   16   38 1  
    42   20   39 1  
    43   21   40 1  
    44   23   41 1  
    45   25   42 1  
    46   25   43 1  
    47   25   44 1  
    48   27   45 1  
    49   27   46 1  
    50   27   47 1  
@<TRIPOS>SUBSTRUCTURE
     1 4K6         1

