### 
### Created by X-TOOL on Mon Sep 10 21:13:20 2018
### 

@<TRIPOS>MOLECULE
4z0k_ligand
   52    56     1     0     0
SMALL
GAST_HUCK


@<TRIPOS>ATOM
      1 O         -15.0260  -38.4060  -14.0580 O.2       1 4LN        -0.3880
      2 C13       -15.1220  -38.2890  -12.8360 C.2       1 4LN         0.2002
      3 C14       -15.1790  -39.4930  -11.9610 C.ar      1 4LN         0.0427
      4 C19       -14.2760  -39.6580  -10.9130 C.ar      1 4LN        -0.0459
      5 C18       -14.2580  -40.8260  -10.1750 C.ar      1 4LN        -0.0203
      6 C17       -15.1600  -41.8390  -10.4600 C.ar      1 4LN         0.1100
      7 N3        -15.1230  -43.0590   -9.7190 N.pl3     1 4LN        -0.1733
      8 C21       -15.3060  -44.3220  -10.1870 C.2       1 4LN         0.1362
      9 N5        -15.1950  -45.1940   -9.2270 N.2       1 4LN        -0.2517
     10 N4        -14.9250  -44.4840   -8.0640 N.2       1 4LN        -0.2517
     11 C20       -14.8890  -43.2240   -8.3910 C.2       1 4LN         0.1362
     12 C16       -16.0810  -41.6760  -11.4840 C.ar      1 4LN        -0.0203
     13 C15       -16.0850  -40.5130  -12.2310 C.ar      1 4LN        -0.0459
     14 N2        -15.1980  -37.0930  -12.2110 N.am      1 4LN        -0.2806
     15 C9        -15.1260  -35.7590  -12.8310 C.3       1 4LN         0.0533
     16 C12       -16.2850  -35.5730  -13.8060 C.3       1 4LN        -0.0382
     17 C8        -15.1980  -34.7220  -11.6920 C.3       1 4LN        -0.0162
     18 C7        -13.9380  -34.7500  -10.8830 C.2       1 4LN        -0.0310
     19 C5        -13.6730  -34.2630   -9.6200 C.2       1 4LN         0.1217
     20 C4        -14.4520  -33.6890   -8.5800 C.2       1 4LN         0.1087
     21 O1        -15.7940  -33.5640   -8.7470 O.3       1 4LN        -0.3382
     22 C3        -13.8200  -33.3370   -7.4050 C.2       1 4LN        -0.0512
     23 C2        -12.4650  -33.5700   -7.2380 C.2       1 4LN        -0.0448
     24 C10       -13.7910  -35.5930  -13.5730 C.3       1 4LN        -0.0185
     25 C11       -12.5810  -35.9650  -12.7050 C.3       1 4LN        -0.0196
     26 C6        -12.7270  -35.2830  -11.3820 C.2       1 4LN        -0.0086
     27 N1        -11.7130  -35.1220  -10.4760 N.2       1 4LN        -0.2357
     28 N         -12.2960  -34.5000   -9.4130 N.pl3     1 4LN        -0.1741
     29 C1        -11.6770  -34.1320   -8.2350 C.2       1 4LN         0.0912
     30 C         -10.2030  -34.3100   -8.0760 C.3       1 4LN         0.0042
     31 H1        -13.5803  -38.8618  -10.6741 H         1 4LN         0.0652
     32 H2        -13.5388  -40.9500   -9.3735 H         1 4LN         0.0599
     33 H3        -15.5172  -44.5710  -11.2259 H         1 4LN         0.1325
     34 H4        -14.6969  -42.4107   -7.6927 H         1 4LN         0.1325
     35 H5        -16.7976  -42.4605  -11.6985 H         1 4LN         0.0599
     36 H6        -16.8017  -40.3947  -13.0356 H         1 4LN         0.0652
     37 H7        -15.3161  -37.1165  -11.2183 H         1 4LN         0.1849
     38 H8        -16.2226  -34.5746  -14.2635 H         1 4LN         0.0256
     39 H9        -17.2381  -35.6696  -13.2654 H         1 4LN         0.0256
     40 H10       -16.2298  -36.3406  -14.5920 H         1 4LN         0.0256
     41 H11       -16.0526  -34.9572  -11.0407 H         1 4LN         0.0343
     42 H12       -15.3304  -33.7185  -12.1227 H         1 4LN         0.0343
     43 H13       -16.1727  -33.1661   -7.9719 H         1 4LN         0.2451
     44 H14       -14.3911  -32.8723   -6.6026 H         1 4LN         0.0431
     45 H15       -11.9999  -33.3029   -6.2902 H         1 4LN         0.0401
     46 H16       -13.6903  -34.5432  -13.8858 H         1 4LN         0.0310
     47 H17       -13.7992  -36.2412  -14.4616 H         1 4LN         0.0310
     48 H18       -11.6545  -35.6317  -13.1954 H         1 4LN         0.0399
     49 H19       -12.5476  -37.0549  -12.5603 H         1 4LN         0.0399
     50 H20        -9.8973  -33.9625   -7.0781 H         1 4LN         0.0447
     51 H21        -9.6779  -33.7244   -8.8450 H         1 4LN         0.0447
     52 H22        -9.9480  -35.3742   -8.1877 H         1 4LN         0.0447
@<TRIPOS>BOND
     1    1    2 2  
     2    2    3 1  
     3    2   14 am 
     4    3    4 ar 
     5    3   13 ar 
     6    4    5 ar 
     7    5    6 ar 
     8    6    7 1  
     9    6   12 ar 
    10    7    8 1  
    11    7   11 1  
    12    8    9 2  
    13    9   10 1  
    14   10   11 2  
    15   12   13 ar 
    16   14   15 1  
    17   15   16 1  
    18   15   17 1  
    19   15   24 1  
    20   17   18 1  
    21   18   19 2  
    22   18   26 1  
    23   19   20 1  
    24   19   28 1  
    25   20   21 1  
    26   20   22 2  
    27   22   23 1  
    28   23   29 2  
    29   24   25 1  
    30   25   26 1  
    31   26   27 2  
    32   27   28 1  
    33   28   29 1  
    34   29   30 1  
    35    4   31 1  
    36    5   32 1  
    37    8   33 1  
    38   11   34 1  
    39   12   35 1  
    40   13   36 1  
    41   14   37 1  
    42   16   38 1  
    43   16   39 1  
    44   16   40 1  
    45   17   41 1  
    46   17   42 1  
    47   21   43 1  
    48   22   44 1  
    49   23   45 1  
    50   24   46 1  
    51   24   47 1  
    52   25   48 1  
    53   25   49 1  
    54   30   50 1  
    55   30   51 1  
    56   30   52 1  
@<TRIPOS>SUBSTRUCTURE
     1 4LN         1

