### 
### Created by X-TOOL on Mon Sep 10 21:13:20 2018
### 

@<TRIPOS>MOLECULE
4z0q_ligand
   38    40     1     0     0
SMALL
GAST_HUCK


@<TRIPOS>ATOM
      1 C2         19.1520    9.7130   14.5320 C.ar      1 4K9        -0.0472
      2 C3         21.4080   10.0200   12.7930 C.ar      1 4K9        -0.0734
      3 C4         20.5860    8.8590   12.7510 C.ar      1 4K9        -0.0207
      4 C9         17.4990    7.4720   14.0050 C.2       1 4K9         0.2331
      5 C10        16.9040    6.2550   14.6850 C.ar      1 4K9         0.0559
      6 C1         19.9710   10.8280   14.5360 C.ar      1 4K9        -0.0824
      7 C5         19.4880    8.7460   13.6070 C.ar      1 4K9         0.0715
      8 C6         19.5610    6.4170   13.5840 C.3       1 4K9         0.0553
      9 C7         20.7050    6.4450   12.5860 C.3       1 4K9        -0.0199
     10 C8         20.9030    7.7210   11.8120 C.3       1 4K9        -0.0207
     11 O2         13.6140    2.7020   16.6840 O.2       1 4K9        -0.1500
     12 S          15.0610    2.6650   16.7920 S.o2      1 4K9         0.0677
     13 O1         15.6330    2.7730   18.1090 O.2       1 4K9        -0.1500
     14 N1         15.5900    1.3320   16.1570 N.am      1 4K9        -0.2605
     15 C13        15.7080    4.0370   15.9230 C.ar      1 4K9         0.1121
     16 C12        17.0820    4.1200   15.7290 C.ar      1 4K9        -0.0295
     17 C11        17.6630    5.2060   15.1320 C.ar      1 4K9        -0.0397
     18 C14        14.8860    5.1090   15.4870 C.ar      1 4K9        -0.0295
     19 C15        15.5370    6.2060   14.8150 C.ar      1 4K9        -0.0397
     20 O          16.7600    8.3850   13.7460 O.2       1 4K9        -0.3737
     21 N          18.7130    7.5380   13.5460 N.am      1 4K9        -0.2220
     22 C          21.0460   10.9590   13.7140 C.ar      1 4K9        -0.0839
     23 H1         18.3092    9.6070   15.2054 H         1 4K9         0.0481
     24 H2         22.2625   10.1492   12.1386 H         1 4K9         0.0513
     25 H3         19.7455   11.6334   15.2255 H         1 4K9         0.0520
     26 H4         19.9908    6.3481   14.5942 H         1 4K9         0.0585
     27 H5         18.9536    5.5224   13.3821 H         1 4K9         0.0585
     28 H6         20.5309    5.6387   11.8583 H         1 4K9         0.0308
     29 H7         21.6341    6.2449   13.1398 H         1 4K9         0.0308
     30 H8         21.9445    7.7954   11.4660 H         1 4K9         0.0398
     31 H9         20.2260    7.7463   10.9454 H         1 4K9         0.0398
     32 H10        15.3061    1.0705   15.2345 H         1 4K9         0.1635
     33 H11        16.2112    0.7436   16.6746 H         1 4K9         0.1635
     34 H12        17.7110    3.3015   16.0599 H         1 4K9         0.0649
     35 H13        18.7398    5.2364   15.0111 H         1 4K9         0.0669
     36 H14        13.8147    5.1031   15.6522 H         1 4K9         0.0649
     37 H15        14.9356    7.0087   14.4038 H         1 4K9         0.0669
     38 H16        21.6474   11.8573   13.7947 H         1 4K9         0.0471
@<TRIPOS>BOND
     1    1    6 ar 
     2    7    1 ar 
     3    3    2 ar 
     4    2   22 ar 
     5    7    3 ar 
     6    3   10 1  
     7    5    4 1  
     8    4   20 2  
     9    4   21 am 
    10   17    5 ar 
    11    5   19 ar 
    12    6   22 ar 
    13   21    7 1  
    14    8    9 1  
    15   21    8 1  
    16    9   10 1  
    17   12   11 2  
    18   12   13 2  
    19   12   14 am 
    20   15   12 1  
    21   16   15 ar 
    22   15   18 ar 
    23   16   17 ar 
    24   18   19 ar 
    25    1   23 1  
    26    2   24 1  
    27    6   25 1  
    28    8   26 1  
    29    8   27 1  
    30    9   28 1  
    31    9   29 1  
    32   10   30 1  
    33   10   31 1  
    34   14   32 1  
    35   14   33 1  
    36   16   34 1  
    37   17   35 1  
    38   18   36 1  
    39   19   37 1  
    40   22   38 1  
@<TRIPOS>SUBSTRUCTURE
     1 4K9         1

