### 
### Created by X-TOOL on Mon Sep 10 21:13:25 2018
### 

@<TRIPOS>MOLECULE
4z0u_ligand
   68    69     1     0     0
SMALL
GAST_HUCK


@<TRIPOS>ATOM
      1 N          89.2080   47.6330   33.3080 N.4       1 ASP         0.2391
      2 CA         88.0420   47.1540   34.1190 C.3       1 ASP         0.0764
      3 C          86.9960   46.3680   33.3240 C.2       1 ASP         0.2284
      4 O          86.3680   45.4620   33.8700 O.2       1 ASP        -0.3906
      5 CB         87.3410   48.3140   34.8180 C.3       1 ASP         0.0607
      6 CG         86.3330   47.8360   35.8490 C.2       1 ASP         0.0425
      7 OD1        86.7540   47.1300   36.7940 O.co2     1 ASP        -0.5686
      8 OD2        85.1280   48.1460   35.7070 O.co2     1 ASP        -0.5686
      9 N          86.7710   46.7410   32.0650 N.am      1 ILE        -0.2606
     10 CA         85.9670   45.9140   31.1650 C.3       1 ILE         0.1338
     11 C          86.7610   44.6210   30.8730 C.2       1 ILE         0.2067
     12 O          87.9230   44.6830   30.4610 O.2       1 ILE        -0.3942
     13 CB         85.5700   46.6730   29.8720 C.3       1 ILE        -0.0037
     14 CG1        84.4630   45.9190   29.1190 C.3       1 ILE        -0.0491
     15 CG2        86.7730   46.9230   28.9630 C.3       1 ILE        -0.0582
     16 CD1        83.6400   46.7970   28.1980 C.3       1 ILE        -0.0648
     17 N          86.1440   43.4460   31.1060 N.am      1 PRO        -0.2498
     18 CA         86.8850   42.1840   31.0460 C.3       1 PRO         0.1337
     19 C          86.9950   41.5890   29.6290 C.2       1 PRO         0.2037
     20 O          87.1560   40.3690   29.4660 O.2       1 PRO        -0.3944
     21 CB         86.0520   41.2850   31.9540 C.3       1 PRO        -0.0104
     22 CG         84.6520   41.7240   31.6710 C.3       1 PRO        -0.0281
     23 CD         84.7160   43.2080   31.3940 C.3       1 PRO         0.0369
     24 N          86.9050   42.4400   28.6120 N.am      1 PHE        -0.2677
     25 CA         87.1410   42.0230   27.2340 C.3       1 PHE         0.1039
     26 C          87.5640   43.2220   26.4000 C.2       1 PHE         0.0621
     27 O          87.4200   44.3690   26.8240 O.co2     1 PHE        -0.5664
     28 CB         85.8890   41.3650   26.6390 C.3       1 PHE         0.0159
     29 CG         84.6270   42.1620   26.8300 C.ar      1 PHE        -0.0392
     30 CD1        84.3290   43.2350   25.9940 C.ar      1 PHE        -0.0602
     31 CD2        83.7220   41.8260   27.8280 C.ar      1 PHE        -0.0602
     32 CE1        83.1650   43.9660   26.1670 C.ar      1 PHE        -0.0686
     33 CE2        82.5530   42.5510   28.0000 C.ar      1 PHE        -0.0686
     34 CZ         82.2770   43.6230   27.1690 C.ar      1 PHE        -0.0687
     35 OXT        88.0520   43.0720   25.2860 O.co2     1 PHE        -0.5664
     36 H1         89.8461   48.1382   33.9028 H         1 ASP         0.2016
     37 H2         88.8798   48.2412   32.5742 H         1 ASP         0.2016
     38 H3         89.6824   46.8418   32.9017 H         1 ASP         0.2016
     39 H4         88.4439   46.4816   34.8912 H         1 ASP         0.1117
     40 H5         86.8165   48.9181   34.0630 H         1 ASP         0.0512
     41 H6         88.0974   48.9333   35.3223 H         1 ASP         0.0512
     42 H7         87.1579   47.6000   31.7298 H         1 ILE         0.1885
     43 H8         85.0374   45.6386   31.6846 H         1 ILE         0.0803
     44 H9         85.1687   47.6528   30.1701 H         1 ILE         0.0345
     45 H10        83.7879   45.4648   29.8592 H         1 ILE         0.0267
     46 H11        84.9315   45.1275   28.5157 H         1 ILE         0.0267
     47 H12        87.5502   47.4629   29.5237 H         1 ILE         0.0235
     48 H13        86.4598   47.5255   28.0976 H         1 ILE         0.0235
     49 H14        87.1748   45.9605   28.6135 H         1 ILE         0.0235
     50 H15        82.8731   46.1869   27.6984 H         1 ILE         0.0230
     51 H16        84.2965   47.2520   27.4418 H         1 ILE         0.0230
     52 H17        83.1529   47.5893   28.7853 H         1 ILE         0.0230
     53 H18        87.8997   42.3176   31.4492 H         1 PRO         0.0802
     54 H19        86.3097   41.4438   33.0115 H         1 PRO         0.0313
     55 H20        86.1931   40.2247   31.6974 H         1 PRO         0.0313
     56 H21        84.0087   41.5272   32.5413 H         1 PRO         0.0287
     57 H22        84.2562   41.1905   30.7943 H         1 PRO         0.0287
     58 H23        84.0912   43.4732   30.5284 H         1 PRO         0.0524
     59 H24        84.3907   43.7857   32.2717 H         1 PRO         0.0524
     60 H25        86.6686   43.3939   28.7968 H         1 PHE         0.1877
     61 H26        87.9569   41.2852   27.2266 H         1 PHE         0.0749
     62 H27        85.7537   40.3838   27.1175 H         1 PHE         0.0467
     63 H28        86.0507   41.2274   25.5597 H         1 PHE         0.0467
     64 H29        85.0157   43.5014   25.1987 H         1 PHE         0.0557
     65 H30        83.9322   40.9864   28.4807 H         1 PHE         0.0557
     66 H31        82.9508   44.8065   25.5169 H         1 PHE         0.0599
     67 H32        81.8560   42.2787   28.7843 H         1 PHE         0.0599
     68 H33        81.3650   44.1931   27.3040 H         1 PHE         0.0559
@<TRIPOS>BOND
     1    1    2 1  
     2    2    3 1  
     3    2    5 1  
     4    3    4 2  
     5    3    9 am 
     6    5    6 1  
     7    6    7 ar 
     8    6    8 ar 
     9    9   10 1  
    10   10   11 1  
    11   10   13 1  
    12   11   12 2  
    13   11   17 am 
    14   13   14 1  
    15   13   15 1  
    16   14   16 1  
    17   17   18 1  
    18   17   23 1  
    19   18   19 1  
    20   18   21 1  
    21   19   20 2  
    22   19   24 am 
    23   21   22 1  
    24   22   23 1  
    25   24   25 1  
    26   25   26 1  
    27   25   28 1  
    28   26   27 ar 
    29   26   35 ar 
    30   28   29 1  
    31   29   30 ar 
    32   29   31 ar 
    33   30   32 ar 
    34   31   33 ar 
    35   32   34 ar 
    36   33   34 ar 
    37    1   36 1  
    38    1   37 1  
    39    1   38 1  
    40    2   39 1  
    41    5   40 1  
    42    5   41 1  
    43    9   42 1  
    44   10   43 1  
    45   13   44 1  
    46   14   45 1  
    47   14   46 1  
    48   15   47 1  
    49   15   48 1  
    50   15   49 1  
    51   16   50 1  
    52   16   51 1  
    53   16   52 1  
    54   18   53 1  
    55   21   54 1  
    56   21   55 1  
    57   22   56 1  
    58   22   57 1  
    59   23   58 1  
    60   23   59 1  
    61   24   60 1  
    62   25   61 1  
    63   28   62 1  
    64   28   63 1  
    65   30   64 1  
    66   31   65 1  
    67   32   66 1  
    68   33   67 1  
    69   34   68 1  
@<TRIPOS>SUBSTRUCTURE
     1 ASP         1

