### 
### Created by X-TOOL on Mon Sep 10 21:13:29 2018
### 

@<TRIPOS>MOLECULE
4z16_ligand
   69    72     1     0     0
SMALL
GAST_HUCK


@<TRIPOS>ATOM
      1 C2         -7.4060  -17.9720    3.4140 C.ar      1 4LH         0.1891
      2 C4         -5.6020  -17.3890    4.8330 C.ar      1 4LH         0.1294
      3 C5         -5.9450  -18.3840    5.7520 C.ar      1 4LH         0.0935
      4 C6         -7.0610  -19.1770    5.4660 C.ar      1 4LH         0.0134
      5 CAP        -7.8850   -9.1500    1.9480 C.3       1 4LH        -0.0477
      6 CAQ        -6.6600   -9.7890    1.2890 C.3       1 4LH         0.0403
      7 CBE        -6.1300  -11.0400    2.0320 C.2       1 4LH         0.2032
      8 OAE        -5.5200  -11.8850    1.3850 O.2       1 4LH        -0.3849
      9 NBA        -6.3180  -11.0750    3.3780 N.am      1 4LH        -0.2355
     10 CBH        -5.9320  -12.0910    4.1950 C.ar      1 4LH         0.0593
     11 CAN        -5.2620  -13.2650    3.8080 C.ar      1 4LH        -0.0387
     12 CAJ        -6.2300  -11.9410    5.5530 C.ar      1 4LH        -0.0481
     13 CAH        -5.8790  -12.9120    6.4910 C.ar      1 4LH        -0.0819
     14 CAI        -5.2180  -14.0660    6.0850 C.ar      1 4LH        -0.0737
     15 CBF        -4.9130  -14.2530    4.7400 C.ar      1 4LH        -0.0346
     16 CAV        -4.2210  -15.3980    4.3240 C.3       1 4LH         0.0595
     17 NAZ        -4.5460  -16.6170    5.1070 N.pl3     1 4LH        -0.2918
     18 N3         -6.3210  -17.2270    3.7070 N.ar      1 4LH        -0.2392
     19 CL5        -5.0160  -18.6420    7.2280 Cl        1 4LH        -0.0766
     20 N1         -7.7810  -18.9410    4.2750 N.ar      1 4LH        -0.2707
     21 NBB        -8.1140  -17.7780    2.2800 N.pl3     1 4LH        -0.2544
     22 CBK        -7.8760  -16.7500    1.4290 C.ar      1 4LH         0.0831
     23 CBL        -8.1230  -16.9910    0.0670 C.ar      1 4LH         0.1048
     24 CAO        -7.8730  -15.9940   -0.8880 C.ar      1 4LH        -0.0241
     25 OBC        -8.4780  -18.2680   -0.2850 O.3       1 4LH        -0.3280
     26 CAA        -9.6560  -18.3660   -1.0920 C.3       1 4LH         0.0568
     27 CAL        -7.4980  -15.4640    1.8290 C.ar      1 4LH        -0.0568
     28 CAK        -7.2900  -14.4640    0.8820 C.ar      1 4LH        -0.0642
     29 CBI        -7.4790  -14.7180   -0.4810 C.ar      1 4LH         0.0205
     30 NBP        -7.3110  -13.7400   -1.3910 N.pl3     1 4LH        -0.3065
     31 CAT        -8.4840  -13.2840   -2.1910 C.3       1 4LH         0.0648
     32 CAR        -8.1320  -13.1670   -3.6910 C.3       1 4LH        -0.0123
     33 NBO        -6.7360  -12.7320   -3.9740 N.4       1 4LH         0.2358
     34 CAB        -6.0100  -13.7020   -4.8140 C.3       1 4LH        -0.0430
     35 CAS        -5.9150  -12.2090   -2.8520 C.3       1 4LH        -0.0123
     36 CAU        -5.9740  -13.0850   -1.5830 C.3       1 4LH         0.0648
     37 H1         -7.3684  -19.9610    6.1486 H         1 4LH         0.0851
     38 H2         -8.1994   -8.2723    1.3642 H         1 4LH         0.0254
     39 H3         -7.6297   -8.8374    2.9713 H         1 4LH         0.0254
     40 H4         -8.7062   -9.8810    1.9820 H         1 4LH         0.0254
     41 H5         -5.8552   -9.0400    1.2539 H         1 4LH         0.0505
     42 H6         -6.9317  -10.0836    0.2646 H         1 4LH         0.0505
     43 H7         -6.7758  -10.2925    3.8001 H         1 4LH         0.2255
     44 H8         -5.0091  -13.4099    2.7639 H         1 4LH         0.0437
     45 H9         -6.7467  -11.0478    5.8851 H         1 4LH         0.0447
     46 H10        -6.1218  -12.7668    7.5374 H         1 4LH         0.0561
     47 H11        -4.9408  -14.8184    6.8145 H         1 4LH         0.0431
     48 H12        -3.1424  -15.2037    4.4180 H         1 4LH         0.0684
     49 H13        -4.4688  -15.5880    3.2693 H         1 4LH         0.0684
     50 H14        -3.9332  -16.8780    5.8926 H         1 4LH         0.1873
     51 H15        -8.8685  -18.4409    2.0517 H         1 4LH         0.2118
     52 H16        -7.9859  -16.2148   -1.9433 H         1 4LH         0.0409
     53 H17        -9.8570  -19.4231   -1.3204 H         1 4LH         0.0573
     54 H18        -9.5056  -17.8105   -2.0294 H         1 4LH         0.0573
     55 H19       -10.5108  -17.9399   -0.5464 H         1 4LH         0.0573
     56 H20        -7.3662  -15.2444    2.8823 H         1 4LH         0.0475
     57 H21        -6.9780  -13.4773    1.2047 H         1 4LH         0.0397
     58 H22        -8.8084  -12.2999   -1.8217 H         1 4LH         0.0563
     59 H23        -9.3027  -14.0088   -2.0710 H         1 4LH         0.0563
     60 H24        -8.8168  -12.4368   -4.1470 H         1 4LH         0.0834
     61 H25        -8.2840  -14.1523   -4.1558 H         1 4LH         0.0834
     62 H26        -6.8578  -11.9259   -4.5669 H         1 4LH         0.2032
     63 H27        -4.9879  -13.3378   -4.9947 H         1 4LH         0.0778
     64 H28        -6.5328  -13.8187   -5.7747 H         1 4LH         0.0778
     65 H29        -5.9675  -14.6732   -4.2993 H         1 4LH         0.0778
     66 H30        -6.2764  -11.2020   -2.5965 H         1 4LH         0.0834
     67 H31        -4.8684  -12.1495   -3.1851 H         1 4LH         0.0834
     68 H32        -5.2063  -13.8689   -1.6610 H         1 4LH         0.0563
     69 H33        -5.7639  -12.4517   -0.7085 H         1 4LH         0.0563
@<TRIPOS>BOND
     1   18    1 ar 
     2    1   20 ar 
     3    1   21 1  
     4    2    3 ar 
     5   17    2 1  
     6    2   18 ar 
     7    3    4 ar 
     8    3   19 1  
     9    4   20 ar 
    10    6    5 1  
    11    7    6 1  
    12    7    8 2  
    13    9    7 am 
    14   10    9 1  
    15   11   10 ar 
    16   10   12 ar 
    17   15   11 ar 
    18   13   12 ar 
    19   14   13 ar 
    20   15   14 ar 
    21   16   15 1  
    22   16   17 1  
    23   21   22 1  
    24   22   23 ar 
    25   22   27 ar 
    26   23   24 ar 
    27   23   25 1  
    28   24   29 ar 
    29   25   26 1  
    30   27   28 ar 
    31   28   29 ar 
    32   29   30 1  
    33   30   31 1  
    34   30   36 1  
    35   31   32 1  
    36   32   33 1  
    37   33   34 1  
    38   33   35 1  
    39   35   36 1  
    40    4   37 1  
    41    5   38 1  
    42    5   39 1  
    43    5   40 1  
    44    6   41 1  
    45    6   42 1  
    46    9   43 1  
    47   11   44 1  
    48   12   45 1  
    49   13   46 1  
    50   14   47 1  
    51   16   48 1  
    52   16   49 1  
    53   17   50 1  
    54   21   51 1  
    55   24   52 1  
    56   26   53 1  
    57   26   54 1  
    58   26   55 1  
    59   27   56 1  
    60   28   57 1  
    61   31   58 1  
    62   31   59 1  
    63   32   60 1  
    64   32   61 1  
    65   33   62 1  
    66   34   63 1  
    67   34   64 1  
    68   34   65 1  
    69   35   66 1  
    70   35   67 1  
    71   36   68 1  
    72   36   69 1  
@<TRIPOS>SUBSTRUCTURE
     1 4LH         1

