### 
### Created by X-TOOL on Mon Sep 10 21:13:23 2018
### 

@<TRIPOS>MOLECULE
4z1e_ligand
   42    44     1     0     0
SMALL
GAST_HUCK


@<TRIPOS>ATOM
      1 O2         13.8330    2.7250   16.7940 O.2       1 DF5        -0.1500
      2 S          15.2310    2.6230   16.8670 S.o2      1 DF5         0.0677
      3 O1         15.7710    2.7470   18.1820 O.2       1 DF5        -0.1500
      4 N1         15.6150    1.2870   16.0930 N.am      1 DF5        -0.2605
      5 C2         15.8100    3.9040   15.9110 C.ar      1 DF5         0.1121
      6 C1         17.1320    3.9870   15.4320 C.ar      1 DF5        -0.0296
      7 C3         14.9310    4.9620   15.5800 C.ar      1 DF5        -0.0296
      8 C4         15.3320    6.0300   14.7830 C.ar      1 DF5        -0.0398
      9 C5         16.6360    6.0980   14.2940 C.ar      1 DF5         0.0552
     10 C          17.5410    5.0620   14.6160 C.ar      1 DF5        -0.0398
     11 C6         16.9640    7.3120   13.4530 C.2       1 DF5         0.2301
     12 O          16.0550    7.9200   12.8220 O.2       1 DF5        -0.3753
     13 N          18.2880    7.8530   13.2920 N.am      1 DF5        -0.2282
     14 C10        18.5320    8.7500   12.2050 C.ar      1 DF5         0.0609
     15 C15        18.3010    8.3740   10.8540 C.ar      1 DF5        -0.0551
     16 C14        18.5460    9.2470    9.7840 C.ar      1 DF5        -0.0529
     17 C13        19.0430   10.5270   10.0480 C.ar      1 DF5         0.0691
     18 O3         19.3210   11.4690    9.0770 O.3       1 DF5        -0.3324
     19 C16        20.6980   11.5400    8.6230 C.3       1 DF5         0.0561
     20 C12        19.2850   10.9360   11.3720 C.ar      1 DF5        -0.0438
     21 C11        19.0300   10.0680   12.4460 C.ar      1 DF5        -0.0283
     22 C9         19.3360   10.5630   13.8150 C.3       1 DF5        -0.0229
     23 C8         19.3550    9.5360   14.9070 C.3       1 DF5        -0.0204
     24 C7         18.9330    8.1110   14.5680 C.3       1 DF5         0.0532
     25 H1         15.2732    1.1301   15.1664 H         1 DF5         0.1635
     26 H2         16.1982    0.6042   16.5331 H         1 DF5         0.1635
     27 H3         17.8450    3.2137   15.6943 H         1 DF5         0.0648
     28 H4         13.9154    4.9401   15.9583 H         1 DF5         0.0648
     29 H5         14.6251    6.8152   14.5405 H         1 DF5         0.0669
     30 H6         18.5549    5.0936   14.2339 H         1 DF5         0.0669
     31 H7         17.9231    7.3800   10.6437 H         1 DF5         0.0457
     32 H8         18.3524    8.9332    8.7646 H         1 DF5         0.0449
     33 H9         20.7911   12.3223    7.8553 H         1 DF5         0.0572
     34 H10        20.9938   10.5704    8.1961 H         1 DF5         0.0572
     35 H11        21.3525   11.7812    9.4735 H         1 DF5         0.0572
     36 H12        19.6718   11.9301   11.5649 H         1 DF5         0.0444
     37 H13        18.5770   11.3151   14.0763 H         1 DF5         0.0397
     38 H14        20.3277   11.0379   13.7852 H         1 DF5         0.0397
     39 H15        18.6840    9.8937   15.7018 H         1 DF5         0.0308
     40 H16        20.3848    9.4878   15.2906 H         1 DF5         0.0308
     41 H17        19.8398    7.4893   14.6026 H         1 DF5         0.0580
     42 H18        18.2352    7.7858   15.3537 H         1 DF5         0.0580
@<TRIPOS>BOND
     1    1    2 2  
     2    2    3 2  
     3    2    4 am 
     4    2    5 1  
     5    5    6 ar 
     6    5    7 ar 
     7    6   10 ar 
     8    7    8 ar 
     9    8    9 ar 
    10    9   10 ar 
    11    9   11 1  
    12   11   12 2  
    13   11   13 am 
    14   13   14 1  
    15   13   24 1  
    16   14   15 ar 
    17   14   21 ar 
    18   15   16 ar 
    19   16   17 ar 
    20   17   18 1  
    21   17   20 ar 
    22   18   19 1  
    23   20   21 ar 
    24   21   22 1  
    25   22   23 1  
    26   23   24 1  
    27    4   25 1  
    28    4   26 1  
    29    6   27 1  
    30    7   28 1  
    31    8   29 1  
    32   10   30 1  
    33   15   31 1  
    34   16   32 1  
    35   19   33 1  
    36   19   34 1  
    37   19   35 1  
    38   20   36 1  
    39   22   37 1  
    40   22   38 1  
    41   23   39 1  
    42   23   40 1  
    43   24   41 1  
    44   24   42 1  
@<TRIPOS>SUBSTRUCTURE
     1 DF5         1

