### 
### Created by X-TOOL on Mon Sep 10 21:13:20 2018
### 

@<TRIPOS>MOLECULE
4z1j_ligand
   38    40     1     0     0
SMALL
GAST_HUCK


@<TRIPOS>ATOM
      1 C3         18.6380   11.1480   11.6990 C.ar      1 4KC        -0.0649
      2 C4         18.5440    9.9870   12.4930 C.ar      1 4KC        -0.0187
      3 C9         16.3930    7.2090   13.0610 C.2       1 4KC         0.2092
      4 C10        16.1480    6.0820   14.0040 C.ar      1 4KC         0.0503
      5 C5         17.8630    8.7660   11.8870 C.3       1 4KC         0.0648
      6 C6         18.7110    7.6220   13.8490 C.3       1 4KC         0.0439
      7 C7         18.9580    8.8490   14.6960 C.3       1 4KC        -0.0009
      8 C8         19.0420   10.0220   13.8310 C.ar      1 4KC        -0.0372
      9 O          15.4060    7.5740   12.3780 O.2       1 4KC        -0.3843
     10 C11        16.9990    4.9470   14.0180 C.ar      1 4KC        -0.0401
     11 C12        16.6790    3.8920   14.8830 C.ar      1 4KC        -0.0295
     12 C15        15.0400    6.1380   14.8220 C.ar      1 4KC        -0.0401
     13 C14        14.7470    5.0770   15.6480 C.ar      1 4KC        -0.0295
     14 C13        15.5550    3.9210   15.7300 C.ar      1 4KC         0.1122
     15 S          15.1130    2.6380   16.7860 S.o2      1 4KC         0.0677
     16 N1         15.6950    1.2800   16.1550 N.am      1 4KC        -0.2605
     17 O1         13.6400    2.6720   16.7860 O.2       1 4KC        -0.1499
     18 O2         15.7510    2.8730   18.0340 O.2       1 4KC        -0.1499
     19 N          17.6270    7.7680   12.9110 N.am      1 4KC        -0.2605
     20 C18        19.6650   11.1630   14.3780 C.ar      1 4KC        -0.0667
     21 C17        19.7610   12.3090   13.5780 C.ar      1 4KC        -0.0755
     22 C16        19.2480   12.2900   12.2550 C.ar      1 4KC        -0.0754
     23 H1         18.2509   11.1619   10.6866 H         1 4KC         0.0538
     24 H2         18.5089    8.3396   11.1054 H         1 4KC         0.0670
     25 H3         16.9021    9.0675   11.4445 H         1 4KC         0.0670
     26 H4         18.4788    6.7804   14.5181 H         1 4KC         0.0545
     27 H5         19.6291    7.3998   13.2853 H         1 4KC         0.0545
     28 H6         19.9022    8.7308   15.2479 H         1 4KC         0.0431
     29 H7         18.1300    8.9765   15.4089 H         1 4KC         0.0431
     30 H8         17.8722    4.8973   13.3776 H         1 4KC         0.0670
     31 H9         17.3221    3.0195   14.9006 H         1 4KC         0.0649
     32 H10        14.4020    7.0143   14.8147 H         1 4KC         0.0670
     33 H11        13.8562    5.1307   16.2634 H         1 4KC         0.0649
     34 H12        15.5457    0.4079   16.6211 H         1 4KC         0.1635
     35 H13        16.2066    1.3068   15.2962 H         1 4KC         0.1635
     36 H14        20.0581   11.1535   15.3882 H         1 4KC         0.0537
     37 H15        20.2256   13.2073   13.9683 H         1 4KC         0.0541
     38 H16        19.3283   13.1862   11.6505 H         1 4KC         0.0541
@<TRIPOS>BOND
     1    2    1 ar 
     2    1   22 ar 
     3    5    2 1  
     4    2    8 ar 
     5    3    4 1  
     6    3    9 2  
     7   19    3 am 
     8    4   10 ar 
     9    4   12 ar 
    10   19    5 1  
    11    6    7 1  
    12    6   19 1  
    13    7    8 1  
    14    8   20 ar 
    15   10   11 ar 
    16   11   14 ar 
    17   12   13 ar 
    18   13   14 ar 
    19   14   15 1  
    20   15   16 am 
    21   15   17 2  
    22   15   18 2  
    23   20   21 ar 
    24   21   22 ar 
    25    1   23 1  
    26    5   24 1  
    27    5   25 1  
    28    6   26 1  
    29    6   27 1  
    30    7   28 1  
    31    7   29 1  
    32   10   30 1  
    33   11   31 1  
    34   12   32 1  
    35   13   33 1  
    36   16   34 1  
    37   16   35 1  
    38   20   36 1  
    39   21   37 1  
    40   22   38 1  
@<TRIPOS>SUBSTRUCTURE
     1 4KC         1

