### 
### Created by X-TOOL on Mon Sep 10 21:13:20 2018
### 

@<TRIPOS>MOLECULE
4z1k_ligand
   40    42     1     0     0
SMALL
GAST_HUCK


@<TRIPOS>ATOM
      1 C3         18.5820   11.0000   11.6180 C.ar      1 4KB        -0.0443
      2 C4         18.5520    9.9280   12.5010 C.ar      1 4KB        -0.0381
      3 C9         16.4650    7.1920   13.1550 C.2       1 4KB         0.2090
      4 C10        16.2010    6.0650   14.0930 C.ar      1 4KB         0.0503
      5 C5         17.9080    8.7100   11.9780 C.3       1 4KB         0.0576
      6 C6         18.7240    7.5970   13.9960 C.3       1 4KB         0.0421
      7 C7         19.0430    8.8860   14.6990 C.3       1 4KB        -0.0084
      8 C8         19.1010   10.0250   13.7780 C.ar      1 4KB        -0.0564
      9 O          15.4820    7.4680   12.4210 O.2       1 4KB        -0.3843
     10 C11        17.0600    4.9700   14.1960 C.ar      1 4KB        -0.0401
     11 C12        16.7230    3.9070   15.0470 C.ar      1 4KB        -0.0295
     12 C15        15.0690    6.0840   14.8380 C.ar      1 4KB        -0.0401
     13 C14        14.7310    5.0230   15.6450 C.ar      1 4KB        -0.0295
     14 C13        15.5520    3.8920   15.7950 C.ar      1 4KB         0.1122
     15 S          15.0570    2.6030   16.8190 S.o2      1 4KB         0.0677
     16 N1         15.6280    1.2720   16.2070 N.am      1 4KB        -0.2605
     17 O1         13.6510    2.6570   16.7980 O.2       1 4KB        -0.1499
     18 O2         15.6530    2.8410   18.0900 O.2       1 4KB        -0.1499
     19 N          17.6810    7.7500   13.0610 N.am      1 4KB        -0.2624
     20 C18        19.7170   11.2030   14.2140 C.ar      1 4KB        -0.0461
     21 C17        19.7560   12.2880   13.3300 C.ar      1 4KB         0.1026
     22 O17        20.3850   13.4260   13.8250 O.3       1 4KB        -0.3430
     23 C16        19.1850   12.1760   12.0460 C.ar      1 4KB         0.1027
     24 O16        19.2260   13.2630   11.1760 O.3       1 4KB        -0.3430
     25 H1         18.1490   10.9214   10.6273 H         1 4KB         0.0435
     26 H2         18.5591    8.2528   11.2184 H         1 4KB         0.0648
     27 H3         16.9434    8.9769   11.5216 H         1 4KB         0.0648
     28 H4         18.4231    6.8492   14.7445 H         1 4KB         0.0542
     29 H5         19.6243    7.2472   13.4696 H         1 4KB         0.0542
     30 H6         20.0184    8.7847   15.1974 H         1 4KB         0.0409
     31 H7         18.2649    9.0798   15.4519 H         1 4KB         0.0409
     32 H8         17.9799    4.9411   13.6232 H         1 4KB         0.0670
     33 H9         17.4018    3.0653   15.1240 H         1 4KB         0.0649
     34 H10        14.4188    6.9504   14.7971 H         1 4KB         0.0670
     35 H11        13.7933    5.0604   16.1875 H         1 4KB         0.0649
     36 H12        15.4500    0.3975   16.6582 H         1 4KB         0.1635
     37 H13        16.1692    1.3000   15.3665 H         1 4KB         0.1635
     38 H14        20.1505   11.2735   15.2051 H         1 4KB         0.0434
     39 H15        21.2861   13.2189   14.0431 H         1 4KB         0.2419
     40 H16        18.8025   13.0290   10.3584 H         1 4KB         0.2419
@<TRIPOS>BOND
     1    2    1 ar 
     2    1   23 ar 
     3    5    2 1  
     4    2    8 ar 
     5    3    4 1  
     6    3    9 2  
     7   19    3 am 
     8    4   10 ar 
     9    4   12 ar 
    10   19    5 1  
    11    6    7 1  
    12    6   19 1  
    13    7    8 1  
    14    8   20 ar 
    15   10   11 ar 
    16   11   14 ar 
    17   12   13 ar 
    18   13   14 ar 
    19   14   15 1  
    20   15   16 am 
    21   15   17 2  
    22   15   18 2  
    23   20   21 ar 
    24   21   22 1  
    25   21   23 ar 
    26   23   24 1  
    27    1   25 1  
    28    5   26 1  
    29    5   27 1  
    30    6   28 1  
    31    6   29 1  
    32    7   30 1  
    33    7   31 1  
    34   10   32 1  
    35   11   33 1  
    36   12   34 1  
    37   13   35 1  
    38   16   36 1  
    39   16   37 1  
    40   20   38 1  
    41   22   39 1  
    42   24   40 1  
@<TRIPOS>SUBSTRUCTURE
     1 4KB         1

