### 
### Created by X-TOOL on Mon Sep 10 21:13:23 2018
### 

@<TRIPOS>MOLECULE
4z1n_ligand
   38    40     1     0     0
SMALL
GAST_HUCK


@<TRIPOS>ATOM
      1 C3         18.5740   11.1000   11.7420 C.ar      1 4KD        -0.0649
      2 C4         18.5120    9.9230   12.5390 C.ar      1 4KD        -0.0187
      3 C9         16.3670    7.1990   13.0940 C.2       1 4KD         0.2092
      4 C10        16.1070    6.0690   14.0470 C.ar      1 4KD         0.0503
      5 C5         17.8510    8.6960   11.9280 C.3       1 4KD         0.0648
      6 C6         18.6470    7.5870   13.9690 C.3       1 4KD         0.0439
      7 C7         18.9260    8.8080   14.7730 C.3       1 4KD        -0.0009
      8 C8         19.0140    9.9700   13.8670 C.ar      1 4KD        -0.0372
      9 O          15.3980    7.5540   12.3990 O.2       1 4KD        -0.3843
     10 C11        16.9450    4.9320   14.0610 C.ar      1 4KD        -0.0401
     11 C12        16.6330    3.8940   14.9580 C.ar      1 4KD        -0.0295
     12 C15        15.0180    6.1240   14.8460 C.ar      1 4KD        -0.0401
     13 C14        14.7290    5.0480   15.6640 C.ar      1 4KD        -0.0295
     14 C13        15.5280    3.8900   15.7750 C.ar      1 4KD         0.1122
     15 S          15.0830    2.6420   16.8430 S.o2      1 4KD         0.0677
     16 N1         15.6860    1.3190   16.1990 N.am      1 4KD        -0.2605
     17 O1         13.6290    2.6370   16.7800 O.2       1 4KD        -0.1499
     18 O2         15.6500    2.9070   18.1280 O.2       1 4KD        -0.1499
     19 N          17.5750    7.7600   13.0070 N.am      1 4KD        -0.2605
     20 C18        19.6120   11.1400   14.3920 C.ar      1 4KD        -0.0667
     21 C17        19.6930   12.2770   13.5800 C.ar      1 4KD        -0.0755
     22 C16        19.1760   12.2650   12.2710 C.ar      1 4KD        -0.0754
     23 H1         18.1636   11.1036   10.7387 H         1 4KD         0.0538
     24 H2         18.5265    8.2329   11.1937 H         1 4KD         0.0670
     25 H3         16.9122    8.9838   11.4322 H         1 4KD         0.0670
     26 H4         18.3705    6.7735   14.6558 H         1 4KD         0.0545
     27 H5         19.5623    7.3120   13.4245 H         1 4KD         0.0545
     28 H6         19.8781    8.6863   15.3102 H         1 4KD         0.0431
     29 H7         18.1137    8.9661   15.4977 H         1 4KD         0.0431
     30 H8         17.8020    4.8614   13.4010 H         1 4KD         0.0670
     31 H9         17.3055    3.0453   15.0077 H         1 4KD         0.0649
     32 H10        14.3799    7.0003   14.8452 H         1 4KD         0.0670
     33 H11        13.8260    5.0970   16.2617 H         1 4KD         0.0649
     34 H12        15.5540    0.4373   16.6521 H         1 4KD         0.1635
     35 H13        16.1972    1.3687   15.3410 H         1 4KD         0.1635
     36 H14        20.0001   11.1554   15.4040 H         1 4KD         0.0537
     37 H15        20.1593   13.1773   13.9637 H         1 4KD         0.0541
     38 H16        19.2400   13.1591   11.6614 H         1 4KD         0.0541
@<TRIPOS>BOND
     1    2    1 ar 
     2    1   22 ar 
     3    5    2 1  
     4    2    8 ar 
     5    3    4 1  
     6    3    9 2  
     7   19    3 am 
     8    4   10 ar 
     9    4   12 ar 
    10   19    5 1  
    11    6    7 1  
    12    6   19 1  
    13    7    8 1  
    14    8   20 ar 
    15   10   11 ar 
    16   11   14 ar 
    17   12   13 ar 
    18   13   14 ar 
    19   14   15 1  
    20   15   16 am 
    21   15   17 2  
    22   15   18 2  
    23   20   21 ar 
    24   21   22 ar 
    25    1   23 1  
    26    5   24 1  
    27    5   25 1  
    28    6   26 1  
    29    6   27 1  
    30    7   28 1  
    31    7   29 1  
    32   10   30 1  
    33   11   31 1  
    34   12   32 1  
    35   13   33 1  
    36   16   34 1  
    37   16   35 1  
    38   20   36 1  
    39   21   37 1  
    40   22   38 1  
@<TRIPOS>SUBSTRUCTURE
     1 4KD         1

