### 
### Created by X-TOOL on Mon Sep 10 21:13:24 2018
### 

@<TRIPOS>MOLECULE
4z1q_ligand
   51    55     1     0     0
SMALL
GAST_HUCK


@<TRIPOS>ATOM
      1 CAU       -19.5400  -63.2340  136.5830 C.ar      1 558        -0.0478
      2 CAT       -20.3370  -64.0030  135.7350 C.ar      1 558        -0.0162
      3 CAS       -21.7130  -64.0300  135.9400 C.ar      1 558         0.1089
      4 NBA       -22.4110  -64.7710  135.0900 N.pl3     1 558        -0.3220
      5 NAR       -22.2850  -63.3710  136.9810 N.ar      1 558        -0.2848
      6 CAQ       -21.4900  -62.5980  137.8820 C.ar      1 558         0.0027
      7 CAO       -20.0990  -62.5360  137.6820 C.ar      1 558        -0.0110
      8 CAM       -19.2250  -61.8060  138.5210 C.ar      1 558        -0.0362
      9 CAN       -17.9490  -61.4750  138.0270 C.ar      1 558        -0.0369
     10 CAC       -17.0350  -60.7560  138.8310 C.ar      1 558         0.0974
     11 CAL       -19.5820  -61.4650  139.8280 C.ar      1 558        -0.0713
     12 CAK       -18.6790  -60.7350  140.6480 C.ar      1 558        -0.0361
     13 CAB       -17.3950  -60.3740  140.1380 C.ar      1 558         0.1272
     14 NAA       -16.4980  -59.7140  140.9320 N.pl3     1 558        -0.1725
     15 CAJ       -16.5500  -58.6700  141.7070 C.2       1 558         0.1386
     16 CBC       -17.8700  -57.9790  141.9030 C.3       1 558         0.0158
     17 NAI       -15.3400  -58.4140  142.2860 N.2       1 558        -0.2826
     18 NAH       -14.5680  -59.2760  141.8150 N.2       1 558        -0.2821
     19 CAG       -15.1990  -60.0670  140.9900 C.2       1 558         0.1467
     20 CAF       -14.6290  -61.1870  140.2620 C.3       1 558         0.0595
     21 CBB       -13.2330  -61.5890  140.8310 C.3       1 558        -0.0441
     22 CAE       -14.5140  -60.8710  138.8040 C.3       1 558         0.0619
     23 NAD       -15.8100  -60.4160  138.2590 N.pl3     1 558        -0.2586
     24 CAP       -15.7690  -59.7870  137.0540 C.ar      1 558         0.0600
     25 CAV       -16.8920  -59.1030  136.5170 C.ar      1 558        -0.0394
     26 CAW       -16.8090  -58.4580  135.2890 C.ar      1 558        -0.0586
     27 CAX       -15.6360  -58.4740  134.5330 C.ar      1 558         0.0270
     28 CLB       -15.5700  -57.6740  132.9830 Cl        1 558        -0.0822
     29 CAY       -14.5510  -59.1910  135.0180 C.ar      1 558        -0.0586
     30 CAZ       -14.5830  -59.8300  136.2540 C.ar      1 558        -0.0394
     31 H1        -18.4739  -63.1692  136.3979 H         1 558         0.0698
     32 H2        -19.8905  -64.5718  134.9274 H         1 558         0.0610
     33 H3        -23.4347  -64.8359  135.1837 H         1 558         0.1770
     34 H4        -21.9294  -65.2816  134.3361 H         1 558         0.1770
     35 H5        -21.9516  -62.0675  138.7070 H         1 558         0.0783
     36 H6        -17.6655  -61.7732  137.0241 H         1 558         0.0502
     37 H7        -20.5502  -61.7579  140.2178 H         1 558         0.0500
     38 H8        -18.9637  -60.4538  141.6554 H         1 558         0.0547
     39 H9        -17.7386  -57.1231  142.5813 H         1 558         0.0467
     40 H10       -18.5922  -58.6849  142.3391 H         1 558         0.0467
     41 H11       -18.2454  -57.6232  140.9322 H         1 558         0.0467
     42 H12       -15.3061  -62.0463  140.3766 H         1 558         0.0558
     43 H13       -12.8336  -62.4378  140.2566 H         1 558         0.0260
     44 H14       -13.3368  -61.8776  141.8874 H         1 558         0.0260
     45 H15       -12.5443  -60.7351  140.7502 H         1 558         0.0260
     46 H16       -14.1934  -61.7741  138.2640 H         1 558         0.0593
     47 H17       -13.7663  -60.0762  138.6657 H         1 558         0.0593
     48 H18       -17.8236  -59.0839  137.0709 H         1 558         0.0528
     49 H19       -17.6761  -57.9298  134.9092 H         1 558         0.0591
     50 H20       -13.6518  -59.2552  134.4161 H         1 558         0.0591
     51 H21       -13.7082  -60.3611  136.6114 H         1 558         0.0528
@<TRIPOS>BOND
     1    1    2 ar 
     2    1    7 ar 
     3    2    3 ar 
     4    3    4 1  
     5    3    5 ar 
     6    5    6 ar 
     7    6    7 ar 
     8    7    8 1  
     9    8    9 ar 
    10    8   11 ar 
    11    9   10 ar 
    12   10   13 ar 
    13   10   23 1  
    14   11   12 ar 
    15   12   13 ar 
    16   13   14 1  
    17   14   15 1  
    18   14   19 1  
    19   15   16 1  
    20   15   17 2  
    21   17   18 1  
    22   18   19 2  
    23   19   20 1  
    24   20   21 1  
    25   20   22 1  
    26   22   23 1  
    27   23   24 1  
    28   24   25 ar 
    29   24   30 ar 
    30   25   26 ar 
    31   26   27 ar 
    32   27   28 1  
    33   27   29 ar 
    34   29   30 ar 
    35    1   31 1  
    36    2   32 1  
    37    4   33 1  
    38    4   34 1  
    39    6   35 1  
    40    9   36 1  
    41   11   37 1  
    42   12   38 1  
    43   16   39 1  
    44   16   40 1  
    45   16   41 1  
    46   20   42 1  
    47   21   43 1  
    48   21   44 1  
    49   21   45 1  
    50   22   46 1  
    51   22   47 1  
    52   25   48 1  
    53   26   49 1  
    54   29   50 1  
    55   30   51 1  
@<TRIPOS>SUBSTRUCTURE
     1 558         1

