### 
### Created by X-TOOL on Mon Sep 10 21:13:23 2018
### 

@<TRIPOS>MOLECULE
4z1s_ligand
   51    55     1     0     0
SMALL
GAST_HUCK


@<TRIPOS>ATOM
      1 CAU       -27.9340  -61.1300  135.9780 C.ar      1 559        -0.0478
      2 CAT       -28.7770  -61.8680  135.1870 C.ar      1 559        -0.0162
      3 CAS       -30.1380  -61.8270  135.4140 C.ar      1 559         0.1089
      4 NBA       -30.8910  -62.5340  134.6020 N.pl3     1 559        -0.3220
      5 NAR       -30.6570  -61.0970  136.3990 N.ar      1 559        -0.2848
      6 CAQ       -29.8190  -60.3090  137.2470 C.ar      1 559         0.0027
      7 CAO       -28.4190  -60.3090  137.0210 C.ar      1 559        -0.0110
      8 CAM       -27.5060  -59.5300  137.8970 C.ar      1 559        -0.0362
      9 CAN       -26.3160  -59.0860  137.3350 C.ar      1 559        -0.0369
     10 CAC       -25.4220  -58.2940  138.0780 C.ar      1 559         0.0974
     11 CAL       -27.8580  -59.2120  139.1710 C.ar      1 559        -0.0713
     12 CAK       -26.9980  -58.4240  139.9500 C.ar      1 559        -0.0361
     13 CAB       -25.7730  -57.9730  139.4110 C.ar      1 559         0.1272
     14 NAA       -24.9040  -57.2220  140.2290 N.pl3     1 559        -0.1725
     15 CAJ       -25.0940  -56.2340  141.0950 C.2       1 559         0.1386
     16 CBC       -26.4400  -55.6190  141.3520 C.3       1 559         0.0158
     17 NAI       -23.9790  -55.8550  141.6070 N.2       1 559        -0.2826
     18 NAH       -22.9310  -56.7100  141.0880 N.2       1 559        -0.2821
     19 CAG       -23.5450  -57.5330  140.2390 C.2       1 559         0.1467
     20 CAF       -22.7670  -58.5580  139.5300 C.3       1 559         0.0595
     21 CBB       -23.2530  -59.9130  139.9970 C.3       1 559        -0.0441
     22 CAE       -22.8840  -58.3620  138.0340 C.3       1 559         0.0619
     23 NAD       -24.2040  -57.8800  137.5000 N.pl3     1 559        -0.2586
     24 CAP       -24.2140  -57.3650  136.2350 C.ar      1 559         0.0600
     25 CAV       -25.3160  -56.6980  135.7340 C.ar      1 559        -0.0394
     26 CAW       -25.3670  -56.0710  134.5090 C.ar      1 559        -0.0586
     27 CAX       -24.2560  -56.0920  133.7170 C.ar      1 559         0.0270
     28 CLB       -24.1800  -55.3490  132.1790 Cl        1 559        -0.0822
     29 CAY       -23.1010  -56.8180  134.1760 C.ar      1 559        -0.0586
     30 CAZ       -23.0420  -57.4190  135.4120 C.ar      1 559        -0.0394
     31 H1        -26.8661  -61.1778  135.7982 H         1 559         0.0698
     32 H2        -28.3765  -62.4806  134.3874 H         1 559         0.0610
     33 H3        -31.9138  -62.5413  134.7236 H         1 559         0.1770
     34 H4        -30.4585  -63.0809  133.8439 H         1 559         0.1770
     35 H5        -30.2468  -59.7204  138.0505 H         1 559         0.0783
     36 H6        -26.0736  -59.3527  136.3127 H         1 559         0.0502
     37 H7        -28.7969  -59.5650  139.5820 H         1 559         0.0500
     38 H8        -27.2734  -58.1614  140.9650 H         1 559         0.0547
     39 H9        -26.3420  -54.8243  142.1062 H         1 559         0.0467
     40 H10       -27.1315  -56.3910  141.7206 H         1 559         0.0467
     41 H11       -26.8322  -55.1913  140.4175 H         1 559         0.0467
     42 H12       -21.7063  -58.4563  139.8031 H         1 559         0.0558
     43 H13       -22.6870  -60.7031  139.4818 H         1 559         0.0260
     44 H14       -24.3232  -60.0184  139.7657 H         1 559         0.0260
     45 H15       -23.1019  -60.0025  141.0829 H         1 559         0.0260
     46 H16       -22.6686  -59.3294  137.5567 H         1 559         0.0593
     47 H17       -22.1203  -57.6283  137.7367 H         1 559         0.0593
     48 H18       -26.2065  -56.6661  136.3513 H         1 559         0.0528
     49 H19       -26.2711  -55.5711  134.1807 H         1 559         0.0591
     50 H20       -22.2414  -56.8944  133.5200 H         1 559         0.0591
     51 H21       -22.1405  -57.9161  135.7516 H         1 559         0.0528
@<TRIPOS>BOND
     1    1    2 ar 
     2    1    7 ar 
     3    2    3 ar 
     4    3    4 1  
     5    3    5 ar 
     6    5    6 ar 
     7    6    7 ar 
     8    7    8 1  
     9    8    9 ar 
    10    8   11 ar 
    11    9   10 ar 
    12   10   13 ar 
    13   10   23 1  
    14   11   12 ar 
    15   12   13 ar 
    16   13   14 1  
    17   14   15 1  
    18   14   19 1  
    19   15   16 1  
    20   15   17 2  
    21   17   18 1  
    22   18   19 2  
    23   19   20 1  
    24   20   21 1  
    25   20   22 1  
    26   22   23 1  
    27   23   24 1  
    28   24   25 ar 
    29   24   30 ar 
    30   25   26 ar 
    31   26   27 ar 
    32   27   28 1  
    33   27   29 ar 
    34   29   30 ar 
    35    1   31 1  
    36    2   32 1  
    37    4   33 1  
    38    4   34 1  
    39    6   35 1  
    40    9   36 1  
    41   11   37 1  
    42   12   38 1  
    43   16   39 1  
    44   16   40 1  
    45   16   41 1  
    46   20   42 1  
    47   21   43 1  
    48   21   44 1  
    49   21   45 1  
    50   22   46 1  
    51   22   47 1  
    52   25   48 1  
    53   26   49 1  
    54   29   50 1  
    55   30   51 1  
@<TRIPOS>SUBSTRUCTURE
     1 559         1

