### 
### Created by X-TOOL on Mon Sep 10 21:13:29 2018
### 

@<TRIPOS>MOLECULE
4z22_ligand
   54    58     1     0     0
SMALL
GAST_HUCK


@<TRIPOS>ATOM
      1 CAA        -1.4740    2.6380  -30.3280 C.ar      1 4KG        -0.0579
      2 CAB        -0.7910    3.3320  -31.3190 C.ar      1 4KG        -0.0685
      3 CAC        -0.0630    4.4670  -30.9890 C.ar      1 4KG        -0.0687
      4 CAD        -0.0170    4.9110  -29.6720 C.ar      1 4KG        -0.0685
      5 CAE        -0.6990    4.2160  -28.6790 C.ar      1 4KG        -0.0579
      6 CAF        -1.4260    3.0780  -29.0080 C.ar      1 4KG        -0.0145
      7 CAG        -2.1540    2.3350  -27.9550 C.3       1 4KG         0.0930
      8 OAH        -1.3310    2.1600  -26.8000 O.3       1 4KG        -0.3590
      9 CAI        -3.3720    3.1240  -27.5040 C.3       1 4KG        -0.0141
     10 CAJ        -3.4520    2.9030  -26.0030 C.3       1 4KG        -0.0203
     11 CAK        -2.1040    2.3190  -25.6060 C.3       1 4KG         0.0816
     12 CAL        -1.3990    3.2780  -24.6560 C.3       1 4KG         0.0587
     13 NAM        -0.1490    2.6850  -24.1710 N.am      1 4KG        -0.2346
     14 CAN         1.0810    3.0980  -24.7180 C.2       1 4KG         0.2527
     15 OAO         1.1140    3.9690  -25.6160 O.2       1 4KG        -0.3550
     16 CAP        -0.1550    1.7000  -23.1590 C.cat     1 4KG         0.1855
     17 NAQ        -1.3190    1.2820  -22.6100 N.pl3     1 4KG        -0.3373
     18 NAR         1.0070    1.1670  -22.7270 N.pl3     1 4KG        -0.2535
     19 CAS         2.1940    1.5550  -23.2440 C.ar      1 4KG         0.1440
     20 CAT         3.3640    0.9760  -22.7660 C.ar      1 4KG         0.0277
     21 CAU         2.2540    2.5230  -24.2440 C.ar      1 4KG         0.1472
     22 CAV         3.4850    2.9090  -24.7620 C.ar      1 4KG         0.0210
     23 CAW         4.6550    2.3300  -24.2810 C.ar      1 4KG         0.0123
     24 CAX         4.5940    1.3580  -23.2860 C.ar      1 4KG         0.0549
     25 CAY         5.8390    0.7370  -22.7580 C.ar      1 4KG         0.0467
     26 CAZ         5.8010   -0.5290  -22.1820 C.ar      1 4KG        -0.0128
     27 CBA         6.9640   -1.1100  -21.6840 C.ar      1 4KG        -0.0263
     28 CBB         8.1700   -0.4240  -21.7610 C.ar      1 4KG        -0.0275
     29 CBC         8.2070    0.8420  -22.3350 C.ar      1 4KG        -0.0263
     30 CBD         7.0440    1.4220  -22.8330 C.ar      1 4KG        -0.0128
     31 H1         -2.0451    1.7526  -30.5829 H         1 4KG         0.0557
     32 H2         -0.8264    2.9883  -32.3465 H         1 4KG         0.0599
     33 H3          0.4715    5.0091  -31.7607 H         1 4KG         0.0559
     34 H4          0.5507    5.7992  -29.4192 H         1 4KG         0.0599
     35 H5         -0.6637    4.5607  -27.6519 H         1 4KG         0.0557
     36 H6         -2.4627    1.3554  -28.3489 H         1 4KG         0.0760
     37 H7         -4.2801    2.7490  -27.9986 H         1 4KG         0.0313
     38 H8         -3.2457    4.1929  -27.7309 H         1 4KG         0.0313
     39 H9         -4.2622    2.1996  -25.7605 H         1 4KG         0.0293
     40 H10        -3.6262    3.8564  -25.4827 H         1 4KG         0.0293
     41 H11        -2.2429    1.3449  -25.1142 H         1 4KG         0.0618
     42 H12        -2.0564    3.4898  -23.7999 H         1 4KG         0.0543
     43 H13        -1.1744    4.2150  -25.1866 H         1 4KG         0.0543
     44 H14        -1.3117    0.5630  -21.8725 H         1 4KG         0.1753
     45 H15        -2.2124    1.6828  -22.9296 H         1 4KG         0.1753
     46 H16         0.9890    0.4497  -21.9880 H         1 4KG         0.2239
     47 H17         3.3163    0.2249  -21.9859 H         1 4KG         0.0672
     48 H18         3.5332    3.6613  -25.5409 H         1 4KG         0.0821
     49 H19         5.6149    2.6359  -24.6812 H         1 4KG         0.1079
     50 H20         4.8611   -1.0656  -22.1207 H         1 4KG         0.0835
     51 H21         6.9288   -2.0967  -21.2365 H         1 4KG         0.0729
     52 H22         9.0778   -0.8737  -21.3754 H         1 4KG         0.0909
     53 H23         9.1463    1.3798  -22.3949 H         1 4KG         0.0729
     54 H24         7.0792    2.4091  -23.2796 H         1 4KG         0.0835
@<TRIPOS>BOND
     1    1    2 ar 
     2    1    6 ar 
     3    2    3 ar 
     4    3    4 ar 
     5    4    5 ar 
     6    5    6 ar 
     7    6    7 1  
     8    7    8 1  
     9    7    9 1  
    10    8   11 1  
    11    9   10 1  
    12   10   11 1  
    13   11   12 1  
    14   12   13 1  
    15   13   14 am 
    16   13   16 ar 
    17   14   15 2  
    18   14   21 1  
    19   16   17 ar 
    20   16   18 ar 
    21   18   19 1  
    22   19   20 ar 
    23   19   21 ar 
    24   20   24 ar 
    25   21   22 ar 
    26   22   23 ar 
    27   23   24 ar 
    28   24   25 1  
    29   25   26 ar 
    30   25   30 ar 
    31   26   27 ar 
    32   27   28 ar 
    33   28   29 ar 
    34   29   30 ar 
    35    1   31 1  
    36    2   32 1  
    37    3   33 1  
    38    4   34 1  
    39    5   35 1  
    40    7   36 1  
    41    9   37 1  
    42    9   38 1  
    43   10   39 1  
    44   10   40 1  
    45   11   41 1  
    46   12   42 1  
    47   12   43 1  
    48   17   44 1  
    49   17   45 1  
    50   18   46 1  
    51   20   47 1  
    52   22   48 1  
    53   23   49 1  
    54   26   50 1  
    55   27   51 1  
    56   28   52 1  
    57   29   53 1  
    58   30   54 1  
@<TRIPOS>SUBSTRUCTURE
     1 4KG         1

