### 
### Created by X-TOOL on Mon Sep 10 21:13:23 2018
### 

@<TRIPOS>MOLECULE
4z2b_ligand
   62    67     1     0     0
SMALL
GAST_HUCK


@<TRIPOS>ATOM
      1 C13       -10.2460  -10.3460   30.4420 C.ar      1 4LC         0.0349
      2 C17       -10.0610   -8.8890   30.1440 C.2       1 4LC         0.2001
      3 C20       -12.4980   -8.6120   30.4260 C.3       1 4LC         0.0575
      4 C01       -10.8370  -13.5930   27.3290 C.3       1 4LC         0.0436
      5 N05       -10.7910  -13.6660   28.7950 N.pl3     1 4LC        -0.2423
      6 C06       -10.9840  -14.7400   29.6240 C.2       1 4LC         0.1227
      7 N07       -10.7660  -14.4570   30.8960 N.2       1 4LC        -0.3194
      8 C08       -10.5520  -13.0780   30.9170 C.ar      1 4LC         0.0264
      9 C09       -10.3570  -12.2100   31.9930 C.ar      1 4LC        -0.0598
     10 C11       -10.1720  -10.8580   31.7420 C.ar      1 4LC        -0.0592
     11 C14       -10.4480  -11.2120   29.3640 C.ar      1 4LC        -0.0216
     12 C16       -10.5880  -12.5680   29.6250 C.ar      1 4LC         0.0852
     13 O18        -8.9530   -8.4620   29.8810 O.2       1 4LC        -0.3882
     14 N19       -11.1530   -8.0800   30.1600 N.am      1 4LC        -0.2617
     15 C23       -13.1870   -7.7610   31.4660 C.3       1 4LC         0.0710
     16 O26       -13.2510   -6.3860   31.0350 O.3       1 4LC        -0.3598
     17 C27       -11.9560   -5.8190   30.7900 C.3       1 4LC         0.1177
     18 C29       -11.1500   -6.6490   29.7810 C.3       1 4LC         0.1031
     19 C31       -11.6350   -6.4440   28.3450 C.3       1 4LC         0.0716
     20 O34       -11.0330   -7.3730   27.4520 O.3       1 4LC        -0.3925
     21 C36       -11.2660   -5.5030   32.1130 C.ar      1 4LC        -0.0122
     22 C37       -11.9120   -4.7140   33.0580 C.ar      1 4LC        -0.0578
     23 C39       -11.2840   -4.3710   34.2490 C.ar      1 4LC        -0.0685
     24 C41       -10.0070   -4.8220   34.5180 C.ar      1 4LC        -0.0687
     25 C43        -9.3400   -5.5900   33.5810 C.ar      1 4LC        -0.0685
     26 C45        -9.9690   -5.9410   32.3890 C.ar      1 4LC        -0.0578
     27 C47       -11.0870  -16.1320   29.1720 C.2       1 4LC         0.0488
     28 C48       -10.3950  -17.2090   29.6720 C.2       1 4LC         0.0585
     29 N50       -10.7620  -18.3520   29.0130 N.pl3     1 4LC        -0.2623
     30 C52       -11.6090  -18.0260   27.9800 C.ar      1 4LC         0.0834
     31 C53       -12.1890  -18.8290   27.0010 C.ar      1 4LC        -0.0051
     32 C55       -13.0770  -18.2430   26.1000 C.ar      1 4LC         0.0813
     33 C56       -13.3810  -16.8820   26.1810 C.ar      1 4LC        -0.0448
     34 C58       -12.8050  -16.0910   27.1750 C.ar      1 4LC        -0.0632
     35 C60       -11.9050  -16.6470   28.0860 C.ar      1 4LC         0.0017
     36 C61       -13.6260  -19.0350   25.0320 C.1       1 4LC         0.0897
     37 N62       -14.0530  -19.6360   24.1700 N.1       1 4LC        -0.3352
     38 H1        -12.4160   -9.6450   30.7951 H         1 4LC         0.0544
     39 H2        -13.0860   -8.6003   29.4964 H         1 4LC         0.0544
     40 H3        -11.0093  -14.5983   26.9171 H         1 4LC         0.0561
     41 H4         -9.8813  -13.2008   26.9512 H         1 4LC         0.0561
     42 H5        -11.6550  -12.9253   27.0206 H         1 4LC         0.0561
     43 H6        -10.3502  -12.5867   33.0094 H         1 4LC         0.0545
     44 H7         -9.9665  -10.1865   32.5678 H         1 4LC         0.0562
     45 H8        -10.4942  -10.8341   28.3491 H         1 4LC         0.0596
     46 H9        -12.6253   -7.8182   32.4100 H         1 4LC         0.0582
     47 H10       -14.2081   -8.1384   31.6234 H         1 4LC         0.0582
     48 H11       -12.1242   -4.8479   30.3014 H         1 4LC         0.0784
     49 H12       -10.1084   -6.2980   29.8250 H         1 4LC         0.0629
     50 H13       -11.3795   -5.4234   28.0241 H         1 4LC         0.0583
     51 H14       -12.7267   -6.5755   28.3146 H         1 4LC         0.0583
     52 H15       -11.3549   -7.2185   26.5717 H         1 4LC         0.2095
     53 H16       -12.9185   -4.3619   32.8631 H         1 4LC         0.0557
     54 H17       -11.7989   -3.7466   34.9702 H         1 4LC         0.0599
     55 H18        -9.5294   -4.5752   35.4593 H         1 4LC         0.0559
     56 H19        -8.3256   -5.9194   33.7747 H         1 4LC         0.0599
     57 H20        -9.4468   -6.5601   31.6686 H         1 4LC         0.0557
     58 H21        -9.6615  -17.1605   30.4754 H         1 4LC         0.1142
     59 H22       -10.4527  -19.3047   29.2530 H         1 4LC         0.2355
     60 H23       -11.9553  -19.8858   26.9409 H         1 4LC         0.0668
     61 H24       -14.0673  -16.4388   25.4685 H         1 4LC         0.0603
     62 H25       -13.0575  -15.0389   27.2405 H         1 4LC         0.0560
@<TRIPOS>BOND
     1    1    2 1  
     2   10    1 ar 
     3    1   11 ar 
     4    2   13 2  
     5    2   14 am 
     6   14    3 1  
     7    3   15 1  
     8    5    4 1  
     9    5    6 1  
    10   12    5 1  
    11    7    6 2  
    12    6   27 1  
    13    8    7 1  
    14    9    8 ar 
    15    8   12 ar 
    16    9   10 ar 
    17   11   12 ar 
    18   14   18 1  
    19   15   16 1  
    20   16   17 1  
    21   17   18 1  
    22   17   21 1  
    23   18   19 1  
    24   19   20 1  
    25   21   22 ar 
    26   21   26 ar 
    27   22   23 ar 
    28   23   24 ar 
    29   24   25 ar 
    30   25   26 ar 
    31   27   28 2  
    32   27   35 1  
    33   28   29 1  
    34   29   30 1  
    35   30   31 ar 
    36   30   35 ar 
    37   31   32 ar 
    38   32   33 ar 
    39   32   36 1  
    40   33   34 ar 
    41   34   35 ar 
    42   36   37 3  
    43    3   38 1  
    44    3   39 1  
    45    4   40 1  
    46    4   41 1  
    47    4   42 1  
    48    9   43 1  
    49   10   44 1  
    50   11   45 1  
    51   15   46 1  
    52   15   47 1  
    53   17   48 1  
    54   18   49 1  
    55   19   50 1  
    56   19   51 1  
    57   20   52 1  
    58   22   53 1  
    59   23   54 1  
    60   24   55 1  
    61   25   56 1  
    62   26   57 1  
    63   28   58 1  
    64   29   59 1  
    65   31   60 1  
    66   33   61 1  
    67   34   62 1  
@<TRIPOS>SUBSTRUCTURE
     1 4LC         1

