### 
### Created by X-TOOL on Mon Sep 10 21:13:25 2018
### 

@<TRIPOS>MOLECULE
4z2g_ligand
  112   113     1     0     0
SMALL
GAST_HUCK


@<TRIPOS>ATOM
      1 N1        -20.7580    3.5640  -31.5190 N.am      1 M6V        -0.2625
      2 C2        -24.3480    5.4910  -33.3780 C.3       1 M6V         0.0879
      3 N3        -18.6840   -1.8170  -29.8880 N.pl3     1 M6V        -0.2545
      4 C4        -25.1990    3.1490  -32.6670 C.3       1 M6V         0.0183
      5 C5        -24.9270    1.6450  -32.9280 C.3       1 M6V         0.0936
      6 C6        -25.9070    1.0500  -33.9480 C.3       1 M6V         0.0900
      7 C21       -20.5400   -6.2790  -30.9110 C.3       1 M6V         0.0199
      8 N5        -20.9570   -5.0910  -30.1890 N.am      1 M6V        -0.2765
      9 C20       -20.0430   -4.1390  -30.0380 C.2       1 M6V         0.2581
     10 O5        -18.9040   -4.2680  -30.5790 O.2       1 M6V        -0.4011
     11 N4        -20.4640   -3.0950  -29.3120 N.am      1 M6V        -0.2102
     12 C19       -19.7920   -1.9590  -29.2610 C.cat     1 M6V         0.3281
     13 N2        -20.2830   -0.9500  -28.5390 N.pl3     1 M6V        -0.2420
     14 C16       -19.0070    2.2950  -30.3420 C.3       1 M6V        -0.0288
     15 C15       -19.4640    2.8880  -31.6910 C.3       1 M6V         0.0329
     16 C14       -21.6950    3.5870  -32.4550 C.2       1 M6V         0.3199
     17 O4        -21.4890    3.2500  -33.5900 O.2       1 M6V        -0.3775
     18 O3        -23.0310    3.8980  -32.0500 O.3       1 M6V        -0.2575
     19 C3        -24.0040    3.9930  -33.0950 C.3       1 M6V         0.1135
     20 C31       -25.6130    3.5310  -31.2420 C.3       1 M6V        -0.0571
     21 C30       -23.2570    6.0940  -34.2690 C.3       1 M6V        -0.0412
     22 C1        -25.6900    5.7250  -34.0430 C.2       1 M6V         0.2398
     23 O1        -25.7810    5.7310  -35.2370 O.2       1 M6V        -0.3700
     24 O2        -26.9090    5.9080  -33.2700 O.3       1 M6V        -0.2703
     25 C13       -28.0610    6.4430  -33.9310 C.3       1 M6V         0.1181
     26 C28       -28.3490    7.8470  -33.3830 C.3       1 M6V        -0.0222
     27 C29       -27.2010    8.7810  -33.7270 C.3       1 M6V        -0.0625
     28 C12       -29.2320    5.4990  -33.6910 C.3       1 M6V         0.1200
     29 O10       -30.4310    6.1090  -34.1430 O.3       1 M6V        -0.3833
     30 C35       -29.5030    5.3190  -32.1930 C.3       1 M6V        -0.0308
     31 C11       -28.8380    4.2170  -34.5110 C.3       1 M6V         0.0979
     32 C10       -29.4730    2.8870  -34.0840 C.3       1 M6V         0.0120
     33 C34       -30.9870    2.9130  -33.9180 C.3       1 M6V        -0.0576
     34 O9        -28.9890    4.3580  -35.9330 O.3       1 M6V        -0.3427
     35 C25       -28.3260    3.3720  -36.7380 C.3       1 M6V         0.1653
     36 C26       -27.0400    3.9070  -37.3520 C.3       1 M6V        -0.0108
     37 C27       -29.2780    3.0140  -37.8780 C.3       1 M6V        -0.0108
     38 O8        -27.9990    2.1930  -35.9750 O.3       1 M6V        -0.3453
     39 C9        -29.0060    1.7600  -35.0310 C.3       1 M6V         0.0696
     40 C8        -28.4590    0.5220  -34.2630 C.3       1 M6V        -0.0144
     41 C33       -29.5990   -0.1860  -33.5050 C.3       1 M6V        -0.0600
     42 C7        -27.2820    0.8310  -33.3050 C.3       1 M6V        -0.0169
     43 O7        -25.9780    1.9130  -35.0910 O.3       1 M6V        -0.3863
     44 C32       -25.3340   -0.2830  -34.4040 C.3       1 M6V        -0.0336
     45 O6        -24.9870    0.8470  -31.7200 O.3       1 M6V        -0.3609
     46 C22       -23.7550    0.8960  -31.0250 C.3       1 M6V         0.1085
     47 C23       -22.8430   -0.0540  -31.6160 C.1       1 M6V        -0.0773
     48 C24       -22.0350   -0.8840  -32.1250 C.1       1 M6V        -0.1169
     49 C17       -19.4050    0.8350  -30.1110 C.3       1 M6V        -0.0095
     50 C18       -19.6090    0.3670  -28.6260 C.3       1 M6V         0.0887
     51 H1        -20.9398    4.0294  -30.6528 H         1 M6V         0.1867
     52 H2        -24.3546    6.0195  -32.4133 H         1 M6V         0.0580
     53 H3        -18.3043   -2.5954  -30.4455 H         1 M6V         0.3198
     54 H4        -18.1728   -0.9244  -29.8346 H         1 M6V         0.3198
     55 H5        -26.0439    3.4220  -33.3162 H         1 M6V         0.0354
     56 H6        -23.9105    1.5630  -33.3404 H         1 M6V         0.0629
     57 H7        -21.3800   -6.9869  -30.9684 H         1 M6V         0.0481
     58 H8        -19.6977   -6.7514  -30.3843 H         1 M6V         0.0481
     59 H9        -20.2263   -5.9991  -31.9275 H         1 M6V         0.0481
     60 H10       -21.8832   -4.9943  -29.8246 H         1 M6V         0.1841
     61 H11       -21.3141   -3.1783  -28.7921 H         1 M6V         0.1851
     62 H12       -21.1084   -1.0829  -27.9373 H         1 M6V         0.3223
     63 H13       -19.4471    2.9006  -29.5360 H         1 M6V         0.0286
     64 H14       -17.9101    2.3617  -30.2936 H         1 M6V         0.0286
     65 H15       -18.7161    3.6132  -32.0443 H         1 M6V         0.0519
     66 H16       -19.5685    2.0796  -32.4297 H         1 M6V         0.0519
     67 H17       -23.5875    3.5634  -34.0180 H         1 M6V         0.0680
     68 H18       -26.4753    2.9211  -30.9348 H         1 M6V         0.0234
     69 H19       -25.8880    4.5957  -31.2130 H         1 M6V         0.0234
     70 H20       -24.7729    3.3504  -30.5552 H         1 M6V         0.0234
     71 H21       -23.4919    7.1491  -34.4730 H         1 M6V         0.0259
     72 H22       -23.2098    5.5389  -35.2175 H         1 M6V         0.0259
     73 H23       -22.2862    6.0270  -33.7562 H         1 M6V         0.0259
     74 H24       -27.8685    6.5126  -35.0118 H         1 M6V         0.0679
     75 H25       -28.4628    7.7959  -32.2901 H         1 M6V         0.0292
     76 H26       -29.2778    8.2301  -33.8309 H         1 M6V         0.0292
     77 H27       -27.4141    9.7850  -33.3314 H         1 M6V         0.0231
     78 H28       -27.0864    8.8342  -34.8197 H         1 M6V         0.0231
     79 H29       -26.2714    8.4000  -33.2789 H         1 M6V         0.0231
     80 H30       -30.3593    6.2960  -35.0716 H         1 M6V         0.2104
     81 H31       -30.3520    4.6336  -32.0538 H         1 M6V         0.0259
     82 H32       -29.7416    6.2943  -31.7437 H         1 M6V         0.0259
     83 H33       -28.6099    4.8999  -31.7065 H         1 M6V         0.0259
     84 H34       -27.7595    4.0982  -34.3299 H         1 M6V         0.0630
     85 H35       -29.0666    2.6564  -33.0882 H         1 M6V         0.0349
     86 H36       -31.3395    1.9169  -33.6123 H         1 M6V         0.0234
     87 H37       -31.4560    3.1905  -34.8735 H         1 M6V         0.0234
     88 H38       -31.2589    3.6503  -33.1483 H         1 M6V         0.0234
     89 H39       -27.2625    4.8090  -37.9409 H         1 M6V         0.0281
     90 H40       -26.6000    3.1407  -38.0071 H         1 M6V         0.0281
     91 H41       -26.3283    4.1579  -36.5517 H         1 M6V         0.0281
     92 H42       -28.8085    2.2573  -38.5238 H         1 M6V         0.0281
     93 H43       -29.4975    3.9153  -38.4692 H         1 M6V         0.0281
     94 H44       -30.2134    2.6116  -37.4619 H         1 M6V         0.0281
     95 H45       -29.8874    1.4382  -35.6050 H         1 M6V         0.0603
     96 H46       -28.0772   -0.1789  -35.0199 H         1 M6V         0.0324
     97 H47       -29.1964   -1.0576  -32.9681 H         1 M6V         0.0233
     98 H48       -30.3647   -0.5183  -34.2214 H         1 M6V         0.0233
     99 H49       -30.0494    0.5125  -32.7844 H         1 M6V         0.0233
    100 H50       -27.5378    1.7438  -32.7471 H         1 M6V         0.0297
    101 H51       -27.1918   -0.0131  -32.6055 H         1 M6V         0.0297
    102 H52       -26.5520    1.5274  -35.7423 H         1 M6V         0.2103
    103 H53       -24.3483   -0.1202  -34.8642 H         1 M6V         0.0258
    104 H54       -26.0112   -0.7407  -35.1402 H         1 M6V         0.0258
    105 H55       -25.2280   -0.9523  -33.5375 H         1 M6V         0.0258
    106 H56       -23.9180    0.6416  -29.9673 H         1 M6V         0.0697
    107 H57       -23.3308    1.9083  -31.0975 H         1 M6V         0.0697
    108 H58       -21.3606   -1.5767  -32.5498 H         1 M6V         0.1229
    109 H59       -18.6174    0.2050  -30.5500 H         1 M6V         0.0308
    110 H60       -20.3518    0.6630  -30.6439 H         1 M6V         0.0308
    111 H61       -18.6250    0.2936  -28.1399 H         1 M6V         0.0797
    112 H62       -20.2226    1.1138  -28.1009 H         1 M6V         0.0797
@<TRIPOS>BOND
     1   15    1 1  
     2    1   16 am 
     3   19    2 1  
     4    2   21 1  
     5    2   22 1  
     6   12    3 ar 
     7    4    5 1  
     8   19    4 1  
     9    4   20 1  
    10    5    6 1  
    11    5   45 1  
    12    6   42 1  
    13    6   43 1  
    14    6   44 1  
    15    8    7 1  
    16    9    8 am 
    17    9   10 2  
    18   11    9 am 
    19   12   11 ar 
    20   13   12 ar 
    21   50   13 1  
    22   14   15 1  
    23   49   14 1  
    24   16   17 2  
    25   16   18 1  
    26   18   19 1  
    27   22   23 2  
    28   22   24 1  
    29   24   25 1  
    30   25   26 1  
    31   25   28 1  
    32   26   27 1  
    33   28   29 1  
    34   28   30 1  
    35   28   31 1  
    36   31   32 1  
    37   31   34 1  
    38   32   33 1  
    39   39   32 1  
    40   34   35 1  
    41   35   36 1  
    42   35   37 1  
    43   38   35 1  
    44   39   38 1  
    45   40   39 1  
    46   40   41 1  
    47   42   40 1  
    48   45   46 1  
    49   46   47 1  
    50   47   48 3  
    51   49   50 1  
    52    1   51 1  
    53    2   52 1  
    54    3   53 1  
    55    3   54 1  
    56    4   55 1  
    57    5   56 1  
    58    7   57 1  
    59    7   58 1  
    60    7   59 1  
    61    8   60 1  
    62   11   61 1  
    63   13   62 1  
    64   14   63 1  
    65   14   64 1  
    66   15   65 1  
    67   15   66 1  
    68   19   67 1  
    69   20   68 1  
    70   20   69 1  
    71   20   70 1  
    72   21   71 1  
    73   21   72 1  
    74   21   73 1  
    75   25   74 1  
    76   26   75 1  
    77   26   76 1  
    78   27   77 1  
    79   27   78 1  
    80   27   79 1  
    81   29   80 1  
    82   30   81 1  
    83   30   82 1  
    84   30   83 1  
    85   31   84 1  
    86   32   85 1  
    87   33   86 1  
    88   33   87 1  
    89   33   88 1  
    90   36   89 1  
    91   36   90 1  
    92   36   91 1  
    93   37   92 1  
    94   37   93 1  
    95   37   94 1  
    96   39   95 1  
    97   40   96 1  
    98   41   97 1  
    99   41   98 1  
   100   41   99 1  
   101   42  100 1  
   102   42  101 1  
   103   43  102 1  
   104   44  103 1  
   105   44  104 1  
   106   44  105 1  
   107   46  106 1  
   108   46  107 1  
   109   48  108 1  
   110   49  109 1  
   111   49  110 1  
   112   50  111 1  
   113   50  112 1  
@<TRIPOS>SUBSTRUCTURE
     1 M6V         1

