### 
### Created by X-TOOL on Mon Sep 10 21:13:22 2018
### 

@<TRIPOS>MOLECULE
4z2h_ligand
  106   107     1     0     0
SMALL
GAST_HUCK


@<TRIPOS>ATOM
      1 C19       -20.4980   -7.2570  -31.0630 C.3       1 M6A         0.0199
      2 N5        -21.0580   -6.1490  -30.3330 N.am      1 M6A        -0.2765
      3 C18       -20.4210   -4.9820  -30.2190 C.2       1 M6A         0.2581
      4 O5        -19.3470   -4.7690  -30.8130 O.2       1 M6A        -0.4011
      5 N4        -21.0290   -4.1290  -29.3680 N.am      1 M6A        -0.2102
      6 C17       -20.6440   -2.8550  -29.1670 C.cat     1 M6A         0.3282
      7 N3        -21.1480   -2.2520  -28.1800 N.pl3     1 M6A        -0.2545
      8 N2        -19.6680   -2.2970  -29.9120 N.pl3     1 M6A        -0.2400
      9 C16       -18.9220   -1.1090  -29.5430 C.3       1 M6A         0.1086
     10 C15       -19.0550    0.0150  -30.5770 C.3       1 M6A         0.0741
     11 N1        -20.3940    0.5700  -30.4700 N.am      1 M6A        -0.2583
     12 C14       -21.1780    0.8960  -31.4860 C.2       1 M6A         0.3200
     13 O4        -20.9040    0.8830  -32.6890 O.2       1 M6A        -0.3775
     14 O3        -22.5050    1.2500  -31.0340 O.3       1 M6A        -0.2575
     15 C3        -23.2740    1.9860  -31.9970 C.3       1 M6A         0.1135
     16 C4        -24.6080    1.2890  -32.2480 C.3       1 M6A         0.0183
     17 C29       -25.3730    1.0970  -30.9340 C.3       1 M6A        -0.0571
     18 C2        -23.4750    3.4200  -31.4380 C.3       1 M6A         0.0879
     19 C28       -22.1890    4.2330  -31.3950 C.3       1 M6A        -0.0412
     20 C1        -24.4400    4.1920  -32.2690 C.2       1 M6A         0.2398
     21 O1        -24.1630    4.4790  -33.4180 O.2       1 M6A        -0.3700
     22 O2        -25.7150    4.5090  -31.6500 O.3       1 M6A        -0.2703
     23 C13       -26.6530    5.2940  -32.3900 C.3       1 M6A         0.1181
     24 C26       -26.8270    6.6520  -31.6970 C.3       1 M6A        -0.0222
     25 C27       -25.5770    7.1900  -31.0260 C.3       1 M6A        -0.0625
     26 C12       -27.9790    4.5100  -32.4950 C.3       1 M6A         0.1200
     27 O10       -29.0480    5.3930  -32.8230 O.3       1 M6A        -0.3833
     28 C33       -28.3270    3.8160  -31.1770 C.3       1 M6A        -0.0308
     29 C11       -27.8450    3.5580  -33.6680 C.3       1 M6A         0.0979
     30 C10       -28.9010    2.4630  -33.8160 C.3       1 M6A         0.0120
     31 C32       -30.3540    2.9540  -33.9130 C.3       1 M6A        -0.0576
     32 O9        -27.7910    4.3790  -34.8340 O.3       1 M6A        -0.3427
     33 C23       -27.5510    3.6530  -36.0520 C.3       1 M6A         0.1653
     34 C24       -26.1820    4.0560  -36.6260 C.3       1 M6A        -0.0108
     35 C25       -28.6270    4.0080  -37.0930 C.3       1 M6A        -0.0108
     36 O8        -27.4850    2.2210  -35.7820 O.3       1 M6A        -0.3453
     37 C9        -28.5440    1.6430  -35.0560 C.3       1 M6A         0.0696
     38 C8        -28.1100    0.2120  -34.7710 C.3       1 M6A        -0.0144
     39 C31       -29.3680   -0.5860  -34.4410 C.3       1 M6A        -0.0600
     40 C7        -26.9950    0.0840  -33.6950 C.3       1 M6A        -0.0169
     41 C6        -25.5270   -0.0290  -34.2080 C.3       1 M6A         0.0900
     42 O7        -25.1640    1.0630  -35.0710 O.3       1 M6A        -0.3863
     43 C30       -25.3730   -1.3240  -34.9680 C.3       1 M6A        -0.0336
     44 C5        -24.5030   -0.0160  -33.0560 C.3       1 M6A         0.0936
     45 O6        -24.7060   -1.1830  -32.2300 O.3       1 M6A        -0.3609
     46 C20       -23.4720   -1.6380  -31.6970 C.3       1 M6A         0.1085
     47 C21       -23.5400   -3.0320  -31.2660 C.1       1 M6A        -0.0773
     48 C22       -23.6070   -4.2440  -30.8650 C.1       1 M6A        -0.1169
     49 H1        -21.1918   -8.1097  -31.0244 H         1 M6A         0.0481
     50 H2        -19.5372   -7.5454  -30.6117 H         1 M6A         0.0481
     51 H3        -20.3373   -6.9623  -32.1105 H         1 M6A         0.0481
     52 H4        -21.9519   -6.2576  -29.8981 H         1 M6A         0.1841
     53 H5        -21.8173   -4.4656  -28.8530 H         1 M6A         0.1851
     54 H6        -20.8852   -1.2756  -27.9840 H         1 M6A         0.3198
     55 H7        -21.8223   -2.7362  -27.5702 H         1 M6A         0.3198
     56 H8        -19.4353   -2.7474  -30.8086 H         1 M6A         0.3224
     57 H9        -17.8592   -1.3758  -29.4474 H         1 M6A         0.0818
     58 H10       -19.2969   -0.7438  -28.5755 H         1 M6A         0.0818
     59 H11       -18.8981   -0.3881  -31.5884 H         1 M6A         0.0563
     60 H12       -18.3095    0.7981  -30.3746 H         1 M6A         0.0563
     61 H13       -20.7545    0.7185  -29.5491 H         1 M6A         0.1869
     62 H14       -22.7201    2.0410  -32.9457 H         1 M6A         0.0680
     63 H15       -25.2047    1.9784  -32.8634 H         1 M6A         0.0354
     64 H16       -26.3299    0.5938  -31.1370 H         1 M6A         0.0234
     65 H17       -25.5648    2.0779  -30.4747 H         1 M6A         0.0234
     66 H18       -24.7735    0.4814  -30.2472 H         1 M6A         0.0234
     67 H19       -23.8707    3.3306  -30.4155 H         1 M6A         0.0580
     68 H20       -22.4013    5.2338  -30.9908 H         1 M6A         0.0259
     69 H21       -21.7807    4.3274  -32.4120 H         1 M6A         0.0259
     70 H22       -21.4557    3.7255  -30.7511 H         1 M6A         0.0259
     71 H23       -26.2644    5.4656  -33.4047 H         1 M6A         0.0679
     72 H24       -27.6085    6.5469  -30.9301 H         1 M6A         0.0292
     73 H25       -27.1508    7.3827  -32.4528 H         1 M6A         0.0292
     74 H26       -25.8001    8.1612  -30.5601 H         1 M6A         0.0231
     75 H27       -24.7835    7.3174  -31.7771 H         1 M6A         0.0231
     76 H28       -25.2412    6.4816  -30.2543 H         1 M6A         0.0231
     77 H29       -28.8670    5.8118  -33.6562 H         1 M6A         0.2104
     78 H30       -29.2748    3.2692  -31.2896 H         1 M6A         0.0259
     79 H31       -28.4305    4.5693  -30.3821 H         1 M6A         0.0259
     80 H32       -27.5260    3.1104  -30.9115 H         1 M6A         0.0259
     81 H33       -26.8799    3.0415  -33.5590 H         1 M6A         0.0630
     82 H34       -28.8352    1.8136  -32.9306 H         1 M6A         0.0349
     83 H35       -31.0269    2.0899  -34.0162 H         1 M6A         0.0234
     84 H36       -30.4618    3.6094  -34.7898 H         1 M6A         0.0234
     85 H37       -30.6134    3.5140  -33.0025 H         1 M6A         0.0234
     86 H38       -26.1802    5.1334  -36.8476 H         1 M6A         0.0281
     87 H39       -25.9913    3.4912  -37.5505 H         1 M6A         0.0281
     88 H40       -25.3955    3.8317  -35.8904 H         1 M6A         0.0281
     89 H41       -28.4373    3.4494  -38.0215 H         1 M6A         0.0281
     90 H42       -28.5937    5.0876  -37.3013 H         1 M6A         0.0281
     91 H43       -29.6192    3.7407  -36.7006 H         1 M6A         0.0281
     92 H44       -29.4398    1.6130  -35.6937 H         1 M6A         0.0603
     93 H45       -27.6895   -0.1975  -35.7013 H         1 M6A         0.0324
     94 H46       -29.0946   -1.6300  -34.2281 H         1 M6A         0.0233
     95 H47       -30.0573   -0.5549  -35.2977 H         1 M6A         0.0233
     96 H48       -29.8590   -0.1485  -33.5592 H         1 M6A         0.0233
     97 H49       -27.2091   -0.8164  -33.1005 H         1 M6A         0.0297
     98 H50       -27.0534    0.9724  -33.0490 H         1 M6A         0.0297
     99 H51       -25.7400    1.0731  -35.8264 H         1 M6A         0.2103
    100 H52       -24.3397   -1.4134  -35.3345 H         1 M6A         0.0258
    101 H53       -26.0668   -1.3330  -35.8215 H         1 M6A         0.0258
    102 H54       -25.6001   -2.1694  -34.3019 H         1 M6A         0.0258
    103 H55       -23.4918   -0.0688  -33.4858 H         1 M6A         0.0629
    104 H56       -23.2068   -1.0120  -30.8322 H         1 M6A         0.0697
    105 H57       -22.6953   -1.5434  -32.4701 H         1 M6A         0.0697
    106 H58       -23.6623   -5.2452  -30.5338 H         1 M6A         0.1229
@<TRIPOS>BOND
     1    1    2 1  
     2    2    3 am 
     3    3    4 2  
     4    3    5 am 
     5    5    6 ar 
     6    6    7 ar 
     7    6    8 ar 
     8    8    9 1  
     9    9   10 1  
    10   10   11 1  
    11   11   12 am 
    12   12   13 2  
    13   12   14 1  
    14   14   15 1  
    15   15   16 1  
    16   15   18 1  
    17   16   17 1  
    18   16   44 1  
    19   18   19 1  
    20   18   20 1  
    21   20   21 2  
    22   20   22 1  
    23   22   23 1  
    24   23   24 1  
    25   23   26 1  
    26   24   25 1  
    27   26   27 1  
    28   26   28 1  
    29   26   29 1  
    30   29   30 1  
    31   29   32 1  
    32   30   31 1  
    33   30   37 1  
    34   32   33 1  
    35   33   34 1  
    36   33   35 1  
    37   33   36 1  
    38   36   37 1  
    39   37   38 1  
    40   38   39 1  
    41   38   40 1  
    42   40   41 1  
    43   41   42 1  
    44   41   43 1  
    45   41   44 1  
    46   44   45 1  
    47   45   46 1  
    48   46   47 1  
    49   47   48 3  
    50    1   49 1  
    51    1   50 1  
    52    1   51 1  
    53    2   52 1  
    54    5   53 1  
    55    7   54 1  
    56    7   55 1  
    57    8   56 1  
    58    9   57 1  
    59    9   58 1  
    60   10   59 1  
    61   10   60 1  
    62   11   61 1  
    63   15   62 1  
    64   16   63 1  
    65   17   64 1  
    66   17   65 1  
    67   17   66 1  
    68   18   67 1  
    69   19   68 1  
    70   19   69 1  
    71   19   70 1  
    72   23   71 1  
    73   24   72 1  
    74   24   73 1  
    75   25   74 1  
    76   25   75 1  
    77   25   76 1  
    78   27   77 1  
    79   28   78 1  
    80   28   79 1  
    81   28   80 1  
    82   29   81 1  
    83   30   82 1  
    84   31   83 1  
    85   31   84 1  
    86   31   85 1  
    87   34   86 1  
    88   34   87 1  
    89   34   88 1  
    90   35   89 1  
    91   35   90 1  
    92   35   91 1  
    93   37   92 1  
    94   38   93 1  
    95   39   94 1  
    96   39   95 1  
    97   39   96 1  
    98   40   97 1  
    99   40   98 1  
   100   42   99 1  
   101   43  100 1  
   102   43  101 1  
   103   43  102 1  
   104   44  103 1  
   105   46  104 1  
   106   46  105 1  
   107   48  106 1  
@<TRIPOS>SUBSTRUCTURE
     1 M6A         1

