### 
### Created by X-TOOL on Mon Sep 10 21:13:21 2018
### 

@<TRIPOS>MOLECULE
4z2i_ligand
  109   110     1     0     0
SMALL
GAST_HUCK


@<TRIPOS>ATOM
      1 C20       -20.4380   -7.1320  -31.1320 C.3       1 M6B         0.0199
      2 N5        -20.9510   -6.0890  -30.2560 N.am      1 M6B        -0.2765
      3 C19       -20.4070   -4.8990  -30.1100 C.2       1 M6B         0.2581
      4 O5        -19.4490   -4.5450  -30.8050 O.2       1 M6B        -0.4011
      5 N4        -21.0180   -4.1200  -29.1540 N.am      1 M6B        -0.2102
      6 C18       -20.7510   -2.8400  -28.9920 C.cat     1 M6B         0.3281
      7 N3        -21.2100   -2.2440  -27.9340 N.pl3     1 M6B        -0.2545
      8 N2        -19.8620   -2.2450  -29.8220 N.pl3     1 M6B        -0.2419
      9 C17       -19.5970   -0.7930  -29.7920 C.3       1 M6B         0.0904
     10 C16       -19.3120   -0.2600  -31.2160 C.3       1 M6B         0.0088
     11 C15       -19.2790    1.2740  -31.3120 C.3       1 M6B         0.0368
     12 N1        -20.5980    1.8270  -31.0570 N.am      1 M6B        -0.2624
     13 C14       -21.4820    1.9900  -32.0030 C.2       1 M6B         0.3199
     14 O4        -21.2530    1.7360  -33.1820 O.2       1 M6B        -0.3775
     15 O3        -22.8220    2.2430  -31.5500 O.3       1 M6B        -0.2575
     16 C3        -23.6890    2.5740  -32.6240 C.3       1 M6B         0.1135
     17 C4        -24.9130    1.6960  -32.4970 C.3       1 M6B         0.0183
     18 C30       -25.4930    1.6810  -31.0840 C.3       1 M6B        -0.0571
     19 C2        -23.9940    4.0920  -32.5200 C.3       1 M6B         0.0879
     20 C29       -22.7730    4.9450  -32.7440 C.3       1 M6B        -0.0412
     21 C1        -24.9650    4.5150  -33.5740 C.2       1 M6B         0.2398
     22 O1        -24.7360    4.4750  -34.7840 O.2       1 M6B        -0.3700
     23 O2        -26.2890    4.7700  -33.1280 O.3       1 M6B        -0.2703
     24 C13       -27.0550    5.1850  -34.2530 C.3       1 M6B         0.1181
     25 C27       -27.0190    6.7400  -34.3700 C.3       1 M6B        -0.0222
     26 C28       -25.7160    7.2880  -34.9960 C.3       1 M6B        -0.0625
     27 C12       -28.3500    4.4430  -33.9440 C.3       1 M6B         0.1200
     28 O10       -29.4430    5.1640  -34.4450 O.3       1 M6B        -0.3833
     29 C34       -28.4680    4.2750  -32.4470 C.3       1 M6B        -0.0308
     30 C11       -28.2880    3.1050  -34.6900 C.3       1 M6B         0.0979
     31 C10       -29.2270    1.9900  -34.3100 C.3       1 M6B         0.0120
     32 C33       -30.6980    2.3580  -34.4420 C.3       1 M6B        -0.0576
     33 O9        -28.4600    3.3890  -36.0720 O.3       1 M6B        -0.3427
     34 C24       -28.0340    2.3280  -36.8990 C.3       1 M6B         0.1653
     35 C25       -26.7460    2.7680  -37.5730 C.3       1 M6B        -0.0108
     36 C26       -29.1240    2.1060  -37.9690 C.3       1 M6B        -0.0108
     37 O8        -27.7910    1.1440  -36.0750 O.3       1 M6B        -0.3453
     38 C9        -28.8710    0.7980  -35.2180 C.3       1 M6B         0.0696
     39 C8        -28.3270   -0.4310  -34.5070 C.3       1 M6B        -0.0144
     40 C32       -29.4790   -1.1410  -33.8530 C.3       1 M6B        -0.0600
     41 C7        -27.1510   -0.0250  -33.5690 C.3       1 M6B        -0.0169
     42 C6        -25.7210   -0.1160  -34.1310 C.3       1 M6B         0.0900
     43 O7        -25.4850    0.7680  -35.2010 O.3       1 M6B        -0.3863
     44 C31       -25.4230   -1.5280  -34.6400 C.3       1 M6B        -0.0336
     45 C5        -24.6860    0.2700  -33.0550 C.3       1 M6B         0.0936
     46 O6        -24.7430   -0.6680  -31.9880 O.3       1 M6B        -0.3609
     47 C21       -23.4230   -0.8250  -31.4260 C.3       1 M6B         0.1085
     48 C22       -23.0300   -2.2250  -31.5560 C.1       1 M6B        -0.0773
     49 C23       -22.6450   -3.4230  -31.6750 C.1       1 M6B        -0.1169
     50 H1        -21.0826   -8.0205  -31.0608 H         1 M6B         0.0481
     51 H2        -19.4146   -7.3962  -30.8274 H         1 M6B         0.0481
     52 H3        -20.4292   -6.7677  -32.1699 H         1 M6B         0.0481
     53 H4        -21.7755   -6.2907  -29.7273 H         1 M6B         0.1841
     54 H5        -21.6961   -4.5452  -28.5545 H         1 M6B         0.1851
     55 H6        -21.0167   -1.2438  -27.7816 H         1 M6B         0.3198
     56 H7        -21.7675   -2.7713  -27.2469 H         1 M6B         0.3198
     57 H8        -19.3510   -2.8278  -30.5004 H         1 M6B         0.3223
     58 H9        -18.7237   -0.5984  -29.1521 H         1 M6B         0.0798
     59 H10       -20.4755   -0.2739  -29.3813 H         1 M6B         0.0798
     60 H11       -20.0984   -0.6322  -31.8890 H         1 M6B         0.0327
     61 H12       -18.3360   -0.6485  -31.5423 H         1 M6B         0.0327
     62 H13       -18.9523    1.5669  -32.3207 H         1 M6B         0.0521
     63 H14       -18.5710    1.6684  -30.5683 H         1 M6B         0.0521
     64 H15       -20.8371    2.0923  -30.1229 H         1 M6B         0.1867
     65 H16       -23.1997    2.3714  -33.5881 H         1 M6B         0.0680
     66 H17       -25.6819    2.1546  -33.1361 H         1 M6B         0.0354
     67 H18       -26.3773    1.0273  -31.0576 H         1 M6B         0.0234
     68 H19       -25.7832    2.7021  -30.7959 H         1 M6B         0.0234
     69 H20       -24.7363    1.3027  -30.3810 H         1 M6B         0.0234
     70 H21       -24.4097    4.2968  -31.5224 H         1 M6B         0.0580
     71 H22       -23.0470    6.0069  -32.6589 H         1 M6B         0.0259
     72 H23       -22.3686    4.7500  -33.7482 H         1 M6B         0.0259
     73 H24       -22.0117    4.7012  -31.9884 H         1 M6B         0.0259
     74 H25       -26.6353    4.7873  -35.1888 H         1 M6B         0.0679
     75 H26       -27.1254    7.1664  -33.3616 H         1 M6B         0.0292
     76 H27       -27.8656    7.0606  -34.9949 H         1 M6B         0.0292
     77 H28       -25.7660    8.3858  -35.0444 H         1 M6B         0.0231
     78 H29       -25.5976    6.8812  -36.0111 H         1 M6B         0.0231
     79 H30       -24.8574    6.9870  -34.3779 H         1 M6B         0.0231
     80 H31       -29.3529    5.2605  -35.3858 H         1 M6B         0.2104
     81 H32       -29.3997    3.7402  -32.2104 H         1 M6B         0.0259
     82 H33       -28.4812    5.2646  -31.9669 H         1 M6B         0.0259
     83 H34       -27.6091    3.6979  -32.0739 H         1 M6B         0.0259
     84 H35       -27.2720    2.7124  -34.5362 H         1 M6B         0.0630
     85 H36       -29.0422    1.7148  -33.2611 H         1 M6B         0.0349
     86 H37       -31.3187    1.4985  -34.1487 H         1 M6B         0.0234
     87 H38       -30.9161    2.6286  -35.4856 H         1 M6B         0.0234
     88 H39       -30.9224    3.2128  -33.7870 H         1 M6B         0.0234
     89 H40       -26.9403    3.6581  -38.1894 H         1 M6B         0.0281
     90 H41       -26.3699    1.9550  -38.2114 H         1 M6B         0.0281
     91 H42       -25.9950    3.0097  -36.8065 H         1 M6B         0.0281
     92 H43       -28.8232    1.2826  -38.6335 H         1 M6B         0.0281
     93 H44       -29.2512    3.0255  -38.5591 H         1 M6B         0.0281
     94 H45       -30.0744    1.8516  -37.4770 H         1 M6B         0.0281
     95 H46       -29.7649    0.5277  -35.7993 H         1 M6B         0.0603
     96 H47       -27.9109   -1.1139  -35.2623 H         1 M6B         0.0324
     97 H48       -29.1094   -2.0359  -33.3309 H         1 M6B         0.0233
     98 H49       -30.2090   -1.4393  -34.6199 H         1 M6B         0.0233
     99 H50       -29.9617   -0.4676  -33.1295 H         1 M6B         0.0233
    100 H51       -27.1976   -0.6761  -32.6836 H         1 M6B         0.0297
    101 H52       -27.3185    1.0190  -33.2657 H         1 M6B         0.0297
    102 H53       -24.5902    0.6657  -35.5034 H         1 M6B         0.2103
    103 H54       -24.3973   -1.5663  -35.0355 H         1 M6B         0.0258
    104 H55       -26.1337   -1.7876  -35.4384 H         1 M6B         0.0258
    105 H56       -25.5237   -2.2451  -33.8120 H         1 M6B         0.0258
    106 H57       -23.6851    0.2326  -33.5098 H         1 M6B         0.0629
    107 H58       -23.4352   -0.5398  -30.3637 H         1 M6B         0.0697
    108 H59       -22.7099   -0.1871  -31.9688 H         1 M6B         0.0697
    109 H60       -22.3233   -4.4239  -31.7744 H         1 M6B         0.1229
@<TRIPOS>BOND
     1    1    2 1  
     2    2    3 am 
     3    3    4 2  
     4    3    5 am 
     5    5    6 ar 
     6    6    7 ar 
     7    6    8 ar 
     8    8    9 1  
     9    9   10 1  
    10   10   11 1  
    11   11   12 1  
    12   12   13 am 
    13   13   14 2  
    14   13   15 1  
    15   15   16 1  
    16   16   17 1  
    17   16   19 1  
    18   17   18 1  
    19   17   45 1  
    20   19   20 1  
    21   19   21 1  
    22   21   22 2  
    23   21   23 1  
    24   23   24 1  
    25   24   25 1  
    26   24   27 1  
    27   25   26 1  
    28   27   28 1  
    29   27   29 1  
    30   27   30 1  
    31   30   31 1  
    32   30   33 1  
    33   31   32 1  
    34   31   38 1  
    35   33   34 1  
    36   34   35 1  
    37   34   36 1  
    38   34   37 1  
    39   37   38 1  
    40   38   39 1  
    41   39   40 1  
    42   39   41 1  
    43   41   42 1  
    44   42   43 1  
    45   42   44 1  
    46   42   45 1  
    47   45   46 1  
    48   46   47 1  
    49   47   48 1  
    50   48   49 3  
    51    1   50 1  
    52    1   51 1  
    53    1   52 1  
    54    2   53 1  
    55    5   54 1  
    56    7   55 1  
    57    7   56 1  
    58    8   57 1  
    59    9   58 1  
    60    9   59 1  
    61   10   60 1  
    62   10   61 1  
    63   11   62 1  
    64   11   63 1  
    65   12   64 1  
    66   16   65 1  
    67   17   66 1  
    68   18   67 1  
    69   18   68 1  
    70   18   69 1  
    71   19   70 1  
    72   20   71 1  
    73   20   72 1  
    74   20   73 1  
    75   24   74 1  
    76   25   75 1  
    77   25   76 1  
    78   26   77 1  
    79   26   78 1  
    80   26   79 1  
    81   28   80 1  
    82   29   81 1  
    83   29   82 1  
    84   29   83 1  
    85   30   84 1  
    86   31   85 1  
    87   32   86 1  
    88   32   87 1  
    89   32   88 1  
    90   35   89 1  
    91   35   90 1  
    92   35   91 1  
    93   36   92 1  
    94   36   93 1  
    95   36   94 1  
    96   38   95 1  
    97   39   96 1  
    98   40   97 1  
    99   40   98 1  
   100   40   99 1  
   101   41  100 1  
   102   41  101 1  
   103   43  102 1  
   104   44  103 1  
   105   44  104 1  
   106   44  105 1  
   107   45  106 1  
   108   47  107 1  
   109   47  108 1  
   110   49  109 1  
@<TRIPOS>SUBSTRUCTURE
     1 M6B         1

