### 
### Created by X-TOOL on Mon Sep 10 21:13:21 2018
### 

@<TRIPOS>MOLECULE
4z2j_ligand
  115   116     1     0     0
SMALL
GAST_HUCK


@<TRIPOS>ATOM
      1 C1        -26.4270    4.6660  -34.0630 C.2       1 M6G         0.2398
      2 C2        -25.1570    4.5720  -33.2540 C.3       1 M6G         0.0879
      3 C3        -24.6430    3.1260  -33.2220 C.3       1 M6G         0.1135
      4 C4        -25.7270    2.1280  -32.8410 C.3       1 M6G         0.0183
      5 C5        -25.2920    0.7050  -33.1740 C.3       1 M6G         0.0936
      6 C6        -26.1990    0.0610  -34.2130 C.3       1 M6G         0.0900
      7 O1        -26.3940    4.6960  -35.2800 O.2       1 M6G        -0.3700
      8 O2        -27.7140    4.6860  -33.3680 O.3       1 M6G        -0.2703
      9 O3        -23.6000    3.0950  -32.2700 O.3       1 M6G        -0.2575
     10 O4        -22.3190    2.4610  -34.0400 O.2       1 M6G        -0.3775
     11 O5        -19.5320   -4.6450  -30.6880 O.2       1 M6G        -0.4011
     12 O6        -25.2550   -0.1440  -32.0120 O.3       1 M6G        -0.3609
     13 C22       -20.6790   -7.1720  -31.1640 C.3       1 M6G         0.0199
     14 N5        -21.1890   -6.1310  -30.3030 N.am      1 M6G        -0.2765
     15 C21       -20.5710   -4.9670  -30.1000 C.2       1 M6G         0.2581
     16 N4        -21.1840   -4.2110  -29.1730 N.am      1 M6G        -0.2102
     17 C20       -20.8350   -2.9640  -28.8790 C.cat     1 M6G         0.3281
     18 N3        -21.3830   -2.3710  -27.9080 N.pl3     1 M6G        -0.2545
     19 N2        -19.9140   -2.3430  -29.5970 N.pl3     1 M6G        -0.2420
     20 C16       -19.1930    1.6690  -31.5250 C.3       1 M6G        -0.0326
     21 C15       -19.9350    2.4220  -32.6410 C.3       1 M6G         0.0328
     22 N1        -21.2240    2.8680  -32.1610 N.am      1 M6G        -0.2625
     23 C14       -22.3230    2.8030  -32.8880 C.2       1 M6G         0.3199
     24 C32       -26.1710    2.3270  -31.3980 C.3       1 M6G        -0.0571
     25 C31       -24.1040    5.5340  -33.7750 C.3       1 M6G        -0.0412
     26 C13       -28.8320    5.0000  -34.2390 C.3       1 M6G         0.1181
     27 C29       -29.3160    6.4400  -34.0080 C.3       1 M6G        -0.0222
     28 C30       -28.2290    7.4240  -34.3910 C.3       1 M6G        -0.0625
     29 C12       -29.9370    3.9690  -34.0120 C.3       1 M6G         0.1200
     30 O10       -31.1690    4.4610  -34.5550 O.3       1 M6G        -0.3833
     31 C36       -30.0740    3.7640  -32.5080 C.3       1 M6G        -0.0308
     32 C11       -29.4980    2.7220  -34.7910 C.3       1 M6G         0.0979
     33 C10       -30.0440    1.3590  -34.3960 C.3       1 M6G         0.0120
     34 C35       -31.5700    1.2830  -34.3650 C.3       1 M6G        -0.0576
     35 O9        -29.8300    2.9070  -36.1610 O.3       1 M6G        -0.3427
     36 C26       -29.1280    2.0210  -37.0410 C.3       1 M6G         0.1653
     37 C27       -28.0090    2.7640  -37.7580 C.3       1 M6G        -0.0108
     38 C28       -30.1530    1.4840  -38.0260 C.3       1 M6G        -0.0108
     39 O8        -28.5050    0.9680  -36.2930 O.3       1 M6G        -0.3453
     40 C9        -29.4170    0.3560  -35.3790 C.3       1 M6G         0.0696
     41 C8        -28.6200   -0.6950  -34.6390 C.3       1 M6G        -0.0144
     42 C34       -29.6150   -1.5870  -33.9230 C.3       1 M6G        -0.0600
     43 C7        -27.6110   -0.0620  -33.6540 C.3       1 M6G        -0.0169
     44 O7        -26.2010    0.9050  -35.3700 O.3       1 M6G        -0.3863
     45 C33       -25.6500   -1.3220  -34.5740 C.3       1 M6G        -0.0336
     46 C23       -23.9430   -0.1440  -31.4270 C.3       1 M6G         0.1085
     47 C24       -23.1860   -1.3330  -31.8200 C.1       1 M6G        -0.0773
     48 C25       -22.5710   -2.4250  -32.0930 C.1       1 M6G        -0.1169
     49 C17       -19.3860    0.1480  -31.5810 C.3       1 M6G        -0.0473
     50 C18       -18.6820   -0.4180  -30.3700 C.3       1 M6G        -0.0113
     51 C19       -19.6150   -0.9620  -29.3190 C.3       1 M6G         0.0886
     52 H1        -25.3933    4.8657  -32.2206 H         1 M6G         0.0580
     53 H2        -24.2512    2.8569  -34.2140 H         1 M6G         0.0680
     54 H3        -26.6033    2.3433  -33.4700 H         1 M6G         0.0354
     55 H4        -24.2755    0.7596  -33.5908 H         1 M6G         0.0629
     56 H5        -21.3733   -8.0252  -31.1585 H         1 M6G         0.0481
     57 H6        -19.6937   -7.4988  -30.8003 H         1 M6G         0.0481
     58 H7        -20.5816   -6.7851  -32.1891 H         1 M6G         0.0481
     59 H8        -22.0560   -6.2924  -29.8316 H         1 M6G         0.1841
     60 H9        -21.9512   -4.6130  -28.6732 H         1 M6G         0.1851
     61 H10       -21.1145   -1.4037  -27.6774 H         1 M6G         0.3198
     62 H11       -22.0985   -2.8546  -27.3466 H         1 M6G         0.3198
     63 H12       -19.4156   -2.8422  -30.3475 H         1 M6G         0.3223
     64 H13       -19.5630    2.0315  -30.5546 H         1 M6G         0.0285
     65 H14       -18.1184    1.8872  -31.6125 H         1 M6G         0.0285
     66 H15       -20.0782    1.7511  -33.5008 H         1 M6G         0.0519
     67 H16       -19.3398    3.2935  -32.9511 H         1 M6G         0.0519
     68 H17       -21.2852    3.2428  -31.2359 H         1 M6G         0.1867
     69 H18       -26.4659    3.3759  -31.2465 H         1 M6G         0.0234
     70 H19       -25.3404    2.0782  -30.7211 H         1 M6G         0.0234
     71 H20       -27.0275    1.6708  -31.1841 H         1 M6G         0.0234
     72 H21       -24.5119    6.5556  -33.7816 H         1 M6G         0.0259
     73 H22       -23.8186    5.2466  -34.7977 H         1 M6G         0.0259
     74 H23       -23.2188    5.4969  -33.1231 H         1 M6G         0.0259
     75 H24       -28.4960    4.9205  -35.2834 H         1 M6G         0.0679
     76 H25       -29.5686    6.5727  -32.9457 H         1 M6G         0.0292
     77 H26       -30.2085    6.6267  -34.6232 H         1 M6G         0.0292
     78 H27       -28.5870    8.4502  -34.2214 H         1 M6G         0.0231
     79 H28       -27.9755    7.2951  -35.4536 H         1 M6G         0.0231
     80 H29       -27.3355    7.2411  -33.7760 H         1 M6G         0.0231
     81 H30       -31.0644    4.6138  -35.4868 H         1 M6G         0.2104
     82 H31       -30.8641    3.0249  -32.3092 H         1 M6G         0.0259
     83 H32       -30.3369    4.7193  -32.0302 H         1 M6G         0.0259
     84 H33       -29.1200    3.3998  -32.0991 H         1 M6G         0.0259
     85 H34       -28.4039    2.6650  -34.6926 H         1 M6G         0.0630
     86 H35       -29.6897    1.1246  -33.3814 H         1 M6G         0.0349
     87 H36       -31.8807    0.2693  -34.0718 H         1 M6G         0.0234
     88 H37       -31.9690    1.5143  -35.3636 H         1 M6G         0.0234
     89 H38       -31.9587    2.0105  -33.6372 H         1 M6G         0.0234
     90 H39       -28.4359    3.5870  -38.3499 H         1 M6G         0.0281
     91 H40       -27.4769    2.0701  -38.4253 H         1 M6G         0.0281
     92 H41       -27.3059    3.1718  -37.0168 H         1 M6G         0.0281
     93 H42       -29.6609    0.7945  -38.7277 H         1 M6G         0.0281
     94 H43       -30.5977    2.3205  -38.5850 H         1 M6G         0.0281
     95 H44       -30.9423    0.9482  -37.4783 H         1 M6G         0.0281
     96 H45       -30.2283   -0.1253  -35.9448 H         1 M6G         0.0603
     97 H46       -28.0565   -1.2969  -35.3671 H         1 M6G         0.0324
     98 H47       -29.0744   -2.3690  -33.3696 H         1 M6G         0.0233
     99 H48       -30.2841   -2.0553  -34.6598 H         1 M6G         0.0233
    100 H49       -30.2084   -0.9840  -33.2199 H         1 M6G         0.0233
    101 H50       -27.9685    0.9444  -33.3907 H         1 M6G         0.0297
    102 H51       -27.5724   -0.6858  -32.7489 H         1 M6G         0.0297
    103 H52       -25.3170    0.9753  -35.7108 H         1 M6G         0.2103
    104 H53       -24.6313   -1.2186  -34.9758 H         1 M6G         0.0258
    105 H54       -26.2976   -1.7872  -35.3318 H         1 M6G         0.0258
    106 H55       -25.6267   -1.9537  -33.6738 H         1 M6G         0.0258
    107 H56       -24.0391   -0.1263  -30.3314 H         1 M6G         0.0697
    108 H57       -23.4012    0.7527  -31.7621 H         1 M6G         0.0697
    109 H58       -22.0647   -3.3240  -32.3178 H         1 M6G         0.1229
    110 H59       -18.9429   -0.2577  -32.5024 H         1 M6G         0.0267
    111 H60       -20.4570   -0.1007  -31.5488 H         1 M6G         0.0267
    112 H61       -18.0775    0.3810  -29.9161 H         1 M6G         0.0308
    113 H62       -18.0223   -1.2330  -30.7025 H         1 M6G         0.0308
    114 H63       -19.1371   -0.8839  -28.3313 H         1 M6G         0.0797
    115 H64       -20.5478   -0.3790  -29.3222 H         1 M6G         0.0797
@<TRIPOS>BOND
     1    2    1 1  
     2    1    7 2  
     3    1    8 1  
     4    3    2 1  
     5    2   25 1  
     6    3    4 1  
     7    9    3 1  
     8    4    5 1  
     9    4   24 1  
    10    5    6 1  
    11    5   12 1  
    12    6   43 1  
    13    6   44 1  
    14    6   45 1  
    15    8   26 1  
    16   23    9 1  
    17   23   10 2  
    18   15   11 2  
    19   12   46 1  
    20   14   13 1  
    21   15   14 am 
    22   16   15 am 
    23   17   16 ar 
    24   17   18 ar 
    25   19   17 ar 
    26   51   19 1  
    27   20   21 1  
    28   49   20 1  
    29   21   22 1  
    30   22   23 am 
    31   26   27 1  
    32   26   29 1  
    33   27   28 1  
    34   29   30 1  
    35   29   31 1  
    36   29   32 1  
    37   32   33 1  
    38   32   35 1  
    39   33   34 1  
    40   40   33 1  
    41   35   36 1  
    42   36   37 1  
    43   36   38 1  
    44   39   36 1  
    45   40   39 1  
    46   41   40 1  
    47   41   42 1  
    48   43   41 1  
    49   46   47 1  
    50   47   48 3  
    51   50   49 1  
    52   50   51 1  
    53    2   52 1  
    54    3   53 1  
    55    4   54 1  
    56    5   55 1  
    57   13   56 1  
    58   13   57 1  
    59   13   58 1  
    60   14   59 1  
    61   16   60 1  
    62   18   61 1  
    63   18   62 1  
    64   19   63 1  
    65   20   64 1  
    66   20   65 1  
    67   21   66 1  
    68   21   67 1  
    69   22   68 1  
    70   24   69 1  
    71   24   70 1  
    72   24   71 1  
    73   25   72 1  
    74   25   73 1  
    75   25   74 1  
    76   26   75 1  
    77   27   76 1  
    78   27   77 1  
    79   28   78 1  
    80   28   79 1  
    81   28   80 1  
    82   30   81 1  
    83   31   82 1  
    84   31   83 1  
    85   31   84 1  
    86   32   85 1  
    87   33   86 1  
    88   34   87 1  
    89   34   88 1  
    90   34   89 1  
    91   37   90 1  
    92   37   91 1  
    93   37   92 1  
    94   38   93 1  
    95   38   94 1  
    96   38   95 1  
    97   40   96 1  
    98   41   97 1  
    99   42   98 1  
   100   42   99 1  
   101   42  100 1  
   102   43  101 1  
   103   43  102 1  
   104   44  103 1  
   105   45  104 1  
   106   45  105 1  
   107   45  106 1  
   108   46  107 1  
   109   46  108 1  
   110   48  109 1  
   111   49  110 1  
   112   49  111 1  
   113   50  112 1  
   114   50  113 1  
   115   51  114 1  
   116   51  115 1  
@<TRIPOS>SUBSTRUCTURE
     1 M6G         1

