### 
### Created by X-TOOL on Mon Sep 10 21:13:21 2018
### 

@<TRIPOS>MOLECULE
4z2k_ligand
  121   122     1     0     0
SMALL
GAST_HUCK


@<TRIPOS>ATOM
      1 C24       -20.7070   -7.0260  -31.1300 C.3       1 M6E         0.0199
      2 N5        -21.1590   -6.0300  -30.1910 N.am      1 M6E        -0.2765
      3 C23       -20.5120   -4.8720  -29.9760 C.2       1 M6E         0.2581
      4 O5        -19.4520   -4.6220  -30.5840 O.2       1 M6E        -0.4011
      5 N4        -21.1030   -4.1000  -29.0310 N.am      1 M6E        -0.2102
      6 C22       -20.6500   -2.9120  -28.5980 C.cat     1 M6E         0.3281
      7 N3        -19.6820   -2.2580  -29.1240 N.pl3     1 M6E        -0.2545
      8 N2        -21.1550   -2.4350  -27.4700 N.pl3     1 M6E        -0.2420
      9 C16       -22.9260    3.5860  -26.8150 C.3       1 M6E        -0.0328
     10 C15       -23.2030    5.0740  -27.0210 C.3       1 M6E         0.0328
     11 N1        -23.9510    5.5560  -25.8740 N.am      1 M6E        -0.2625
     12 C14       -23.3620    5.7200  -24.6890 C.2       1 M6E         0.3199
     13 O4        -22.1490    5.8180  -24.5890 O.2       1 M6E        -0.3775
     14 O3        -24.2110    5.6240  -23.4950 O.3       1 M6E        -0.2575
     15 C3        -23.5970    5.7190  -22.1880 C.3       1 M6E         0.1135
     16 C4        -24.6580    6.3850  -21.2720 C.3       1 M6E         0.0183
     17 C34       -25.9200    5.5220  -21.1480 C.3       1 M6E        -0.0571
     18 C2        -23.0560    4.3470  -21.6610 C.3       1 M6E         0.0879
     19 C33       -21.8440    3.7410  -22.3960 C.3       1 M6E        -0.0412
     20 C1        -22.6810    4.3940  -20.2040 C.2       1 M6E         0.2398
     21 O1        -21.5180    4.5040  -19.8540 O.2       1 M6E        -0.3700
     22 O2        -23.7510    4.2350  -19.2260 O.3       1 M6E        -0.2703
     23 C13       -23.4040    4.1630  -17.8350 C.3       1 M6E         0.1181
     24 C31       -23.3270    2.7030  -17.3580 C.3       1 M6E        -0.0222
     25 C32       -21.8990    2.2620  -17.0770 C.3       1 M6E        -0.0625
     26 C12       -24.4300    5.0260  -17.0780 C.3       1 M6E         0.1200
     27 O10       -24.3530    4.7210  -15.6840 O.3       1 M6E        -0.3833
     28 C38       -25.8780    4.7450  -17.5140 C.3       1 M6E        -0.0308
     29 C11       -24.0160    6.4940  -17.3370 C.3       1 M6E         0.0979
     30 C10       -25.0130    7.5590  -16.8580 C.3       1 M6E         0.0120
     31 C37       -25.3060    7.5240  -15.3620 C.3       1 M6E        -0.0576
     32 O9        -22.6980    6.7680  -16.8140 O.3       1 M6E        -0.3427
     33 C28       -22.1480    8.0420  -17.1760 C.3       1 M6E         0.1653
     34 C29       -20.9620    7.8630  -18.1190 C.3       1 M6E        -0.0108
     35 C30       -21.5590    8.6770  -15.9250 C.3       1 M6E        -0.0108
     36 O8        -23.1480    8.8810  -17.8210 O.3       1 M6E        -0.3453
     37 C9        -24.4990    8.9430  -17.2770 C.3       1 M6E         0.0696
     38 C8        -25.4880    9.6250  -18.2520 C.3       1 M6E        -0.0144
     39 C36       -26.7930   10.0270  -17.5440 C.3       1 M6E        -0.0600
     40 C7        -25.8050    8.7620  -19.4850 C.3       1 M6E        -0.0169
     41 C6        -24.8100    8.9120  -20.6390 C.3       1 M6E         0.0900
     42 O7        -23.4790    8.8010  -20.1240 O.3       1 M6E        -0.3863
     43 C35       -24.9480   10.3140  -21.2450 C.3       1 M6E        -0.0336
     44 C5        -25.0210    7.8210  -21.7200 C.3       1 M6E         0.0936
     45 O6        -26.3870    7.8700  -22.1750 O.3       1 M6E        -0.3609
     46 C25       -26.5930    7.8500  -23.6000 C.3       1 M6E         0.1085
     47 C26       -27.8770    8.5040  -23.9530 C.1       1 M6E        -0.0773
     48 C27       -28.9810    9.0610  -24.2800 C.1       1 M6E        -0.1169
     49 C17       -22.0210    3.0110  -27.8950 C.3       1 M6E        -0.0512
     50 C18       -22.4000    1.5600  -28.1890 C.3       1 M6E        -0.0529
     51 C19       -21.2230    0.5880  -28.0410 C.3       1 M6E        -0.0491
     52 C20       -21.1250   -0.0580  -26.6560 C.3       1 M6E        -0.0113
     53 C21       -20.4370   -1.4210  -26.6970 C.3       1 M6E         0.0886
     54 H1        -21.4027   -7.8780  -31.1240 H         1 M6E         0.0481
     55 H2        -19.7025   -7.3708  -30.8436 H         1 M6E         0.0481
     56 H3        -20.6710   -6.5892  -32.1389 H         1 M6E         0.0481
     57 H4        -21.9958   -6.2098  -29.6738 H         1 M6E         0.1841
     58 H5        -21.9479   -4.4443  -28.6216 H         1 M6E         0.1851
     59 H6        -19.3979   -1.3508  -28.7276 H         1 M6E         0.3198
     60 H7        -19.1879   -2.6394  -29.9433 H         1 M6E         0.3198
     61 H8        -22.0643   -2.7822  -27.1329 H         1 M6E         0.3223
     62 H9        -23.8825    3.0430  -26.8293 H         1 M6E         0.0284
     63 H10       -22.4410    3.4487  -25.8373 H         1 M6E         0.0284
     64 H11       -23.7919    5.2202  -27.9385 H         1 M6E         0.0519
     65 H12       -22.2530    5.6223  -27.1038 H         1 M6E         0.0519
     66 H13       -24.9231    5.7683  -25.9741 H         1 M6E         0.1867
     67 H14       -22.7319    6.3947  -22.2584 H         1 M6E         0.0680
     68 H15       -24.2128    6.4614  -20.2691 H         1 M6E         0.0354
     69 H16       -26.6459    6.0260  -20.4931 H         1 M6E         0.0234
     70 H17       -25.6552    4.5447  -20.7181 H         1 M6E         0.0234
     71 H18       -26.3640    5.3764  -22.1438 H         1 M6E         0.0234
     72 H19       -23.8876    3.6357  -21.7728 H         1 M6E         0.0580
     73 H20       -21.5706    2.7849  -21.9258 H         1 M6E         0.0259
     74 H21       -20.9934    4.4359  -22.3354 H         1 M6E         0.0259
     75 H22       -22.1032    3.5697  -23.4512 H         1 M6E         0.0259
     76 H23       -22.4082    4.6081  -17.6927 H         1 M6E         0.0679
     77 H24       -23.7508    2.0533  -18.1379 H         1 M6E         0.0292
     78 H25       -23.9168    2.6008  -16.4351 H         1 M6E         0.0292
     79 H26       -21.8982    1.2148  -16.7402 H         1 M6E         0.0231
     80 H27       -21.4659    2.8998  -16.2924 H         1 M6E         0.0231
     81 H28       -21.2999    2.3523  -17.9951 H         1 M6E         0.0231
     82 H29       -23.4775    4.9104  -15.3674 H         1 M6E         0.2104
     83 H30       -26.5642    5.3872  -16.9424 H         1 M6E         0.0259
     84 H31       -26.1199    3.6890  -17.3235 H         1 M6E         0.0259
     85 H32       -25.9855    4.9579  -18.5878 H         1 M6E         0.0259
     86 H33       -23.9560    6.6021  -18.4300 H         1 M6E         0.0630
     87 H34       -25.9651    7.3752  -17.3773 H         1 M6E         0.0349
     88 H35       -26.0257    8.3170  -15.1107 H         1 M6E         0.0234
     89 H36       -24.3731    7.6846  -14.8018 H         1 M6E         0.0234
     90 H37       -25.7307    6.5452  -15.0943 H         1 M6E         0.0234
     91 H38       -20.2027    7.2296  -17.6370 H         1 M6E         0.0281
     92 H39       -20.5261    8.8460  -18.3507 H         1 M6E         0.0281
     93 H40       -21.3021    7.3842  -19.0491 H         1 M6E         0.0281
     94 H41       -21.1302    9.6577  -16.1788 H         1 M6E         0.0281
     95 H42       -20.7705    8.0258  -15.5197 H         1 M6E         0.0281
     96 H43       -22.3505    8.8067  -15.1722 H         1 M6E         0.0281
     97 H44       -24.4537    9.5638  -16.3701 H         1 M6E         0.0603
     98 H45       -25.0051   10.5460  -18.6105 H         1 M6E         0.0324
     99 H46       -27.4692   10.5073  -18.2666 H         1 M6E         0.0233
    100 H47       -26.5666   10.7311  -16.7298 H         1 M6E         0.0233
    101 H48       -27.2766    9.1302  -17.1294 H         1 M6E         0.0233
    102 H49       -26.8028    9.0427  -19.8533 H         1 M6E         0.0297
    103 H50       -25.8126    7.7072  -19.1731 H         1 M6E         0.0297
    104 H51       -23.3311    9.4852  -19.4817 H         1 M6E         0.2103
    105 H52       -24.2348   10.4265  -22.0749 H         1 M6E         0.0258
    106 H53       -24.7355   11.0693  -20.4740 H         1 M6E         0.0258
    107 H54       -25.9726   10.4518  -21.6209 H         1 M6E         0.0258
    108 H55       -24.3666    8.0699  -22.5684 H         1 M6E         0.0629
    109 H56       -26.6116    6.8066  -23.9476 H         1 M6E         0.0697
    110 H57       -25.7677    8.3857  -24.0918 H         1 M6E         0.0697
    111 H58       -29.8925    9.5209  -24.5500 H         1 M6E         0.1229
    112 H59       -20.9766    3.0506  -27.5520 H         1 M6E         0.0266
    113 H60       -22.1283    3.6070  -28.8133 H         1 M6E         0.0266
    114 H61       -22.7766    1.4989  -29.2207 H         1 M6E         0.0265
    115 H62       -23.1938    1.2572  -27.4903 H         1 M6E         0.0265
    116 H63       -20.2911    1.1401  -28.2328 H         1 M6E         0.0267
    117 H64       -21.3366   -0.2106  -28.7888 H         1 M6E         0.0267
    118 H65       -22.1406   -0.1869  -26.2536 H         1 M6E         0.0308
    119 H66       -20.5505    0.6080  -25.9953 H         1 M6E         0.0308
    120 H67       -19.4398   -1.2902  -27.1426 H         1 M6E         0.0797
    121 H68       -20.3323   -1.7852  -25.6643 H         1 M6E         0.0797
@<TRIPOS>BOND
     1    2    1 1  
     2    3    2 am 
     3    3    4 2  
     4    5    3 am 
     5    6    5 ar 
     6    6    7 ar 
     7    8    6 ar 
     8   53    8 1  
     9    9   10 1  
    10   49    9 1  
    11   10   11 1  
    12   11   12 am 
    13   12   13 2  
    14   12   14 1  
    15   14   15 1  
    16   15   16 1  
    17   15   18 1  
    18   16   17 1  
    19   16   44 1  
    20   18   19 1  
    21   18   20 1  
    22   20   21 2  
    23   20   22 1  
    24   22   23 1  
    25   23   24 1  
    26   23   26 1  
    27   24   25 1  
    28   26   27 1  
    29   26   28 1  
    30   26   29 1  
    31   29   30 1  
    32   29   32 1  
    33   30   31 1  
    34   37   30 1  
    35   32   33 1  
    36   33   34 1  
    37   33   35 1  
    38   36   33 1  
    39   37   36 1  
    40   38   37 1  
    41   38   39 1  
    42   40   38 1  
    43   41   40 1  
    44   41   42 1  
    45   41   43 1  
    46   44   41 1  
    47   44   45 1  
    48   45   46 1  
    49   46   47 1  
    50   47   48 3  
    51   50   49 1  
    52   51   50 1  
    53   52   51 1  
    54   52   53 1  
    55    1   54 1  
    56    1   55 1  
    57    1   56 1  
    58    2   57 1  
    59    5   58 1  
    60    7   59 1  
    61    7   60 1  
    62    8   61 1  
    63    9   62 1  
    64    9   63 1  
    65   10   64 1  
    66   10   65 1  
    67   11   66 1  
    68   15   67 1  
    69   16   68 1  
    70   17   69 1  
    71   17   70 1  
    72   17   71 1  
    73   18   72 1  
    74   19   73 1  
    75   19   74 1  
    76   19   75 1  
    77   23   76 1  
    78   24   77 1  
    79   24   78 1  
    80   25   79 1  
    81   25   80 1  
    82   25   81 1  
    83   27   82 1  
    84   28   83 1  
    85   28   84 1  
    86   28   85 1  
    87   29   86 1  
    88   30   87 1  
    89   31   88 1  
    90   31   89 1  
    91   31   90 1  
    92   34   91 1  
    93   34   92 1  
    94   34   93 1  
    95   35   94 1  
    96   35   95 1  
    97   35   96 1  
    98   37   97 1  
    99   38   98 1  
   100   39   99 1  
   101   39  100 1  
   102   39  101 1  
   103   40  102 1  
   104   40  103 1  
   105   42  104 1  
   106   43  105 1  
   107   43  106 1  
   108   43  107 1  
   109   44  108 1  
   110   46  109 1  
   111   46  110 1  
   112   48  111 1  
   113   49  112 1  
   114   49  113 1  
   115   50  114 1  
   116   50  115 1  
   117   51  116 1  
   118   51  117 1  
   119   52  118 1  
   120   52  119 1  
   121   53  120 1  
   122   53  121 1  
@<TRIPOS>SUBSTRUCTURE
     1 M6E         1

