### 
### Created by X-TOOL on Mon Sep 10 21:13:22 2018
### 

@<TRIPOS>MOLECULE
4z2l_ligand
  102   102     1     0     0
SMALL
GAST_HUCK


@<TRIPOS>ATOM
      1 N1        -20.1550    1.6920  -30.9400 N.am      1 M6F        -0.2624
      2 C2        -23.6620    4.1430  -31.6140 C.3       1 M6F         0.0879
      3 C3        -23.3490    2.7670  -32.2130 C.3       1 M6F         0.1135
      4 O4        -20.9580    1.9120  -33.0160 O.2       1 M6F        -0.3775
      5 C5        -24.3800    0.5970  -33.1540 C.3       1 M6F         0.0936
      6 O1        -24.6240    5.1800  -33.4780 O.2       1 M6F        -0.3700
      7 C1        -24.7770    4.8190  -32.3310 C.2       1 M6F         0.2398
      8 C29       -22.4680    5.0710  -31.6260 C.3       1 M6F        -0.0412
      9 O3        -22.4340    2.1870  -31.2900 O.3       1 M6F        -0.2575
     10 C14       -21.0980    2.0220  -31.8030 C.2       1 M6F         0.3199
     11 C15       -18.8400    1.1320  -31.2380 C.3       1 M6F         0.0368
     12 C16       -19.0180   -0.3890  -31.1610 C.3       1 M6F         0.0088
     13 C17       -19.3310   -0.8670  -29.7310 C.3       1 M6F         0.0904
     14 N2        -19.7200   -2.2790  -29.7910 N.pl3     1 M6F        -0.2419
     15 C18       -20.5740   -2.8860  -29.0600 C.cat     1 M6F         0.3281
     16 N3        -21.1340   -2.3130  -28.0940 N.pl3     1 M6F        -0.2545
     17 N4        -20.8540   -4.1770  -29.1810 N.am      1 M6F        -0.2102
     18 C19       -20.3230   -4.9570  -30.1310 C.2       1 M6F         0.2581
     19 O5        -19.3780   -4.5760  -30.8010 O.2       1 M6F        -0.4011
     20 N5        -20.7930   -6.1250  -30.2430 N.am      1 M6F        -0.2765
     21 C20       -20.3870   -7.2060  -31.1250 C.3       1 M6F         0.0199
     22 O2        -26.0550    4.9280  -31.6460 O.3       1 M6F        -0.2703
     23 C13       -27.1340    5.5540  -32.3330 C.3       1 M6F         0.1181
     24 C27       -27.6140    6.6950  -31.4360 C.3       1 M6F        -0.0222
     25 C28       -26.4300    7.4190  -30.8080 C.3       1 M6F        -0.0625
     26 C12       -28.2390    4.5280  -32.5740 C.3       1 M6F         0.1196
     27 O10       -29.4480    5.2280  -32.8520 O.3       1 M6F        -0.3833
     28 C34       -28.4860    3.6820  -31.3300 C.3       1 M6F        -0.0308
     29 C11       -27.9030    3.6650  -33.7850 C.3       1 M6F         0.0913
     30 O9        -27.8820    4.5270  -34.9120 O.3       1 M6F        -0.3885
     31 O8        -27.4900    2.3910  -36.0410 O.3       1 M6F        -0.3912
     32 C9        -28.4690    1.6910  -35.2860 C.3       1 M6F         0.0629
     33 C10       -28.8860    2.5230  -34.0790 C.3       1 M6F         0.0113
     34 C33       -30.2780    3.0630  -34.3520 C.3       1 M6F        -0.0576
     35 C8        -27.9000    0.3370  -34.9060 C.3       1 M6F        -0.0148
     36 C32       -29.0840   -0.5500  -34.5390 C.3       1 M6F        -0.0600
     37 C7        -26.8560    0.4320  -33.7820 C.3       1 M6F        -0.0169
     38 C6        -25.4030    0.4870  -34.2800 C.3       1 M6F         0.0900
     39 O7        -25.1530    1.6330  -35.0590 O.3       1 M6F        -0.3863
     40 C31       -25.0970   -0.7200  -35.1340 C.3       1 M6F        -0.0336
     41 C4        -24.5970    1.8810  -32.3520 C.3       1 M6F         0.0183
     42 C30       -25.1650    1.5240  -30.9880 C.3       1 M6F        -0.0571
     43 O6        -24.4700   -0.5770  -32.3300 O.3       1 M6F        -0.3609
     44 C21       -23.1720   -0.9990  -31.9280 C.3       1 M6F         0.1085
     45 C22       -23.1940   -2.4030  -31.5010 C.1       1 M6F        -0.0773
     46 C23       -23.2170   -3.6360  -31.1590 C.1       1 M6F        -0.1169
     47 H1        -20.3649    1.8425  -29.9739 H         1 M6F         0.1867
     48 H2        -23.9657    3.9867  -30.5684 H         1 M6F         0.0580
     49 H3        -22.8815    2.8823  -33.2020 H         1 M6F         0.0680
     50 H4        -23.3729    0.6361  -33.5946 H         1 M6F         0.0629
     51 H5        -22.7513    6.0386  -31.1861 H         1 M6F         0.0259
     52 H6        -22.1326    5.2236  -32.6624 H         1 M6F         0.0259
     53 H7        -21.6517    4.6259  -31.0382 H         1 M6F         0.0259
     54 H8        -18.1006    1.4708  -30.4974 H         1 M6F         0.0521
     55 H9        -18.5137    1.4307  -32.2451 H         1 M6F         0.0521
     56 H10       -18.0898   -0.8718  -31.5005 H         1 M6F         0.0327
     57 H11       -19.8469   -0.6825  -31.8218 H         1 M6F         0.0327
     58 H12       -20.1558   -0.2717  -29.3123 H         1 M6F         0.0798
     59 H13       -18.4388   -0.7539  -29.0976 H         1 M6F         0.0798
     60 H14       -19.2489   -2.8495  -30.5076 H         1 M6F         0.3223
     61 H15       -21.8193   -2.8238  -27.5192 H         1 M6F         0.3198
     62 H16       -20.9083   -1.3320  -27.8760 H         1 M6F         0.3198
     63 H17       -21.4931   -4.5879  -28.5308 H         1 M6F         0.1851
     64 H18       -21.5577   -6.3365  -29.6343 H         1 M6F         0.1841
     65 H19       -21.0247   -8.0843  -30.9461 H         1 M6F         0.0481
     66 H20       -19.3376   -7.4680  -30.9249 H         1 M6F         0.0481
     67 H21       -20.4915   -6.8842  -32.1717 H         1 M6F         0.0481
     68 H22       -26.7921    5.9551  -33.2985 H         1 M6F         0.0679
     69 H23       -28.2507    6.2843  -30.6385 H         1 M6F         0.0292
     70 H24       -28.1954    7.4083  -32.0386 H         1 M6F         0.0292
     71 H25       -26.7968    8.2347  -30.1676 H         1 M6F         0.0231
     72 H26       -25.7915    7.8346  -31.6015 H         1 M6F         0.0231
     73 H27       -25.8468    6.7106  -30.2013 H         1 M6F         0.0231
     74 H28       -29.3298    5.7673  -33.6251 H         1 M6F         0.2104
     75 H29       -29.2851    2.9542  -31.5343 H         1 M6F         0.0259
     76 H30       -28.7880    4.3340  -30.4972 H         1 M6F         0.0259
     77 H31       -27.5631    3.1473  -31.0610 H         1 M6F         0.0259
     78 H32       -26.9060    3.2265  -33.6312 H         1 M6F         0.0626
     79 H33       -27.6750    4.0235  -35.6906 H         1 M6F         0.2099
     80 H34       -26.7297    2.5561  -35.4958 H         1 M6F         0.2098
     81 H35       -29.3581    1.5300  -35.9134 H         1 M6F         0.0599
     82 H36       -28.9224    1.8688  -33.1955 H         1 M6F         0.0349
     83 H37       -30.6099    3.6703  -33.4970 H         1 M6F         0.0234
     84 H38       -30.9745    2.2243  -34.4983 H         1 M6F         0.0234
     85 H39       -30.2584    3.6859  -35.2584 H         1 M6F         0.0234
     86 H40       -27.3992   -0.0933  -35.7858 H         1 M6F         0.0324
     87 H41       -28.7200   -1.5483  -34.2546 H         1 M6F         0.0233
     88 H42       -29.7581   -0.6382  -35.4038 H         1 M6F         0.0233
     89 H43       -29.6284   -0.1038  -33.6937 H         1 M6F         0.0233
     90 H44       -26.9658   -0.4492  -33.1328 H         1 M6F         0.0297
     91 H45       -27.0566    1.3436  -33.1999 H         1 M6F         0.0297
     92 H46       -25.7261    1.6307  -35.8166 H         1 M6F         0.2103
     93 H47       -24.0552   -0.6675  -35.4831 H         1 M6F         0.0258
     94 H48       -25.7737   -0.7368  -36.0010 H         1 M6F         0.0258
     95 H49       -25.2390   -1.6349  -34.5401 H         1 M6F         0.0258
     96 H50       -25.3516    2.4755  -32.8878 H         1 M6F         0.0354
     97 H51       -25.3239    2.4432  -30.4050 H         1 M6F         0.0234
     98 H52       -24.4582    0.8701  -30.4562 H         1 M6F         0.0234
     99 H53       -26.1240    1.0005  -31.1157 H         1 M6F         0.0234
    100 H54       -22.8312   -0.3720  -31.0909 H         1 M6F         0.0697
    101 H55       -22.4781   -0.8895  -32.7744 H         1 M6F         0.0697
    102 H56       -23.2360   -4.6534  -30.8768 H         1 M6F         0.1229
@<TRIPOS>BOND
     1   10    1 am 
     2    1   11 1  
     3    2    3 1  
     4    7    2 1  
     5    2    8 1  
     6    3    9 1  
     7    3   41 1  
     8   10    4 2  
     9    5   38 1  
    10   41    5 1  
    11    5   43 1  
    12    7    6 2  
    13   22    7 1  
    14    9   10 1  
    15   11   12 1  
    16   12   13 1  
    17   13   14 1  
    18   14   15 ar 
    19   15   16 ar 
    20   15   17 ar 
    21   17   18 am 
    22   18   19 2  
    23   18   20 am 
    24   20   21 1  
    25   23   22 1  
    26   23   24 1  
    27   26   23 1  
    28   24   25 1  
    29   26   27 1  
    30   26   28 1  
    31   29   26 1  
    32   29   30 1  
    33   33   29 1  
    34   32   31 1  
    35   32   33 1  
    36   32   35 1  
    37   33   34 1  
    38   35   36 1  
    39   35   37 1  
    40   37   38 1  
    41   38   39 1  
    42   38   40 1  
    43   41   42 1  
    44   43   44 1  
    45   44   45 1  
    46   45   46 3  
    47    1   47 1  
    48    2   48 1  
    49    3   49 1  
    50    5   50 1  
    51    8   51 1  
    52    8   52 1  
    53    8   53 1  
    54   11   54 1  
    55   11   55 1  
    56   12   56 1  
    57   12   57 1  
    58   13   58 1  
    59   13   59 1  
    60   14   60 1  
    61   16   61 1  
    62   16   62 1  
    63   17   63 1  
    64   20   64 1  
    65   21   65 1  
    66   21   66 1  
    67   21   67 1  
    68   23   68 1  
    69   24   69 1  
    70   24   70 1  
    71   25   71 1  
    72   25   72 1  
    73   25   73 1  
    74   27   74 1  
    75   28   75 1  
    76   28   76 1  
    77   28   77 1  
    78   29   78 1  
    79   30   79 1  
    80   31   80 1  
    81   32   81 1  
    82   33   82 1  
    83   34   83 1  
    84   34   84 1  
    85   34   85 1  
    86   35   86 1  
    87   36   87 1  
    88   36   88 1  
    89   36   89 1  
    90   37   90 1  
    91   37   91 1  
    92   39   92 1  
    93   40   93 1  
    94   40   94 1  
    95   40   95 1  
    96   41   96 1  
    97   42   97 1  
    98   42   98 1  
    99   42   99 1  
   100   44  100 1  
   101   44  101 1  
   102   46  102 1  
@<TRIPOS>SUBSTRUCTURE
     1 M6F         1

