### 
### Created by X-TOOL on Mon Sep 10 21:13:21 2018
### 

@<TRIPOS>MOLECULE
4z3v_ligand
   38    41     1     0     0
SMALL
GAST_HUCK


@<TRIPOS>ATOM
      1 C1        -20.6460   -9.9340    4.1900 C.3       1 4L6        -0.0353
      2 C2        -21.7070   -9.1600    4.9520 C.ar      1 4L6        -0.0498
      3 C3        -21.8620   -9.4400    6.2850 C.ar      1 4L6        -0.0647
      4 C4        -22.8410   -8.7330    7.0180 C.ar      1 4L6         0.0005
      5 C5        -23.2550   -8.7610    8.3790 C.2       1 4L6         0.0180
      6 N6        -24.2160   -7.8890    8.5370 N.2       1 4L6        -0.2084
      7 N7        -24.4980   -7.2470    7.3310 N.pl3     1 4L6        -0.2170
      8 C9        -23.6460   -7.7590    6.3750 C.ar      1 4L6         0.0803
      9 C10       -23.4820   -7.4890    5.0200 C.ar      1 4L6        -0.0349
     10 C11       -22.5140   -8.1820    4.3060 C.ar      1 4L6        -0.0267
     11 C12       -22.3560   -7.8660    2.8570 C.ar      1 4L6        -0.0101
     12 C13       -23.2700   -8.3180    1.9080 C.ar      1 4L6        -0.0554
     13 C14       -23.1070   -8.0250    0.5590 C.ar      1 4L6        -0.0599
     14 C15       -22.0530   -7.2700    0.0980 C.ar      1 4L6        -0.0441
     15 C16       -21.1000   -6.8080    1.0270 C.ar      1 4L6         0.0564
     16 C17       -19.9700   -6.0370    0.6060 C.ar      1 4L6         0.1552
     17 N18       -19.7680   -5.7300   -0.7270 N.pl3     1 4L6        -0.2918
     18 C19       -19.0790   -5.6450    1.6210 C.ar      1 4L6         0.2102
     19 N20       -19.3080   -5.9820    2.9000 N.ar      1 4L6        -0.2179
     20 N21       -20.3360   -6.6590    3.2830 N.ar      1 4L6        -0.3041
     21 C22       -21.2470   -7.0990    2.4060 C.ar      1 4L6         0.0232
     22 C23       -17.8430   -4.8890    1.3470 C.2       1 4L6         0.2483
     23 N24       -16.9070   -4.8410    2.3240 N.am      1 4L6        -0.2945
     24 O25       -17.6450   -4.3560    0.2610 O.2       1 4L6        -0.3693
     25 H1        -20.1416  -10.6338    4.8726 H         1 4L6         0.0375
     26 H2        -19.9084   -9.2322    3.7736 H         1 4L6         0.0375
     27 H3        -21.1193  -10.4968    3.3719 H         1 4L6         0.0375
     28 H4        -21.2451  -10.1896    6.7673 H         1 4L6         0.0507
     29 H5        -22.8413   -9.4006    9.1573 H         1 4L6         0.0706
     30 H6        -25.2136   -6.5214    7.1815 H         1 4L6         0.2434
     31 H7        -24.1016   -6.7476    4.5286 H         1 4L6         0.0528
     32 H8        -24.1220   -8.9077    2.2266 H         1 4L6         0.0680
     33 H9        -23.8328   -8.4030   -0.1519 H         1 4L6         0.0557
     34 H10       -21.9581   -7.0360   -0.9562 H         1 4L6         0.0688
     35 H11       -20.4488   -6.0389   -1.4355 H         1 4L6         0.2031
     36 H12       -18.9367   -5.1924   -1.0114 H         1 4L6         0.2031
     37 H13       -16.0553   -4.3382    2.1762 H         1 4L6         0.1816
     38 H14       -17.0673   -5.3083    3.1934 H         1 4L6         0.1816
@<TRIPOS>BOND
     1    1    2 1  
     2    2    3 ar 
     3    2   10 ar 
     4    3    4 ar 
     5    4    5 1  
     6    4    8 ar 
     7    5    6 2  
     8    6    7 1  
     9    7    8 1  
    10    8    9 ar 
    11    9   10 ar 
    12   10   11 1  
    13   11   12 ar 
    14   11   21 ar 
    15   12   13 ar 
    16   13   14 ar 
    17   14   15 ar 
    18   15   16 ar 
    19   15   21 ar 
    20   16   17 1  
    21   16   18 ar 
    22   18   19 ar 
    23   18   22 1  
    24   19   20 ar 
    25   20   21 ar 
    26   22   23 am 
    27   22   24 2  
    28    1   25 1  
    29    1   26 1  
    30    1   27 1  
    31    3   28 1  
    32    5   29 1  
    33    7   30 1  
    34    9   31 1  
    35   12   32 1  
    36   13   33 1  
    37   14   34 1  
    38   17   35 1  
    39   17   36 1  
    40   23   37 1  
    41   23   38 1  
@<TRIPOS>SUBSTRUCTURE
     1 4L6         1

