### 
### Created by X-TOOL on Sun Nov 13 14:28:26 2016
### 

@<TRIPOS>MOLECULE
4z6h_ligand
   38    40     1     0     0
SMALL
GAST_HUCK


@<TRIPOS>ATOM
      1 OAC       113.2390  141.0420    7.5730 O.2       1 MOL        -0.3833
      2 CAM       112.7460  141.2860    6.4690 C.2       1 MOL         0.2083
      3 CAK       112.8850  142.6130    5.9360 C.3       1 MOL         0.0440
      4 CAI       111.6860  142.9900    5.0120 C.3       1 MOL        -0.0332
      5 CAJ       111.8060  141.9480    3.8550 C.3       1 MOL        -0.0249
      6 CAL       111.4730  140.5610    4.4200 C.3       1 MOL         0.0572
      7 NAS       112.0950  140.2970    5.7710 N.am      1 MOL        -0.2190
      8 CAO       111.8400  139.0140    6.2160 C.ar      1 MOL         0.0641
      9 CAH       110.5360  138.7420    6.6600 C.ar      1 MOL        -0.0126
     10 CAR       110.1020  137.4860    7.1080 C.ar      1 MOL         0.0783
     11 NAT       108.8160  137.3060    7.5290 N.am      1 MOL        -0.2256
     12 CAB       107.7710  138.3970    7.5980 C.3       1 MOL         0.0481
     13 CAP       108.4360  136.0770    7.9300 C.2       1 MOL         0.1877
     14 OAD       107.2910  135.9170    8.2790 O.2       1 MOL        -0.4162
     15 CAG       109.3420  134.9930    7.9210 C.2       1 MOL        -0.0095
     16 CAN       110.6550  135.1430    7.5160 C.2       1 MOL        -0.0409
     17 CAA       111.5760  134.0410    7.5410 C.3       1 MOL        -0.0278
     18 CAQ       111.0550  136.4310    7.1050 C.ar      1 MOL         0.0064
     19 CAF       112.3740  136.6820    6.6480 C.ar      1 MOL        -0.0677
     20 CAE       112.7670  137.9590    6.1950 C.ar      1 MOL        -0.0457
     21 H1        113.8159  142.6676    5.3526 H         1 MOL         0.0508
     22 H2        112.9321  143.3292    6.7695 H         1 MOL         0.0508
     23 H3        111.7851  144.0177    4.6325 H         1 MOL         0.0291
     24 H4        110.7280  142.8857    5.5423 H         1 MOL         0.0291
     25 H5        112.8313  141.9510    3.4565 H         1 MOL         0.0291
     26 H6        111.0993  142.2016    3.0511 H         1 MOL         0.0291
     27 H7        111.8376  139.8004    3.7140 H         1 MOL         0.0591
     28 H8        110.3805  140.4774    4.5171 H         1 MOL         0.0591
     29 H9        109.8189  139.5549    6.6562 H         1 MOL         0.0392
     30 H10       108.2057  139.3439    7.2454 H         1 MOL         0.0568
     31 H11       107.4313  138.5142    8.6376 H         1 MOL         0.0568
     32 H12       106.9159  138.1265    6.9611 H         1 MOL         0.0568
     33 H13       108.9961  134.0116    8.2422 H         1 MOL         0.0357
     34 H14       111.0565  133.1369    7.8912 H         1 MOL         0.0425
     35 H15       112.4074  134.2734    8.2227 H         1 MOL         0.0425
     36 H16       111.9693  133.8688    6.5283 H         1 MOL         0.0425
     37 H17       113.0967  135.8741    6.6468 H         1 MOL         0.0597
     38 H18       113.7756  138.1245    5.8339 H         1 MOL         0.0435
@<TRIPOS>BOND
     1    1    2 2  
     2    2    3 1  
     3    2    7 am 
     4    3    4 1  
     5    4    5 1  
     6    5    6 1  
     7    6    7 1  
     8    7    8 1  
     9    8    9 ar 
    10    8   20 ar 
    11    9   10 ar 
    12   10   11 1  
    13   10   18 ar 
    14   11   12 1  
    15   11   13 am 
    16   13   14 2  
    17   13   15 1  
    18   15   16 2  
    19   16   17 1  
    20   16   18 1  
    21   18   19 ar 
    22   19   20 ar 
    23    3   21 1  
    24    3   22 1  
    25    4   23 1  
    26    4   24 1  
    27    5   25 1  
    28    5   26 1  
    29    6   27 1  
    30    6   28 1  
    31    9   29 1  
    32   12   30 1  
    33   12   31 1  
    34   12   32 1  
    35   15   33 1  
    36   17   34 1  
    37   17   35 1  
    38   17   36 1  
    39   19   37 1  
    40   20   38 1  
@<TRIPOS>SUBSTRUCTURE
     1 MOL         1

