### 
### Created by X-TOOL on Sun Nov 13 14:28:15 2016
### 

@<TRIPOS>MOLECULE
4z6i_ligand
   65    68     1     0     0
SMALL
GAST_HUCK


@<TRIPOS>ATOM
      1 CAK        46.2290   -1.0530   35.9320 C.3       1 MOL        -0.0278
      2 CAJ        47.3760   -1.2700   35.0180 C.2       1 MOL        -0.0409
      3 CAI        48.6680   -1.3120   35.4840 C.2       1 MOL        -0.0095
      4 CAH        49.7660   -1.5110   34.6210 C.2       1 MOL         0.1877
      5 OAL        50.9110   -1.5390   35.1010 O.2       1 MOL        -0.4162
      6 NAG        49.5500   -1.7640   33.2760 N.am      1 MOL        -0.2256
      7 CAM        50.6970   -2.0320   32.3530 C.3       1 MOL         0.0481
      8 CAD        48.2610   -1.7960   32.7800 C.ar      1 MOL         0.0783
      9 CAC        48.0100   -2.0580   31.4200 C.ar      1 MOL        -0.0124
     10 CAE        47.1720   -1.4930   33.6300 C.ar      1 MOL         0.0064
     11 CAF        45.8740   -1.4870   33.0910 C.ar      1 MOL        -0.0676
     12 CAA        45.6330   -1.7530   31.7360 C.ar      1 MOL        -0.0455
     13 CAB        46.7140   -2.0340   30.9080 C.ar      1 MOL         0.0668
     14 NAN        46.4600   -2.3800   29.6140 N.am      1 MOL        -0.2024
     15 CAO        45.8220   -3.5920   29.4210 C.2       1 MOL         0.2106
     16 OAT        45.4260   -4.2630   30.4160 O.2       1 MOL        -0.3831
     17 CAP        45.4300   -4.1090   28.1410 C.3       1 MOL         0.0464
     18 CAQ        46.2560   -3.4430   27.0170 C.3       1 MOL        -0.0079
     19 CAR        46.3230   -1.9800   27.1950 C.3       1 MOL         0.0842
     20 NBA        47.1560   -1.5220   26.0890 N.am      1 MOL        -0.2546
     21 CBB        46.5760   -1.1660   24.9310 C.2       1 MOL         0.3205
     22 OBH        45.3470   -1.0860   24.8360 O.2       1 MOL        -0.3775
     23 OBC        47.3810   -0.9260   23.8800 O.3       1 MOL        -0.2581
     24 CBD        46.8650   -0.9500   22.5120 C.3       1 MOL         0.0905
     25 CBF        45.9860   -2.2060   22.2310 C.3       1 MOL        -0.0320
     26 CBG        48.1300   -0.9150   21.6310 C.3       1 MOL        -0.0320
     27 CBE        46.0550    0.3250   22.2560 C.3       1 MOL        -0.0320
     28 CAS        47.0410   -1.6080   28.5410 C.3       1 MOL         0.1242
     29 CAU        46.9990   -0.2340   28.7740 C.ar      1 MOL        -0.0097
     30 CAV        48.2090    0.4950   28.8580 C.ar      1 MOL        -0.0576
     31 CAW        48.1910    1.9070   29.0810 C.ar      1 MOL        -0.0685
     32 CAX        46.9700    2.5650   29.2070 C.ar      1 MOL        -0.0687
     33 CAY        45.7830    1.8350   29.1150 C.ar      1 MOL        -0.0685
     34 CAZ        45.7710    0.4420   28.8970 C.ar      1 MOL        -0.0576
     35 H1         46.6001   -0.9005   36.9562 H         1 MOL         0.0425
     36 H2         45.5696   -1.9331   35.9082 H         1 MOL         0.0425
     37 H3         45.6664   -0.1644   35.6098 H         1 MOL         0.0425
     38 H4         48.8496   -1.1881   36.5506 H         1 MOL         0.0357
     39 H5         51.6415   -1.9658   32.9130 H         1 MOL         0.0568
     40 H6         50.6979   -1.2874   31.5434 H         1 MOL         0.0568
     41 H7         50.5949   -3.0398   31.9242 H         1 MOL         0.0568
     42 H8         48.8394   -2.2824   30.7591 H         1 MOL         0.0392
     43 H9         45.0348   -1.2704   33.7421 H         1 MOL         0.0597
     44 H10        44.6235   -1.7399   31.3414 H         1 MOL         0.0435
     45 H11        44.3621   -3.9020   27.9777 H         1 MOL         0.0509
     46 H12        45.6001   -5.1956   28.1210 H         1 MOL         0.0509
     47 H13        45.7859   -3.6647   26.0476 H         1 MOL         0.0314
     48 H14        47.2767   -3.8527   27.0318 H         1 MOL         0.0314
     49 H15        45.3196   -1.5305   27.1610 H         1 MOL         0.0608
     50 H16        48.1495   -1.4735   26.1918 H         1 MOL         0.1873
     51 H17        45.6244   -2.1756   21.1926 H         1 MOL         0.0260
     52 H18        45.1271   -2.2137   22.9182 H         1 MOL         0.0260
     53 H19        46.5861   -3.1152   22.3837 H         1 MOL         0.0260
     54 H20        47.8387   -0.9302   20.5704 H         1 MOL         0.0260
     55 H21        48.7552   -1.7926   21.8521 H         1 MOL         0.0260
     56 H22        48.6985    0.0028   21.8420 H         1 MOL         0.0260
     57 H23        45.6648    0.3112   21.2276 H         1 MOL         0.0260
     58 H24        46.7025    1.2040   22.3906 H         1 MOL         0.0260
     59 H25        45.2162    0.3752   22.9658 H         1 MOL         0.0260
     60 H26        48.0996   -1.8944   28.4553 H         1 MOL         0.0815
     61 H27        49.1565   -0.0210   28.7525 H         1 MOL         0.0558
     62 H28        49.1201    2.4610   29.1514 H         1 MOL         0.0599
     63 H29        46.9412    3.6355   29.3752 H         1 MOL         0.0559
     64 H30        44.8383    2.3573   29.2146 H         1 MOL         0.0599
     65 H31        44.8337   -0.0978   28.8255 H         1 MOL         0.0558
@<TRIPOS>BOND
     1    1    2 1  
     2    2    3 2  
     3    2   10 1  
     4    3    4 1  
     5    4    5 2  
     6    4    6 am 
     7    6    7 1  
     8    6    8 1  
     9    8    9 ar 
    10    8   10 ar 
    11    9   13 ar 
    12   10   11 ar 
    13   11   12 ar 
    14   12   13 ar 
    15   13   14 1  
    16   14   15 am 
    17   14   28 1  
    18   15   16 2  
    19   15   17 1  
    20   17   18 1  
    21   18   19 1  
    22   19   20 1  
    23   19   28 1  
    24   20   21 am 
    25   21   22 2  
    26   21   23 1  
    27   23   24 1  
    28   24   25 1  
    29   24   26 1  
    30   24   27 1  
    31   28   29 1  
    32   29   30 ar 
    33   29   34 ar 
    34   30   31 ar 
    35   31   32 ar 
    36   32   33 ar 
    37   33   34 ar 
    38    1   35 1  
    39    1   36 1  
    40    1   37 1  
    41    3   38 1  
    42    7   39 1  
    43    7   40 1  
    44    7   41 1  
    45    9   42 1  
    46   11   43 1  
    47   12   44 1  
    48   17   45 1  
    49   17   46 1  
    50   18   47 1  
    51   18   48 1  
    52   19   49 1  
    53   20   50 1  
    54   25   51 1  
    55   25   52 1  
    56   25   53 1  
    57   26   54 1  
    58   26   55 1  
    59   26   56 1  
    60   27   57 1  
    61   27   58 1  
    62   27   59 1  
    63   28   60 1  
    64   30   61 1  
    65   31   62 1  
    66   32   63 1  
    67   33   64 1  
    68   34   65 1  
@<TRIPOS>SUBSTRUCTURE
     1 MOL         1

