### 
### Created by X-TOOL on Mon Sep 10 21:13:25 2018
### 

@<TRIPOS>MOLECULE
4z7f_ligand
   50    52     1     0     0
SMALL
GAST_HUCK


@<TRIPOS>ATOM
      1 N1        -12.1800    1.8810   59.7270 N.pl3     1 FOL        -0.2042
      2 C2        -11.7260    2.8370   60.5720 C.cat     1 FOL         0.2087
      3 NA2       -11.0290    2.4900   61.6700 N.pl3     1 FOL        -0.3305
      4 N3        -11.9100    4.1650   60.3900 N.am      1 FOL        -0.2435
      5 C4        -12.5730    4.6270   59.3140 C.2       1 FOL         0.2754
      6 O4        -12.7590    5.8470   59.1370 O.2       1 FOL        -0.3491
      7 C4A       -13.1010    3.6480   58.3430 C.ar      1 FOL         0.2637
      8 N5        -13.7880    4.0320   57.2470 N.ar      1 FOL        -0.1670
      9 C6        -14.2560    3.0940   56.3830 C.ar      1 FOL         0.1651
     10 C7        -14.0270    1.7350   56.6250 C.ar      1 FOL         0.1244
     11 N8        -13.3470    1.3180   57.7170 N.ar      1 FOL        -0.1568
     12 C8A       -12.8600    2.2150   58.6130 C.ar      1 FOL         0.2851
     13 C9        -15.0010    3.5360   55.1400 C.3       1 FOL         0.1188
     14 N10       -14.3380    3.0650   53.9260 N.pl3     1 FOL        -0.2900
     15 C11       -10.8650    4.4650   52.0310 C.ar      1 FOL         0.0362
     16 C12       -12.1500    4.7570   51.5560 C.ar      1 FOL        -0.0535
     17 C13       -13.3050    4.2970   52.1910 C.ar      1 FOL        -0.0379
     18 C14       -13.1940    3.5230   53.3450 C.ar      1 FOL         0.0480
     19 C15       -11.9230    3.2170   53.8370 C.ar      1 FOL        -0.0379
     20 C16       -10.7840    3.6960   53.1840 C.ar      1 FOL        -0.0535
     21 C          -9.6310    5.0100   51.3080 C.2       1 FOL         0.1968
     22 O          -9.5690    4.8580   50.0950 O.2       1 FOL        -0.3908
     23 N          -8.6750    5.6860   51.9750 N.am      1 FOL        -0.2725
     24 CA         -7.5540    6.4100   51.3990 C.3       1 FOL         0.0951
     25 CB         -7.4700    7.8800   51.8340 C.3       1 FOL        -0.0064
     26 CG         -7.4100    8.9240   50.7060 C.3       1 FOL         0.0038
     27 CD         -7.4820   10.3770   51.1910 C.2       1 FOL         0.0350
     28 OE1        -7.2820   11.2930   50.3620 O.co2     1 FOL        -0.5690
     29 OE2        -7.7380   10.6190   52.3960 O.co2     1 FOL        -0.5690
     30 CT         -6.3640    5.7690   52.0200 C.2       1 FOL         0.0601
     31 O1         -5.3090    5.6160   51.3650 O.co2     1 FOL        -0.5666
     32 O2         -6.5010    5.3860   53.2030 O.co2     1 FOL        -0.5666
     33 H1        -12.0036    0.8884   59.9382 H         1 FOL         0.2564
     34 H2        -10.6840    3.2176   62.3123 H         1 FOL         0.1792
     35 H3        -10.8407    1.4969   61.8679 H         1 FOL         0.1792
     36 H4        -11.5491    4.8107   61.0629 H         1 FOL         0.1833
     37 H5        -14.4028    1.0005   55.9219 H         1 FOL         0.1319
     38 H6        -15.0447    4.6349   55.1206 H         1 FOL         0.0954
     39 H7        -16.0224    3.1288   55.1710 H         1 FOL         0.0954
     40 H8        -14.7983    2.2798   53.4438 H         1 FOL         0.1844
     41 H9        -12.2513    5.3624   50.6625 H         1 FOL         0.0636
     42 H10       -14.2820    4.5402   51.7892 H         1 FOL         0.0530
     43 H11       -11.8199    2.6068   54.7270 H         1 FOL         0.0530
     44 H12        -9.8072    3.4598   53.5903 H         1 FOL         0.0636
     45 H13        -8.7442    5.6900   52.9726 H         1 FOL         0.1864
     46 H14        -7.5582    6.3292   50.3020 H         1 FOL         0.0726
     47 H15        -6.5639    7.9966   52.4466 H         1 FOL         0.0323
     48 H16        -8.3572    8.0992   52.4462 H         1 FOL         0.0323
     49 H17        -8.2551    8.7453   50.0250 H         1 FOL         0.0432
     50 H18        -6.4644    8.7888   50.1605 H         1 FOL         0.0432
@<TRIPOS>BOND
     1    1    2 ar 
     2   12    1 1  
     3    2    3 ar 
     4    4    2 ar 
     5    5    4 am 
     6    5    6 2  
     7    7    5 1  
     8    8    7 ar 
     9    7   12 ar 
    10    9    8 ar 
    11    9   10 ar 
    12   13    9 1  
    13   10   11 ar 
    14   11   12 ar 
    15   14   13 1  
    16   18   14 1  
    17   16   15 ar 
    18   15   20 ar 
    19   15   21 1  
    20   17   16 ar 
    21   17   18 ar 
    22   18   19 ar 
    23   19   20 ar 
    24   21   22 2  
    25   21   23 am 
    26   23   24 1  
    27   24   25 1  
    28   24   30 1  
    29   25   26 1  
    30   26   27 1  
    31   27   28 ar 
    32   27   29 ar 
    33   30   31 ar 
    34   30   32 ar 
    35    1   33 1  
    36    3   34 1  
    37    3   35 1  
    38    4   36 1  
    39   10   37 1  
    40   13   38 1  
    41   13   39 1  
    42   14   40 1  
    43   16   41 1  
    44   17   42 1  
    45   19   43 1  
    46   20   44 1  
    47   23   45 1  
    48   24   46 1  
    49   25   47 1  
    50   25   48 1  
    51   26   49 1  
    52   26   50 1  
@<TRIPOS>SUBSTRUCTURE
     1 FOL         1

