### 
### Created by X-TOOL on Mon Sep 10 21:13:24 2018
### 

@<TRIPOS>MOLECULE
4z7h_ligand
   43    45     1     0     0
SMALL
GAST_HUCK


@<TRIPOS>ATOM
      1 C10        34.1820  -13.2100   10.5540 C.ar      1 4L5        -0.0050
      2 C13        36.1070  -17.4340   10.6420 C.3       1 4L5        -0.0428
      3 C15        35.4030  -13.8670   10.4820 C.ar      1 4L5        -0.0252
      4 C17        36.6070  -11.8380   11.0360 C.ar      1 4L5         0.0724
      5 C20        37.8880  -11.0980   11.4070 C.2       1 4L5         0.1928
      6 C24        38.1710  -14.6080    9.4980 C.3       1 4L5         0.0608
      7 C01        33.1380  -17.5890    9.8710 C.2       1 4L5         0.1475
      8 C02        31.8010  -17.8930    9.5140 C.2       1 4L5        -0.0003
      9 C03        30.8870  -16.7880    9.4550 C.2       1 4L5         0.0046
     10 C04        31.3830  -15.4560    9.7340 C.2       1 4L5         0.1625
     11 N05        32.6440  -15.2820   10.0120 N.pl3     1 4L5        -0.1422
     12 N06        33.5020  -16.3240   10.0690 N.2       1 4L5        -0.1451
     13 N07        30.7280  -14.2540    9.8040 N.2       1 4L5        -0.3263
     14 C08        31.6250  -13.3000   10.0960 C.2       1 4L5        -0.0099
     15 C09        32.8770  -13.9170   10.2290 C.2       1 4L5         0.1112
     16 N11        34.0920  -18.6510    9.8350 N.pl3     1 4L5        -0.3016
     17 C12        35.3020  -18.7080   10.6100 C.3       1 4L5         0.0321
     18 C14        36.1940  -19.8010   10.0480 C.3       1 4L5        -0.0428
     19 C16        36.6090  -13.1980   10.7120 C.ar      1 4L5         0.1065
     20 C18        35.3840  -11.1680   11.0950 C.ar      1 4L5        -0.0550
     21 C19        34.1890  -11.8460   10.8370 C.ar      1 4L5        -0.0640
     22 O21        37.8440   -9.9270   11.7360 O.2       1 4L5        -0.3937
     23 N22        39.1540  -11.7460   11.4430 N.am      1 4L5        -0.3028
     24 O23        37.8210  -13.9270   10.6890 O.3       1 4L5        -0.3176
     25 H1         37.0062  -17.5839   11.2576 H         1 4L5         0.0251
     26 H2         35.4978  -16.6261   11.0734 H         1 4L5         0.0251
     27 H3         36.4045  -17.1624    9.6184 H         1 4L5         0.0251
     28 H4         35.4217  -14.9239   10.2417 H         1 4L5         0.0505
     29 H5         39.1326  -15.1231    9.6392 H         1 4L5         0.0580
     30 H6         38.2602  -13.8843    8.6745 H         1 4L5         0.0580
     31 H7         37.3922  -15.3458    9.2550 H         1 4L5         0.0580
     32 H8         31.4835  -18.9116    9.2958 H         1 4L5         0.0691
     33 H9         29.8393  -16.9481    9.2049 H         1 4L5         0.0750
     34 H10        31.4178  -12.2369   10.2094 H         1 4L5         0.0572
     35 H11        33.8976  -19.4404    9.2025 H         1 4L5         0.1794
     36 H12        35.0257  -18.9609   11.6442 H         1 4L5         0.0544
     37 H13        35.6350  -20.7476   10.0110 H         1 4L5         0.0251
     38 H14        37.0769  -19.9216   10.6929 H         1 4L5         0.0251
     39 H15        36.5162  -19.5256    9.0330 H         1 4L5         0.0251
     40 H16        35.3606  -10.1130   11.3430 H         1 4L5         0.0627
     41 H17        33.2521  -11.3012   10.8575 H         1 4L5         0.0502
     42 H18        39.9734  -11.2291   11.6908 H         1 4L5         0.1802
     43 H19        39.2245  -12.7184   11.2205 H         1 4L5         0.1802
@<TRIPOS>BOND
     1    3    1 ar 
     2    1   15 1  
     3    1   21 ar 
     4   17    2 1  
     5   19    3 ar 
     6    4    5 1  
     7   19    4 ar 
     8    4   20 ar 
     9    5   22 2  
    10    5   23 am 
    11   24    6 1  
    12    7    8 1  
    13   12    7 2  
    14    7   16 1  
    15    9    8 2  
    16   10    9 1  
    17   11   10 1  
    18   13   10 2  
    19   11   12 1  
    20   15   11 1  
    21   14   13 1  
    22   15   14 2  
    23   16   17 1  
    24   17   18 1  
    25   19   24 1  
    26   20   21 ar 
    27    2   25 1  
    28    2   26 1  
    29    2   27 1  
    30    3   28 1  
    31    6   29 1  
    32    6   30 1  
    33    6   31 1  
    34    8   32 1  
    35    9   33 1  
    36   14   34 1  
    37   16   35 1  
    38   17   36 1  
    39   18   37 1  
    40   18   38 1  
    41   18   39 1  
    42   20   40 1  
    43   21   41 1  
    44   23   42 1  
    45   23   43 1  
@<TRIPOS>SUBSTRUCTURE
     1 4L5         1

