### 
### Created by X-TOOL on Mon Sep 10 21:13:25 2018
### 

@<TRIPOS>MOLECULE
4z7n_ligand
   48    47     1     0     0
SMALL
GAST_HUCK


@<TRIPOS>ATOM
      1 N          50.1860  107.3530   74.6560 N.4       1 ALA         0.2377
      2 CA         50.9690  108.5390   74.9740 C.3       1 ALA         0.0621
      3 C          51.4270  109.2310   73.6950 C.2       1 ALA         0.2262
      4 O          50.9030  110.2800   73.3250 O.2       1 ALA        -0.3907
      5 CB         52.1620  108.1700   75.8420 C.3       1 ALA        -0.0040
      6 N          52.4090  108.6430   73.0250 N.am      1 GLY        -0.2637
      7 CA         52.8480  109.1730   71.7440 C.3       1 GLY         0.1202
      8 C          53.7780  110.3520   71.9140 C.2       1 GLY         0.2008
      9 O          54.7790  110.2750   72.6280 O.2       1 GLY        -0.3947
     10 N          53.4440  111.4580   71.2490 N.am      1 ASP        -0.2624
     11 CA         54.3140  112.6320   71.1800 C.3       1 ASP         0.1422
     12 C          54.1340  113.4700   72.4430 C.2       1 ASP         0.2051
     13 O          53.4000  114.4620   72.4780 O.2       1 ASP        -0.3943
     14 CB         54.0070  113.4420   69.9280 C.3       1 ASP         0.0406
     15 CG         54.9620  114.5960   69.7340 C.2       1 ASP         0.0393
     16 OD1        56.1580  114.4390   70.0440 O.co2     1 ASP        -0.5688
     17 OD2        54.5140  115.6610   69.2680 O.co2     1 ASP        -0.5688
     18 N          54.8280  113.0590   73.5000 N.am      1 VAL        -0.2691
     19 CA         54.7760  113.7580   74.7810 C.3       1 VAL         0.0967
     20 C          56.1210  113.6800   75.4940 C.2       1 VAL         0.0603
     21 O          56.8640  112.7100   75.3560 O.co2     1 VAL        -0.5666
     22 CB         53.6680  113.1900   75.6830 C.3       1 VAL        -0.0118
     23 CG1        52.2990  113.4410   75.0790 C.3       1 VAL        -0.0590
     24 CG2        53.8840  111.7040   75.9230 C.3       1 VAL        -0.0590
     25 OXT        56.4950  114.5860   76.2390 O.co2     1 VAL        -0.5666
     26 H1         49.8905  106.9066   75.5101 H         1 ALA         0.2015
     27 H2         50.7495  106.7122   74.1195 H         1 ALA         0.2015
     28 H3         49.3760  107.6193   74.1184 H         1 ALA         0.2015
     29 H4         50.3319  109.2365   75.5376 H         1 ALA         0.1095
     30 H5         52.7418  109.0759   76.0726 H         1 ALA         0.0310
     31 H6         52.7998  107.4537   75.3034 H         1 ALA         0.0310
     32 H7         51.8074  107.7136   76.7779 H         1 ALA         0.0310
     33 H8         52.8506  107.8295   73.4034 H         1 GLY         0.1882
     34 H9         51.9662  109.4948   71.1706 H         1 GLY         0.0763
     35 H10        53.3749  108.3805   71.1924 H         1 GLY         0.0763
     36 H11        52.5624  111.4863   70.7779 H         1 ASP         0.1884
     37 H12        55.3601  112.2958   71.1284 H         1 ASP         0.0819
     38 H13        52.9848  113.8404   70.0080 H         1 ASP         0.0478
     39 H14        54.0745  112.7781   69.0535 H         1 ASP         0.0478
     40 H15        55.4036  112.2457   73.4151 H         1 VAL         0.1875
     41 H16        54.5499  114.8162   74.5835 H         1 VAL         0.0729
     42 H17        53.7156  113.7063   76.6531 H         1 VAL         0.0336
     43 H18        51.5245  113.0265   75.7411 H         1 VAL         0.0234
     44 H19        52.2380  112.9549   74.0942 H         1 VAL         0.0234
     45 H20        52.1419  114.5236   74.9639 H         1 VAL         0.0234
     46 H21        54.8806  111.5443   76.3604 H         1 VAL         0.0234
     47 H22        53.8122  111.1640   74.9674 H         1 VAL         0.0234
     48 H23        53.1156  111.3288   76.6149 H         1 VAL         0.0234
@<TRIPOS>BOND
     1    1    2 1  
     2    2    3 1  
     3    2    5 1  
     4    3    4 2  
     5    3    6 am 
     6    6    7 1  
     7    7    8 1  
     8    8    9 2  
     9    8   10 am 
    10   10   11 1  
    11   11   12 1  
    12   11   14 1  
    13   12   13 2  
    14   12   18 am 
    15   14   15 1  
    16   15   16 ar 
    17   15   17 ar 
    18   18   19 1  
    19   19   20 1  
    20   19   22 1  
    21   20   21 ar 
    22   20   25 ar 
    23   22   23 1  
    24   22   24 1  
    25    1   26 1  
    26    1   27 1  
    27    1   28 1  
    28    2   29 1  
    29    5   30 1  
    30    5   31 1  
    31    5   32 1  
    32    6   33 1  
    33    7   34 1  
    34    7   35 1  
    35   10   36 1  
    36   11   37 1  
    37   14   38 1  
    38   14   39 1  
    39   18   40 1  
    40   19   41 1  
    41   22   42 1  
    42   23   43 1  
    43   23   44 1  
    44   23   45 1  
    45   24   46 1  
    46   24   47 1  
    47   24   48 1  
@<TRIPOS>SUBSTRUCTURE
     1 ALA         1

