### 
### Created by X-TOOL on Mon Sep 10 21:13:29 2018
### 

@<TRIPOS>MOLECULE
4z7o_ligand
   48    47     1     0     0
SMALL
GAST_HUCK


@<TRIPOS>ATOM
      1 N          51.2560  107.2190   75.0390 N.4       1 ALA         0.2377
      2 CA         52.1530  108.3270   75.3320 C.3       1 ALA         0.0621
      3 C          52.3930  109.1570   74.0770 C.2       1 ALA         0.2262
      4 O          51.7950  110.2190   73.9040 O.2       1 ALA        -0.3907
      5 CB         53.4710  107.8120   75.8950 C.3       1 ALA        -0.0040
      6 N          53.2670  108.6710   73.2050 N.am      1 GLY        -0.2637
      7 CA         53.5160  109.3600   71.9490 C.3       1 GLY         0.1202
      8 C          54.5320  110.4660   72.1120 C.2       1 GLY         0.2008
      9 O          55.5780  110.2820   72.7370 O.2       1 GLY        -0.3947
     10 N          54.2190  111.6310   71.5440 N.am      1 ASP        -0.2624
     11 CA         55.1640  112.7420   71.4610 C.3       1 ASP         0.1422
     12 C          55.0860  113.5550   72.7480 C.2       1 ASP         0.2051
     13 O          54.4870  114.6280   72.8090 O.2       1 ASP        -0.3943
     14 CB         54.8670  113.5960   70.2360 C.3       1 ASP         0.0406
     15 CG         55.9430  114.6210   69.9670 C.2       1 ASP         0.0393
     16 OD1        57.1210  114.3420   70.2640 O.co2     1 ASP        -0.5688
     17 OD2        55.6120  115.7040   69.4440 O.co2     1 ASP        -0.5688
     18 N          55.7130  113.0200   73.7940 N.am      1 VAL        -0.2691
     19 CA         55.7630  113.6920   75.0890 C.3       1 VAL         0.0967
     20 C          57.1150  113.4560   75.7510 C.2       1 VAL         0.0603
     21 O          57.9120  112.6410   75.2910 O.co2     1 VAL        -0.5666
     22 CB         54.6280  113.2200   76.0110 C.3       1 VAL        -0.0118
     23 CG1        53.2760  113.5130   75.3880 C.3       1 VAL        -0.0590
     24 CG2        54.7660  111.7390   76.3160 C.3       1 VAL        -0.0590
     25 OXT        57.4380  114.0740   76.7640 O.co2     1 VAL        -0.5666
     26 H1         51.1054  106.6782   75.8762 H         1 ALA         0.2015
     27 H2         51.6670  106.6325   74.3296 H         1 ALA         0.2015
     28 H3         50.3744  107.5788   74.7083 H         1 ALA         0.2015
     29 H4         51.6790  108.9690   76.0890 H         1 ALA         0.1095
     30 H5         54.1350  108.6622   76.1100 H         1 ALA         0.0310
     31 H6         53.9502  107.1495   75.1591 H         1 ALA         0.0310
     32 H7         53.2798  107.2524   76.8225 H         1 ALA         0.0310
     33 H8         53.7579  107.8250   73.4130 H         1 GLY         0.1882
     34 H9         52.5721  109.7933   71.5865 H         1 GLY         0.0763
     35 H10        53.8932  108.6348   71.2129 H         1 GLY         0.0763
     36 H11        53.3030  111.7487   71.1604 H         1 ASP         0.1884
     37 H12        56.1821  112.3374   71.3625 H         1 ASP         0.0819
     38 H13        53.9131  114.1203   70.3950 H         1 ASP         0.0478
     39 H14        54.7815  112.9369   69.3595 H         1 ASP         0.0478
     40 H15        56.1623  112.1328   73.6894 H         1 VAL         0.1875
     41 H16        55.6418  114.7723   74.9208 H         1 VAL         0.0729
     42 H17        54.6993  113.7753   76.9579 H         1 VAL         0.0336
     43 H18        52.4788  113.1679   76.0629 H         1 VAL         0.0234
     44 H19        53.1943  112.9874   74.4251 H         1 VAL         0.0234
     45 H20        53.1746  114.5960   75.2244 H         1 VAL         0.0234
     46 H21        55.7512  111.5477   76.7663 H         1 VAL         0.0234
     47 H22        54.6705  111.1623   75.3842 H         1 VAL         0.0234
     48 H23        53.9764  111.4341   77.0185 H         1 VAL         0.0234
@<TRIPOS>BOND
     1    1    2 1  
     2    2    3 1  
     3    2    5 1  
     4    3    4 2  
     5    3    6 am 
     6    6    7 1  
     7    7    8 1  
     8    8    9 2  
     9    8   10 am 
    10   10   11 1  
    11   11   12 1  
    12   11   14 1  
    13   12   13 2  
    14   12   18 am 
    15   14   15 1  
    16   15   16 ar 
    17   15   17 ar 
    18   18   19 1  
    19   19   20 1  
    20   19   22 1  
    21   20   21 ar 
    22   20   25 ar 
    23   22   23 1  
    24   22   24 1  
    25    1   26 1  
    26    1   27 1  
    27    1   28 1  
    28    2   29 1  
    29    5   30 1  
    30    5   31 1  
    31    5   32 1  
    32    6   33 1  
    33    7   34 1  
    34    7   35 1  
    35   10   36 1  
    36   11   37 1  
    37   14   38 1  
    38   14   39 1  
    39   18   40 1  
    40   19   41 1  
    41   22   42 1  
    42   23   43 1  
    43   23   44 1  
    44   23   45 1  
    45   24   46 1  
    46   24   47 1  
    47   24   48 1  
@<TRIPOS>SUBSTRUCTURE
     1 ALA         1

