### 
### Created by X-TOOL on Mon Sep 10 21:13:23 2018
### 

@<TRIPOS>MOLECULE
4z7q_ligand
   50    49     1     0     0
SMALL
GAST_HUCK


@<TRIPOS>ATOM
      1 N          51.1010  107.0930   74.8380 N.4       1 ALA         0.2377
      2 CA         51.9170  108.2710   75.1030 C.3       1 ALA         0.0621
      3 C          52.0770  109.1140   73.8390 C.2       1 ALA         0.2262
      4 O          51.3740  110.1080   73.6540 O.2       1 ALA        -0.3907
      5 CB         53.2790  107.8600   75.6490 C.3       1 ALA        -0.0040
      6 N          53.0030  108.7110   72.9730 N.am      1 GLY        -0.2637
      7 CA         53.2370  109.4100   71.7230 C.3       1 GLY         0.1202
      8 C          54.2470  110.5350   71.8530 C.2       1 GLY         0.2008
      9 O          55.1900  110.4500   72.6390 O.2       1 GLY        -0.3947
     10 N          54.0440  111.5930   71.0750 N.am      1 ASP        -0.2624
     11 CA         54.9690  112.7200   71.0490 C.3       1 ASP         0.1423
     12 C          54.8010  113.6050   72.2800 C.2       1 ASP         0.2056
     13 O          54.1710  114.6600   72.2150 O.2       1 ASP        -0.3943
     14 CB         54.7570  113.5430   69.7780 C.3       1 ASP         0.0406
     15 CG         55.6850  114.7320   69.6940 C.2       1 ASP         0.0393
     16 OD1        56.7990  114.6570   70.2530 O.co2     1 ASP        -0.5688
     17 OD2        55.2980  115.7430   69.0690 O.co2     1 ASP        -0.5688
     18 N          55.3760  113.1720   73.3990 N.am      1 VAL        -0.2634
     19 CA         55.2430  113.8880   74.6650 C.3       1 VAL         0.1329
     20 C          56.5030  113.7530   75.5110 C.2       1 VAL         0.1994
     21 O          56.8100  114.6220   76.3290 O.2       1 VAL        -0.3947
     22 CB         54.0360  113.3750   75.4770 C.3       1 VAL        -0.0063
     23 CG1        52.7270  113.7470   74.7890 C.3       1 VAL        -0.0584
     24 CG2        54.1290  111.8670   75.6850 C.3       1 VAL        -0.0584
     25 N          57.2420  112.7750   75.3970 N.am      1 NH2        -0.2990
     26 H1         51.0080  106.5516   75.6832 H         1 ALA         0.2015
     27 H2         51.5422  106.5318   74.1264 H         1 ALA         0.2015
     28 H3         50.1884  107.3807   74.5212 H         1 ALA         0.2015
     29 H4         51.4080  108.8814   75.8635 H         1 ALA         0.1095
     30 H5         53.8824  108.7589   75.8437 H         1 ALA         0.0310
     31 H6         53.7933  107.2258   74.9120 H         1 ALA         0.0310
     32 H7         53.1445  107.2988   76.5854 H         1 ALA         0.0310
     33 H8         53.5529  107.9043   73.1894 H         1 GLY         0.1882
     34 H9         52.2836  109.8335   71.3743 H         1 GLY         0.0763
     35 H10        53.6102  108.6878   70.9820 H         1 GLY         0.0763
     36 H11        53.2332  111.6170   70.4902 H         1 ASP         0.1884
     37 H12        55.9957  112.3252   71.0441 H         1 ASP         0.0819
     38 H13        53.7184  113.9050   69.7619 H         1 ASP         0.0478
     39 H14        54.9335  112.8962   68.9060 H         1 ASP         0.0478
     40 H15        55.9157  112.3306   73.3724 H         1 VAL         0.1883
     41 H16        55.0853  114.9531   74.4398 H         1 VAL         0.0802
     42 H17        54.0548  113.8596   76.4643 H         1 VAL         0.0343
     43 H18        51.8809  113.3723   75.3837 H         1 VAL         0.0234
     44 H19        52.6987  113.2958   73.7862 H         1 VAL         0.0234
     45 H20        52.6571  114.8412   74.7009 H         1 VAL         0.0234
     46 H21        55.0797  111.6234   76.1818 H         1 VAL         0.0234
     47 H22        54.0839  111.3589   74.7104 H         1 VAL         0.0234
     48 H23        53.2906  111.5310   76.3128 H         1 VAL         0.0234
     49 H24        58.0652  112.7020   75.9600 H         1 NH2         0.1815
     50 H25        57.0191  112.0536   74.7414 H         1 NH2         0.1815
@<TRIPOS>BOND
     1    1    2 1  
     2    2    3 1  
     3    2    5 1  
     4    3    4 2  
     5    3    6 am 
     6    6    7 1  
     7    7    8 1  
     8    8    9 2  
     9    8   10 am 
    10   10   11 1  
    11   11   12 1  
    12   11   14 1  
    13   12   13 2  
    14   12   18 am 
    15   14   15 1  
    16   15   16 ar 
    17   15   17 ar 
    18   18   19 1  
    19   19   20 1  
    20   19   22 1  
    21   20   21 2  
    22   20   25 am 
    23   22   23 1  
    24   22   24 1  
    25    1   26 1  
    26    1   27 1  
    27    1   28 1  
    28    2   29 1  
    29    5   30 1  
    30    5   31 1  
    31    5   32 1  
    32    6   33 1  
    33    7   34 1  
    34    7   35 1  
    35   10   36 1  
    36   11   37 1  
    37   14   38 1  
    38   14   39 1  
    39   18   40 1  
    40   19   41 1  
    41   22   42 1  
    42   23   43 1  
    43   23   44 1  
    44   23   45 1  
    45   24   46 1  
    46   24   47 1  
    47   24   48 1  
    48   25   49 1  
    49   25   50 1  
@<TRIPOS>SUBSTRUCTURE
     1 ALA         1

