### 
### Created by X-TOOL on Mon Sep 10 21:13:23 2018
### 

@<TRIPOS>MOLECULE
4z83_ligand
   39    42     1     0     0
SMALL
GAST_HUCK


@<TRIPOS>ATOM
      1 C4        -14.1230  -11.4860    6.4350 C.2       1 4L7         0.1493
      2 C5        -13.4780  -10.1140    6.3050 C.3       1 4L7         0.0907
      3 C6        -14.5410   -8.9990    6.3040 C.3       1 4L7        -0.0132
      4 C7        -12.5910   -8.1410    7.2840 C.3       1 4L7        -0.0181
      5 BR        -17.6600  -14.4300    3.0810 Br        1 4L7        -0.0321
      6 C1        -16.0080  -12.0710    3.2500 C.2       1 4L7        -0.0552
      7 C2        -15.1130  -11.3740    4.0820 C.2       1 4L7        -0.0503
      8 C3        -14.9260  -11.9540    5.3040 C.2       1 4L7         0.0867
      9 C         -16.4860  -13.1810    3.8380 C.2       1 4L7         0.0735
     10 O         -13.9750  -12.1680    7.4320 O.2       1 4L7        -0.3825
     11 N         -13.9330   -7.7840    6.8710 N.4       1 4L7         0.2307
     12 O1         -6.2640  -11.0620    8.5610 O.2       1 4L7        -0.3875
     13 C15        -6.9160  -10.8610    7.5380 C.2       1 4L7         0.2340
     14 N1         -6.2990  -10.7780    6.2880 N.am      1 4L7        -0.1989
     15 C16        -6.9990  -10.5670    5.1480 C.2       1 4L7         0.1266
     16 N2         -8.3200  -10.3810    5.0860 N.2       1 4L7        -0.2978
     17 C11        -9.0170  -10.4310    6.3010 C.ar      1 4L7         0.0173
     18 C10       -10.3980  -10.2140    6.2720 C.ar      1 4L7        -0.0485
     19 C12        -8.3810  -10.6910    7.5230 C.ar      1 4L7         0.0577
     20 C13        -9.1420  -10.8000    8.6840 C.ar      1 4L7        -0.0537
     21 C14       -10.5100  -10.5970    8.6370 C.ar      1 4L7        -0.0605
     22 C9        -11.1430  -10.2420    7.4510 C.ar      1 4L7        -0.0346
     23 C8        -12.5510   -9.6830    7.4800 C.3       1 4L7         0.0556
     24 S         -15.8770  -13.4150    5.4410 S.3       1 4L7        -0.0205
     25 H1        -12.9068  -10.1006    5.3651 H         1 4L7         0.0598
     26 H2        -15.4022   -9.3049    6.9161 H         1 4L7         0.0843
     27 H3        -14.8742   -8.8029    5.2742 H         1 4L7         0.0843
     28 H4        -12.3434   -7.6367    8.2297 H         1 4L7         0.0843
     29 H5        -11.8689   -7.8430    6.5095 H         1 4L7         0.0843
     30 H6        -16.2816  -11.7487    2.2464 H         1 4L7         0.0495
     31 H7        -14.6142  -10.4546    3.7788 H         1 4L7         0.0534
     32 H8        -14.4673   -7.4665    7.6646 H         1 4L7         0.2017
     33 H9        -13.8996   -7.0555    6.1751 H         1 4L7         0.2017
     34 H10        -5.3055  -10.8779    6.2327 H         1 4L7         0.2556
     35 H11        -6.4431  -10.5475    4.2118 H         1 4L7         0.1519
     36 H12       -10.8931  -10.0227    5.3268 H         1 4L7         0.0504
     37 H13        -8.6626  -11.0440    9.6251 H         1 4L7         0.0634
     38 H14       -11.0979  -10.7167    9.5398 H         1 4L7         0.0517
     39 H15       -13.0020   -9.9667    8.4423 H         1 4L7         0.0550
@<TRIPOS>BOND
     1    2    1 1  
     2    1    8 1  
     3    1   10 2  
     4    2    3 1  
     5   23    2 1  
     6   11    3 1  
     7    4   11 1  
     8   23    4 1  
     9    9    5 1  
    10    7    6 1  
    11    9    6 2  
    12    8    7 2  
    13    8   24 1  
    14   24    9 1  
    15   13   12 2  
    16   13   14 am 
    17   19   13 1  
    18   15   14 1  
    19   16   15 2  
    20   17   16 1  
    21   18   17 ar 
    22   17   19 ar 
    23   22   18 ar 
    24   20   19 ar 
    25   21   20 ar 
    26   22   21 ar 
    27   22   23 1  
    28    2   25 1  
    29    3   26 1  
    30    3   27 1  
    31    4   28 1  
    32    4   29 1  
    33    6   30 1  
    34    7   31 1  
    35   11   32 1  
    36   11   33 1  
    37   14   34 1  
    38   15   35 1  
    39   18   36 1  
    40   20   37 1  
    41   21   38 1  
    42   23   39 1  
@<TRIPOS>SUBSTRUCTURE
     1 4L7         1

