### 
### Created by X-TOOL on Mon Sep 10 21:13:24 2018
### 

@<TRIPOS>MOLECULE
4z84_ligand
   42    45     1     0     0
SMALL
GAST_HUCK


@<TRIPOS>ATOM
      1 CAK       -25.5670  -10.1610   21.1910 C.ar      1 NVX        -0.0485
      2 CAV       -25.8000  -11.5410   21.1790 C.ar      1 NVX         0.0173
      3 NAO       -25.7230  -12.2100   19.9550 N.2       1 NVX        -0.2978
      4 CAI       -25.8520  -13.5210   19.9910 C.2       1 NVX         0.1266
      5 NAP       -26.0570  -14.2480   21.1110 N.am      1 NVX        -0.1989
      6 CAU       -26.1860  -13.6740   22.3620 C.2       1 NVX         0.2340
      7 OAB       -26.3570  -14.3480   23.3740 O.2       1 NVX        -0.3875
      8 CAW       -26.0580  -12.2100   22.3820 C.ar      1 NVX         0.0577
      9 CAH       -26.1470  -11.4870   23.5690 C.ar      1 NVX        -0.0537
     10 CAG       -25.9190  -10.1250   23.5630 C.ar      1 NVX        -0.0605
     11 CAT       -25.5900   -9.4560   22.3950 C.ar      1 NVX        -0.0346
     12 CAY       -25.0850   -8.0300   22.4720 C.3       1 NVX         0.0559
     13 CAM       -23.5390   -7.9450   22.4890 C.3       1 NVX        -0.0180
     14 NAN       -23.1730   -6.5840   22.0810 N.4       1 NVX         0.2308
     15 CAL       -24.3310   -6.0280   21.3630 C.3       1 NVX        -0.0129
     16 CAX       -25.4340   -7.1010   21.2750 C.3       1 NVX         0.0914
     17 CAQ       -26.8280   -6.5000   21.3300 C.2       1 NVX         0.1436
     18 OAA       -27.5200   -6.6440   22.3260 O.2       1 NVX        -0.3777
     19 CAS       -27.3200   -5.7200   20.1580 C.ar      1 NVX         0.0338
     20 CAJ       -28.5490   -5.0600   20.1330 C.ar      1 NVX        -0.0290
     21 CAR       -28.9070   -4.3530   19.0010 C.ar      1 NVX         0.0462
     22 CL        -30.4720   -3.6080   18.9300 Cl        1 NVX        -0.0694
     23 CAE       -28.0760   -4.2520   17.9060 C.ar      1 NVX        -0.0433
     24 CAD       -26.8640   -4.9160   17.9320 C.ar      1 NVX        -0.0554
     25 CAF       -26.4910   -5.6490   19.0430 C.ar      1 NVX        -0.0429
     26 H1        -25.3681   -9.6384   20.2624 H         1 NVX         0.0504
     27 H2        -25.7885  -14.0591   19.0463 H         1 NVX         0.1519
     28 H3        -26.1180  -15.2430   21.0318 H         1 NVX         0.2556
     29 H4        -26.3947  -11.9922   24.4955 H         1 NVX         0.0634
     30 H5        -25.9989   -9.5685   24.4898 H         1 NVX         0.0517
     31 H6        -25.4941   -7.5945   23.3956 H         1 NVX         0.0550
     32 H7        -23.1139   -8.6761   21.7856 H         1 NVX         0.0843
     33 H8        -23.1618   -8.1486   23.5020 H         1 NVX         0.0843
     34 H9        -22.3681   -6.6083   21.4747 H         1 NVX         0.2017
     35 H10       -22.9658   -6.0227   22.8922 H         1 NVX         0.2017
     36 H11       -24.0267   -5.7290   20.3491 H         1 NVX         0.0844
     37 H12       -24.7135   -5.1505   21.9049 H         1 NVX         0.0844
     38 H13       -25.3458   -7.6605   20.3320 H         1 NVX         0.0602
     39 H14       -29.2131   -5.1012   20.9888 H         1 NVX         0.0678
     40 H15       -28.3668   -3.6643   17.0428 H         1 NVX         0.0661
     41 H16       -26.2017   -4.8616   17.0756 H         1 NVX         0.0630
     42 H17       -25.5426   -6.1740   19.0455 H         1 NVX         0.0673
@<TRIPOS>BOND
     1    1    2 ar 
     2    1   11 ar 
     3    2    3 1  
     4    2    8 ar 
     5    3    4 2  
     6    4    5 1  
     7    5    6 am 
     8    6    7 2  
     9    6    8 1  
    10    8    9 ar 
    11    9   10 ar 
    12   10   11 ar 
    13   11   12 1  
    14   12   13 1  
    15   12   16 1  
    16   13   14 1  
    17   14   15 1  
    18   15   16 1  
    19   16   17 1  
    20   17   18 2  
    21   17   19 1  
    22   19   20 ar 
    23   19   25 ar 
    24   20   21 ar 
    25   21   22 1  
    26   21   23 ar 
    27   23   24 ar 
    28   24   25 ar 
    29    1   26 1  
    30    4   27 1  
    31    5   28 1  
    32    9   29 1  
    33   10   30 1  
    34   12   31 1  
    35   13   32 1  
    36   13   33 1  
    37   14   34 1  
    38   14   35 1  
    39   15   36 1  
    40   15   37 1  
    41   16   38 1  
    42   20   39 1  
    43   23   40 1  
    44   24   41 1  
    45   25   42 1  
@<TRIPOS>SUBSTRUCTURE
     1 NVX         1

