### 
### Created by X-TOOL on Mon Sep 10 21:13:25 2018
### 

@<TRIPOS>MOLECULE
4z90_ligand
   12    11     1     0     0
SMALL
GAST_HUCK


@<TRIPOS>ATOM
      1 C01         0.9230   94.5320   19.2710 C.3       1 4LE         0.4297
      2 C02         1.4170   94.4840   20.6640 C.3       1 4LE         0.2315
      3 O01         2.5820   95.2340   20.6540 O.3       1 4LE        -0.2938
      4 C03         3.6980   94.4160   20.4520 C.3       1 4LE         0.3482
      5 F01         1.4720   93.5070   18.6350 F         1 4LE        -0.1667
      6 F02        -0.3990   94.4420   19.2660 F         1 4LE        -0.1667
      7 F03         1.3730   95.6490   18.7170 F         1 4LE        -0.1667
      8 CL1         1.8520   92.8300   20.8920 Cl        1 4LE        -0.0813
      9 F04         3.6140   93.8550   19.2420 F         1 4LE        -0.1783
     10 F05         4.8010   95.1530   20.5220 F         1 4LE        -0.1783
     11 H1          0.6859   94.8420   21.4039 H         1 4LE         0.0861
     12 H2          3.7279   93.6319   21.2228 H         1 4LE         0.1361
@<TRIPOS>BOND
     1    1    2 1  
     2    1    5 1  
     3    1    6 1  
     4    1    7 1  
     5    2    3 1  
     6    2    8 1  
     7    3    4 1  
     8    4    9 1  
     9    4   10 1  
    10    2   11 1  
    11    4   12 1  
@<TRIPOS>SUBSTRUCTURE
     1 4LE         1

