### 
### Created by X-TOOL on Mon Sep 10 21:13:21 2018
### 

@<TRIPOS>MOLECULE
4z93_ligand
   54    59     1     0     0
SMALL
GAST_HUCK


@<TRIPOS>ATOM
      1 C8         16.3430   -7.4940    9.5250 C.3       1 4LD         0.0564
      2 C9         18.1460   -5.3920    8.7370 C.ar      1 4LD        -0.0445
      3 C10        19.0040   -4.4430    8.1980 C.ar      1 4LD        -0.0150
      4 C13        20.2450   -3.8670    8.6390 C.ar      1 4LD         0.0111
      5 C14        21.0110   -3.9440    9.8000 C.ar      1 4LD         0.0167
      6 C3         15.2480   -6.9180    5.6550 C.2       1 4LD         0.1427
      7 C2         14.4390   -4.8440    5.5870 C.2       1 4LD         0.0213
      8 C16        21.3190   -5.6440   11.6520 C.2       1 4LD         0.0810
      9 N1         13.5020   -5.6720    5.0880 N.2       1 4LD        -0.1685
     10 O1         13.9930   -6.9580    5.1230 O.3       1 4LD        -0.1759
     11 C15        20.6020   -4.6340   10.9890 C.2       1 4LD         0.0211
     12 C12        20.7100   -3.0580    7.5560 C.ar      1 4LD         0.0717
     13 C4         16.0030   -8.1740    5.7520 C.3       1 4LD         0.0115
     14 C5         15.5740   -5.6330    5.9890 C.2       1 4LD         0.0149
     15 C6         16.7770   -5.2010    6.6980 C.ar      1 4LD        -0.0171
     16 C11        18.7580   -3.9110    6.9180 C.ar      1 4LD         0.0514
     17 C7         17.0110   -5.7660    7.9700 C.ar      1 4LD         0.0779
     18 N3         20.5160   -6.0370   12.6970 N.pl3     1 4LD        -0.2195
     19 C1         14.2790   -3.3760    5.6710 C.3       1 4LD        -0.0273
     20 O2         16.0530   -6.6700    8.4170 O.3       1 4LD        -0.3306
     21 C17        22.6540   -6.2430   11.3800 C.3       1 4LD         0.0039
     22 C18        19.3770   -4.4860   11.7240 C.2       1 4LD         0.0162
     23 C19        18.2640   -3.5490   11.4640 C.3       1 4LD        -0.0037
     24 C20        17.4220   -3.0260   12.6190 C.3       1 4LD        -0.0389
     25 C21        16.8400   -4.0360   11.6930 C.3       1 4LD        -0.0389
     26 C22        22.6470   -2.5870    8.7850 C.ar      1 4LD        -0.0172
     27 C23        21.9420   -2.4110    7.5900 C.ar      1 4LD        -0.0249
     28 C24        17.6740   -4.2630    6.1650 C.ar      1 4LD        -0.0488
     29 N4         19.3350   -5.3610   12.7590 N.2       1 4LD        -0.2354
     30 N5         22.2240   -3.2870    9.8600 N.ar      1 4LD        -0.3283
     31 N2         19.8000   -3.0580    6.5410 N.pl3     1 4LD        -0.2758
     32 H1         15.4788   -8.1407    9.7371 H         1 4LD         0.0573
     33 H2         16.5555   -6.8664   10.4030 H         1 4LD         0.0573
     34 H3         17.2206   -8.1173    9.2987 H         1 4LD         0.0573
     35 H4         18.3358   -5.8321    9.7093 H         1 4LD         0.0467
     36 H5         16.9884   -7.9758    6.1988 H         1 4LD         0.0462
     37 H6         16.1353   -8.6009    4.7469 H         1 4LD         0.0462
     38 H7         15.4508   -8.8860    6.3830 H         1 4LD         0.0462
     39 H8         20.7820   -6.7717   13.3681 H         1 4LD         0.2523
     40 H9         15.1829   -2.9335    6.1149 H         1 4LD         0.0378
     41 H10        13.4078   -3.1374    6.2987 H         1 4LD         0.0378
     42 H11        14.1274   -2.9653    4.6619 H         1 4LD         0.0378
     43 H12        23.0978   -5.7632   10.4952 H         1 4LD         0.0466
     44 H13        22.5412   -7.3213   11.1944 H         1 4LD         0.0466
     45 H14        23.3098   -6.0872   12.2492 H         1 4LD         0.0466
     46 H15        18.5101   -2.8968   10.6130 H         1 4LD         0.0453
     47 H16        17.0522   -1.9902   12.6025 H         1 4LD         0.0290
     48 H17        17.6722   -3.3096   13.6519 H         1 4LD         0.0290
     49 H18        16.6619   -5.0631   12.0442 H         1 4LD         0.0290
     50 H19        16.0419   -3.7436   10.9948 H         1 4LD         0.0290
     51 H20        23.6222   -2.1188    8.8549 H         1 4LD         0.0719
     52 H21        22.3217   -1.8223    6.7628 H         1 4LD         0.0556
     53 H22        17.5116   -3.8303    5.1844 H         1 4LD         0.0448
     54 H23        19.8674   -2.5283    5.6602 H         1 4LD         0.2162
@<TRIPOS>BOND
     1   20    1 1  
     2    2    3 ar 
     3   17    2 ar 
     4    3    4 1  
     5    3   16 ar 
     6    4    5 ar 
     7    4   12 ar 
     8    5   11 1  
     9    5   30 ar 
    10    6   10 1  
    11    6   13 1  
    12   14    6 2  
    13    7    9 2  
    14   14    7 1  
    15    7   19 1  
    16   11    8 2  
    17    8   18 1  
    18    8   21 1  
    19    9   10 1  
    20   11   22 1  
    21   12   27 ar 
    22   31   12 1  
    23   15   14 1  
    24   17   15 ar 
    25   15   28 ar 
    26   28   16 ar 
    27   16   31 1  
    28   17   20 1  
    29   18   29 1  
    30   22   23 1  
    31   22   29 2  
    32   23   24 1  
    33   23   25 1  
    34   24   25 1  
    35   27   26 ar 
    36   26   30 ar 
    37    1   32 1  
    38    1   33 1  
    39    1   34 1  
    40    2   35 1  
    41   13   36 1  
    42   13   37 1  
    43   13   38 1  
    44   18   39 1  
    45   19   40 1  
    46   19   41 1  
    47   19   42 1  
    48   21   43 1  
    49   21   44 1  
    50   21   45 1  
    51   23   46 1  
    52   24   47 1  
    53   24   48 1  
    54   25   49 1  
    55   25   50 1  
    56   26   51 1  
    57   27   52 1  
    58   28   53 1  
    59   31   54 1  
@<TRIPOS>SUBSTRUCTURE
     1 4LD         1

