### 
### Created by X-TOOL on Mon Sep 10 21:13:24 2018
### 

@<TRIPOS>MOLECULE
4z9l_ligand
   70    74     1     0     0
SMALL
GAST_HUCK


@<TRIPOS>ATOM
      1 N1         22.2000   11.0150   30.7570 N.pl3     1 880        -0.2310
      2 C2         22.2780   12.3860   30.7190 C.2       1 880         0.1302
      3 N3         21.4500   12.9460   31.5580 N.2       1 880        -0.3098
      4 C4         20.8010   11.9110   32.2000 C.2       1 880         0.0376
      5 C5         21.2360   10.6860   31.7150 C.2       1 880         0.1094
      6 C6         22.9600   10.1030   29.8940 C.3       1 880         0.0590
      7 C7         24.3340    9.7400   30.4480 C.3       1 880        -0.0280
      8 C10        24.7860   10.5230   31.6420 C.3       1 880        -0.0627
      9 C16        23.2050   13.2110   29.8620 C.3       1 880         0.0501
     10 C17        22.3890   13.9220   28.7790 C.3       1 880         0.0076
     11 C18        23.2900   14.7370   27.8720 C.3       1 880        -0.0309
     12 N19        24.0620   15.7320   28.6670 N.4       1 880         0.2273
     13 C20        24.8680   15.0900   29.7450 C.3       1 880        -0.0309
     14 C21        23.9780   14.2670   30.6570 C.3       1 880         0.0076
     15 C35        19.7100   12.2760   33.1270 C.ar      1 880        -0.0192
     16 C36        20.7530    9.3180   32.0230 C.ar      1 880         0.0673
     17 C37        19.6460   11.7290   34.4060 C.ar      1 880        -0.0429
     18 C38        18.6620   12.1450   35.2840 C.ar      1 880         0.0523
     19 C39        17.7160   13.0860   34.8910 C.ar      1 880         0.0520
     20 C40        17.7710   13.6230   33.6150 C.ar      1 880        -0.0494
     21 C41        18.7660   13.2260   32.7420 C.ar      1 880        -0.0568
     22 CL45       18.6690   11.5180   36.8940 Cl        1 880        -0.0707
     23 CL46       16.4790   13.6230   35.9830 Cl        1 880        -0.0717
     24 C47        19.4600    9.0730   32.4670 C.ar      1 880        -0.0229
     25 C48        19.1530    7.7670   32.7920 C.ar      1 880         0.0060
     26 N49        20.0120    6.7470   32.6450 N.ar      1 880        -0.2640
     27 C50        21.2050    7.0730   32.1200 C.ar      1 880         0.1807
     28 N51        21.6360    8.3230   31.8330 N.ar      1 880        -0.2602
     29 N54        22.0030    6.0430   31.7830 N.pl3     1 880        -0.2877
     30 C55        23.3160    6.0850   31.1410 C.3       1 880         0.0417
     31 C56        24.1360    4.8510   31.5010 C.3       1 880        -0.0296
     32 C57        25.4950    4.8780   30.8090 C.3       1 880        -0.0509
     33 C58        25.3430    4.9950   29.2960 C.3       1 880        -0.0529
     34 C59        24.4960    6.2110   28.9180 C.3       1 880        -0.0509
     35 C60        23.1450    6.1920   29.6310 C.3       1 880        -0.0296
     36 H1         23.0963   10.5842   28.9143 H         1 880         0.0615
     37 H2         22.3794    9.1769   29.7701 H         1 880         0.0615
     38 H3         25.0716    9.8923   29.6463 H         1 880         0.0289
     39 H4         24.3135    8.6770   30.7303 H         1 880         0.0289
     40 H5         25.7832   10.1768   31.9514 H         1 880         0.0231
     41 H6         24.0744   10.3760   32.4678 H         1 880         0.0231
     42 H7         24.8325   11.5912   31.3838 H         1 880         0.0231
     43 H8         23.9294   12.5343   29.3852 H         1 880         0.0561
     44 H9         21.6598   14.5915   29.2585 H         1 880         0.0349
     45 H10        21.8567   13.1706   28.1773 H         1 880         0.0349
     46 H11        22.6745   15.2654   27.1291 H         1 880         0.0816
     47 H12        23.9900   14.0635   27.3559 H         1 880         0.0816
     48 H13        23.4167   16.3821   29.0878 H         1 880         0.2013
     49 H14        24.6842   16.2288   28.0489 H         1 880         0.2013
     50 H15        25.3684   15.8709   30.3364 H         1 880         0.0816
     51 H16        25.6243   14.4339   29.2893 H         1 880         0.0816
     52 H17        24.6019   13.7645   31.4108 H         1 880         0.0349
     53 H18        23.2623   14.9345   31.1592 H         1 880         0.0349
     54 H19        20.3659   10.9788   34.7127 H         1 880         0.0608
     55 H20        17.0343   14.3539   33.3017 H         1 880         0.0617
     56 H21        18.8126   13.6575   31.7487 H         1 880         0.0603
     57 H22        18.7282    9.8680   32.5540 H         1 880         0.0630
     58 H23        18.1660    7.5544   33.1867 H         1 880         0.0864
     59 H24        21.6424    5.1043   32.0060 H         1 880         0.1863
     60 H25        23.8532    6.9759   31.4984 H         1 880         0.0560
     61 H26        23.5890    3.9506   31.1848 H         1 880         0.0288
     62 H27        24.2873    4.8246   32.5902 H         1 880         0.0288
     63 H28        26.0356    3.9494   31.0442 H         1 880         0.0266
     64 H29        26.0689    5.7403   31.1794 H         1 880         0.0266
     65 H30        24.8567    4.0858   28.9128 H         1 880         0.0265
     66 H31        26.3397    5.0968   28.8420 H         1 880         0.0265
     67 H32        24.3272    6.2058   27.8311 H         1 880         0.0266
     68 H33        25.0371    7.1260   29.2007 H         1 880         0.0266
     69 H34        22.6035    7.1204   29.3968 H         1 880         0.0288
     70 H35        22.5641    5.3287   29.2743 H         1 880         0.0288
@<TRIPOS>BOND
     1    1    2 1  
     2    1    5 1  
     3    1    6 1  
     4    2    3 2  
     5    2    9 1  
     6    3    4 1  
     7    4    5 2  
     8    4   15 1  
     9    5   16 1  
    10    6    7 1  
    11    7    8 1  
    12    9   10 1  
    13    9   14 1  
    14   10   11 1  
    15   11   12 1  
    16   12   13 1  
    17   13   14 1  
    18   15   17 ar 
    19   15   21 ar 
    20   16   24 ar 
    21   16   28 ar 
    22   17   18 ar 
    23   18   19 ar 
    24   18   22 1  
    25   19   20 ar 
    26   19   23 1  
    27   20   21 ar 
    28   24   25 ar 
    29   25   26 ar 
    30   26   27 ar 
    31   27   28 ar 
    32   27   29 1  
    33   29   30 1  
    34   30   31 1  
    35   30   35 1  
    36   31   32 1  
    37   32   33 1  
    38   33   34 1  
    39   34   35 1  
    40    6   36 1  
    41    6   37 1  
    42    7   38 1  
    43    7   39 1  
    44    8   40 1  
    45    8   41 1  
    46    8   42 1  
    47    9   43 1  
    48   10   44 1  
    49   10   45 1  
    50   11   46 1  
    51   11   47 1  
    52   12   48 1  
    53   12   49 1  
    54   13   50 1  
    55   13   51 1  
    56   14   52 1  
    57   14   53 1  
    58   17   54 1  
    59   20   55 1  
    60   21   56 1  
    61   24   57 1  
    62   25   58 1  
    63   29   59 1  
    64   30   60 1  
    65   31   61 1  
    66   31   62 1  
    67   32   63 1  
    68   32   64 1  
    69   33   65 1  
    70   33   66 1  
    71   34   67 1  
    72   34   68 1  
    73   35   69 1  
    74   35   70 1  
@<TRIPOS>SUBSTRUCTURE
     1 880         1

