### 
### Created by X-TOOL on Mon Sep 10 21:13:20 2018
### 

@<TRIPOS>MOLECULE
4zae_ligand
   57    61     1     0     0
SMALL
GAST_HUCK


@<TRIPOS>ATOM
      1 C21       -14.6830  -32.5710  -16.1460 C.ar      1 4M1        -0.0683
      2 C22       -14.2980  -33.8210  -16.5770 C.ar      1 4M1        -0.0679
      3 C20       -15.0160  -32.3800  -14.8210 C.ar      1 4M1        -0.0679
      4 C23       -14.2420  -34.8820  -15.6860 C.ar      1 4M1        -0.0570
      5 C19       -14.9840  -33.4440  -13.9310 C.ar      1 4M1        -0.0570
      6 C2        -11.6620  -34.8970   -9.3320 C.ar      1 4M1        -0.0464
      7 C5        -14.2380  -34.1200   -8.6720 C.ar      1 4M1        -0.0698
      8 C12       -14.2300  -41.4300  -10.3090 C.ar      1 4M1        -0.0064
      9 C14       -16.3870  -42.1720  -11.0800 C.ar      1 4M1        -0.0064
     10 C17       -14.6950  -43.6200   -8.1840 C.2       1 4M1         0.1361
     11 C16       -15.6090  -44.7930   -9.7320 C.2       1 4M1         0.1361
     12 C10       -15.4460  -40.1100  -11.9490 C.ar      1 4M1         0.0700
     13 C18       -14.5810  -34.7070  -14.3500 C.ar      1 4M1        -0.0183
     14 C1        -11.9110  -34.3660   -8.0700 C.ar      1 4M1        -0.0572
     15 C         -13.2230  -33.9720   -7.7320 C.ar      1 4M1        -0.0594
     16 C3        -12.6660  -35.0530  -10.2760 C.ar      1 4M1         0.0658
     17 C13       -15.2600  -42.3690  -10.2840 C.ar      1 4M1         0.1108
     18 C4        -13.9540  -34.6620   -9.9230 C.ar      1 4M1         0.0082
     19 C11       -14.3300  -40.3280  -11.1400 C.ar      1 4M1         0.0571
     20 C15       -16.4750  -41.0450  -11.8750 C.ar      1 4M1         0.0571
     21 C6        -14.0300  -35.4560  -12.0210 C.2       1 4M1         0.1329
     22 C9        -15.4930  -38.9760  -12.9360 C.2       1 4M1         0.2005
     23 C24       -10.7970  -34.3050   -7.0600 C.3       1 4M1        -0.0384
     24 C25       -13.5650  -33.5360   -6.3290 C.3       1 4M1        -0.0391
     25 C8        -15.8950  -36.5880  -13.2760 C.3       1 4M1         0.0595
     26 C7        -14.5110  -35.8860  -13.3850 C.3       1 4M1         0.0924
     27 N5        -14.8180  -44.8290   -7.7190 N.2       1 4M1        -0.2517
     28 N4        -15.3960  -45.5910   -8.7270 N.2       1 4M1        -0.2517
     29 N1        -12.7450  -35.5250  -11.5820 N.pl3     1 4M1        -0.2506
     30 N3        -15.1880  -43.5310   -9.4470 N.pl3     1 4M1        -0.1734
     31 N         -14.7580  -34.9290  -11.0130 N.2       1 4M1        -0.3228
     32 N2        -15.7590  -37.7670  -12.4370 N.am      1 4M1        -0.2823
     33 O         -15.3250  -39.1800  -14.1370 O.2       1 4M1        -0.3881
     34 CL1       -12.9960  -39.2290  -11.2150 Cl        1 4M1        -0.0665
     35 CL        -17.9450  -40.7660  -12.7510 Cl        1 4M1        -0.0665
     36 H1        -14.7241  -31.7423  -16.8436 H         1 4M1         0.0562
     37 H2        -14.0375  -33.9762  -17.6177 H         1 4M1         0.0600
     38 H3        -15.3039  -31.3944  -14.4736 H         1 4M1         0.0600
     39 H4        -13.9301  -35.8594  -16.0359 H         1 4M1         0.0563
     40 H5        -15.2761  -33.2890  -12.8987 H         1 4M1         0.0563
     41 H6        -10.6519  -35.1981   -9.5851 H         1 4M1         0.0458
     42 H7        -15.2494  -33.8136   -8.4307 H         1 4M1         0.0451
     43 H8        -13.3561  -41.5622   -9.6814 H         1 4M1         0.0606
     44 H9        -17.1907  -42.8994  -11.0755 H         1 4M1         0.0606
     45 H10       -14.2552  -42.7895   -7.6338 H         1 4M1         0.1324
     46 H11       -16.0632  -45.0945  -10.6747 H         1 4M1         0.1324
     47 H12        -9.8623  -34.6536   -7.5236 H         1 4M1         0.0364
     48 H13       -11.0435  -34.9488   -6.2028 H         1 4M1         0.0364
     49 H14       -10.6708  -33.2680   -6.7154 H         1 4M1         0.0364
     50 H15       -14.6316  -33.2721   -6.2768 H         1 4M1         0.0359
     51 H16       -12.9570  -32.6601   -6.0587 H         1 4M1         0.0359
     52 H17       -13.3559  -34.3578   -5.6284 H         1 4M1         0.0359
     53 H18       -16.2384  -36.8852  -14.2778 H         1 4M1         0.0575
     54 H19       -16.6250  -35.8979  -12.8278 H         1 4M1         0.0575
     55 H20       -13.7888  -36.6116  -13.7873 H         1 4M1         0.0739
     56 H21       -11.9489  -35.8746  -12.1342 H         1 4M1         0.2301
     57 H22       -15.8689  -37.6686  -11.4479 H         1 4M1         0.1846
@<TRIPOS>BOND
     1    2    1 ar 
     2    3    1 ar 
     3    4    2 ar 
     4    5    3 ar 
     5   13    4 ar 
     6   13    5 ar 
     7    6   14 ar 
     8   16    6 ar 
     9    7   15 ar 
    10   18    7 ar 
    11    8   17 ar 
    12   19    8 ar 
    13    9   17 ar 
    14   20    9 ar 
    15   10   27 2  
    16   30   10 1  
    17   11   28 2  
    18   30   11 1  
    19   12   19 ar 
    20   12   20 ar 
    21   22   12 1  
    22   26   13 1  
    23   15   14 ar 
    24   14   23 1  
    25   15   24 1  
    26   18   16 ar 
    27   29   16 1  
    28   17   30 1  
    29   31   18 1  
    30   19   34 1  
    31   20   35 1  
    32   26   21 1  
    33   21   29 1  
    34   21   31 2  
    35   32   22 am 
    36   22   33 2  
    37   25   26 1  
    38   25   32 1  
    39   27   28 1  
    40    1   36 1  
    41    2   37 1  
    42    3   38 1  
    43    4   39 1  
    44    5   40 1  
    45    6   41 1  
    46    7   42 1  
    47    8   43 1  
    48    9   44 1  
    49   10   45 1  
    50   11   46 1  
    51   23   47 1  
    52   23   48 1  
    53   23   49 1  
    54   24   50 1  
    55   24   51 1  
    56   24   52 1  
    57   25   53 1  
    58   25   54 1  
    59   26   55 1  
    60   29   56 1  
    61   32   57 1  
@<TRIPOS>SUBSTRUCTURE
     1 4M1         1

