### 
### Created by X-TOOL on Mon Sep 10 21:13:26 2018
### 

@<TRIPOS>MOLECULE
4zam_ligand
   79    81     1     0     0
SMALL
GAST_HUCK


@<TRIPOS>ATOM
      1 C1         11.1260    2.6820   -2.7600 C.3       1 MA4         0.1884
      2 C2         11.6450    3.3210   -1.5010 C.3       1 MA4         0.1341
      3 C3         11.2370    4.7910   -1.3950 C.3       1 MA4         0.1141
      4 C4         11.5920    5.5230   -2.6730 C.3       1 MA4         0.1119
      5 C5         11.0460    4.8200   -3.9140 C.3       1 MA4         0.1130
      6 C6         11.4100    5.4570   -5.2490 C.3       1 MA4         0.0730
      7 O2         11.1310    2.6870   -0.3500 O.3       1 MA4        -0.3841
      8 O3         11.8080    5.3870   -0.2130 O.3       1 MA4        -0.3864
      9 O5         11.4660    3.4490   -3.9270 O.3       1 MA4        -0.3405
     10 O6         12.8390    5.6370   -5.3170 O.3       1 MA4        -0.3924
     11 O1          9.6570    2.6160   -2.6680 O.3       1 MA4        -0.3401
     12 O4         10.9550    6.7960   -2.5370 O.3       1 MA4        -0.3865
     13 C10         6.5980   -0.0730   -3.1330 C.3       1 MA4         0.1879
     14 C20         7.3610   -0.3060   -1.8730 C.3       1 MA4         0.1341
     15 C30         8.2070    0.9600   -1.6690 C.3       1 MA4         0.1144
     16 C40         9.0660    1.3170   -2.8670 C.3       1 MA4         0.1184
     17 C50         8.2300    1.3930   -4.1170 C.3       1 MA4         0.1134
     18 C60         8.9920    1.5680   -5.4140 C.3       1 MA4         0.0730
     19 O10         5.7580   -1.2290   -3.3200 O.3       1 MA4        -0.3487
     20 O20         6.4980   -0.5480   -0.7920 O.3       1 MA4        -0.3841
     21 O30         9.0680    0.8230   -0.5450 O.3       1 MA4        -0.3864
     22 O50         7.4570    0.1790   -4.2330 O.3       1 MA4        -0.3405
     23 O60         9.9530    0.5080   -5.4990 O.3       1 MA4        -0.3924
     24 C11         4.7040   -0.9770   -4.2590 C.3       1 MA4         0.0508
     25 C21         3.4460   -0.5210   -3.5520 C.3       1 MA4        -0.0294
     26 C31         2.4110   -0.1820   -4.6060 C.3       1 MA4        -0.0510
     27 C41         1.1420    0.3570   -3.9810 C.3       1 MA4        -0.0530
     28 C51         0.3180    1.0980   -5.0430 C.3       1 MA4        -0.0528
     29 C61        -0.3430    0.0870   -5.9490 C.3       1 MA4        -0.0502
     30 C12        -1.5750    0.5180   -6.7340 C.3       1 MA4        -0.0410
     31 C22        -1.5880   -0.4660   -7.9130 C.3       1 MA4        -0.0502
     32 C32        -2.3160   -0.0560   -9.1650 C.3       1 MA4        -0.0528
     33 C42        -3.1000    1.2050   -8.9680 C.3       1 MA4        -0.0530
     34 C52        -2.1980    2.3000   -8.4660 C.3       1 MA4        -0.0528
     35 C62        -1.6660    2.0180   -7.0840 C.3       1 MA4        -0.0502
     36 H1         11.5448    1.6693   -2.8544 H         1 MA4         0.0938
     37 H2         12.7424    3.2460   -1.5019 H         1 MA4         0.0671
     38 H3         10.1432    4.8326   -1.2862 H         1 MA4         0.0648
     39 H4         12.6828    5.6331   -2.7631 H         1 MA4         0.0647
     40 H5          9.9491    4.8420   -3.8349 H         1 MA4         0.0647
     41 H6         10.9120    6.4337   -5.3381 H         1 MA4         0.0584
     42 H7         11.0827    4.8022   -6.0700 H         1 MA4         0.0584
     43 H8         10.1857    2.7799   -0.3342 H         1 MA4         0.2101
     44 H9         11.5495    4.8841    0.5503 H         1 MA4         0.2100
     45 H10        13.2675    4.7926   -5.2395 H         1 MA4         0.2095
     46 H11        11.2920    7.2367   -1.7659 H         1 MA4         0.2100
     47 H12         5.9563    0.8109   -3.0033 H         1 MA4         0.0937
     48 H13         8.0221   -1.1769   -1.9928 H         1 MA4         0.0671
     49 H14         7.5147    1.7943   -1.4829 H         1 MA4         0.0648
     50 H15         9.8536    0.5590   -2.9902 H         1 MA4         0.0651
     51 H16         7.5480    2.2492   -4.0087 H         1 MA4         0.0647
     52 H17         9.5054    2.5408   -5.4190 H         1 MA4         0.0584
     53 H18         8.2987    1.5148   -6.2664 H         1 MA4         0.0584
     54 H19         5.9071    0.1887   -0.6889 H         1 MA4         0.2101
     55 H20         9.5224    1.6435   -0.3937 H         1 MA4         0.2100
     56 H21        10.4468    0.5937   -6.3060 H         1 MA4         0.2095
     57 H22         4.4891   -1.9013   -4.8153 H         1 MA4         0.0561
     58 H23         5.0266   -0.1934   -4.9604 H         1 MA4         0.0561
     59 H24         3.6624    0.3685   -2.9422 H         1 MA4         0.0287
     60 H25         3.0691   -1.3265   -2.9047 H         1 MA4         0.0287
     61 H26         2.1706   -1.0910   -5.1769 H         1 MA4         0.0266
     62 H27         2.8265    0.5778   -5.2842 H         1 MA4         0.0266
     63 H28         1.4008    1.0517   -3.1684 H         1 MA4         0.0265
     64 H29         0.5508   -0.4774   -3.5757 H         1 MA4         0.0265
     65 H30         0.9793    1.7470   -5.6358 H         1 MA4         0.0265
     66 H31        -0.4518    1.7105   -4.5509 H         1 MA4         0.0265
     67 H32        -0.6384   -0.7676   -5.3227 H         1 MA4         0.0268
     68 H33         0.4119   -0.2378   -6.6802 H         1 MA4         0.0268
     69 H34        -2.4600    0.3114   -6.1143 H         1 MA4         0.0301
     70 H35        -2.0497   -1.3985   -7.5563 H         1 MA4         0.0268
     71 H36        -0.5412   -0.6580   -8.1909 H         1 MA4         0.0268
     72 H37        -3.0060   -0.8620   -9.4552 H         1 MA4         0.0265
     73 H38        -1.5809    0.1041   -9.9675 H         1 MA4         0.0265
     74 H39        -3.8989    1.0260   -8.2334 H         1 MA4         0.0265
     75 H40        -3.5449    1.5106   -9.9265 H         1 MA4         0.0265
     76 H41        -2.7660    3.2417   -8.4405 H         1 MA4         0.0265
     77 H42        -1.3486    2.4027   -9.1573 H         1 MA4         0.0265
     78 H43        -0.6580    2.4517   -7.0075 H         1 MA4         0.0268
     79 H44        -2.3302    2.5028   -6.3534 H         1 MA4         0.0268
@<TRIPOS>BOND
     1    1    2 1  
     2    1    9 1  
     3   11    1 1  
     4    2    3 1  
     5    2    7 1  
     6    3    4 1  
     7    3    8 1  
     8    5    4 1  
     9    4   12 1  
    10    5    6 1  
    11    9    5 1  
    12    6   10 1  
    13   16   11 1  
    14   14   13 1  
    15   13   19 1  
    16   13   22 1  
    17   15   14 1  
    18   14   20 1  
    19   15   16 1  
    20   15   21 1  
    21   16   17 1  
    22   17   18 1  
    23   17   22 1  
    24   18   23 1  
    25   19   24 1  
    26   24   25 1  
    27   25   26 1  
    28   26   27 1  
    29   27   28 1  
    30   28   29 1  
    31   29   30 1  
    32   30   31 1  
    33   30   35 1  
    34   31   32 1  
    35   32   33 1  
    36   33   34 1  
    37   34   35 1  
    38    1   36 1  
    39    2   37 1  
    40    3   38 1  
    41    4   39 1  
    42    5   40 1  
    43    6   41 1  
    44    6   42 1  
    45    7   43 1  
    46    8   44 1  
    47   10   45 1  
    48   12   46 1  
    49   13   47 1  
    50   14   48 1  
    51   15   49 1  
    52   16   50 1  
    53   17   51 1  
    54   18   52 1  
    55   18   53 1  
    56   20   54 1  
    57   21   55 1  
    58   23   56 1  
    59   24   57 1  
    60   24   58 1  
    61   25   59 1  
    62   25   60 1  
    63   26   61 1  
    64   26   62 1  
    65   27   63 1  
    66   27   64 1  
    67   28   65 1  
    68   28   66 1  
    69   29   67 1  
    70   29   68 1  
    71   30   69 1  
    72   31   70 1  
    73   31   71 1  
    74   32   72 1  
    75   32   73 1  
    76   33   74 1  
    77   33   75 1  
    78   34   76 1  
    79   34   77 1  
    80   35   78 1  
    81   35   79 1  
@<TRIPOS>SUBSTRUCTURE
     1 MA4         1

