### 
### Created by X-TOOL on Mon Sep 10 21:13:21 2018
### 

@<TRIPOS>MOLECULE
4zb6_ligand
   70    69     1     0     0
SMALL
GAST_HUCK


@<TRIPOS>ATOM
      1 N1         25.0480   -4.1520   12.9860 N.4       1 GDS         0.2328
      2 CA1        23.8700   -3.4370   12.4330 C.3       1 GDS         0.0304
      3 C1         22.6210   -3.6800   13.2840 C.2       1 GDS         0.0846
      4 OE1        21.7480   -2.7650   13.2600 O.co2     1 GDS        -0.5643
      5 OE2        22.5490   -4.7100   13.9490 O.co2     1 GDS        -0.5643
      6 CB1        23.6100   -3.8950   10.9710 C.3       1 GDS         0.0193
      7 CG1        22.5700   -2.9880   10.3290 C.3       1 GDS         0.0441
      8 CD1        23.1490   -1.6000   10.1010 C.2       1 GDS         0.1785
      9 O1         24.3540   -1.3560   10.0230 O.2       1 GDS        -0.3969
     10 N2         22.2160   -0.5880    9.9760 N.am      1 GDS        -0.2648
     11 CA2        22.6590    0.7740    9.7400 C.3       1 GDS         0.1405
     12 C2         22.1120    1.7250   10.7820 C.2       1 GDS         0.2040
     13 O2         21.0300    1.4870   11.3460 O.2       1 GDS        -0.3944
     14 CB2        22.1320    1.2720    8.3990 C.3       1 GDS         0.0443
     15 SG2        23.0500    0.4150    7.1070 S.3       1 GDS        -0.0882
     16 N3         22.8270    2.8360   11.0220 N.am      1 GDS        -0.2722
     17 CA3        22.3230    3.7920   11.9660 C.3       1 GDS         0.0833
     18 C3         22.6700    5.1680   11.4420 C.2       1 GDS         0.0570
     19 OE3        22.6710    6.0820   12.3110 O.co2     1 GDS        -0.5669
     20 OE4        22.9140    5.2920   10.2450 O.co2     1 GDS        -0.5669
     21 N4         27.0200   -1.4910    9.2970 N.am      1 GDS        -0.2722
     22 CA4        27.9840   -2.5750    9.5540 C.3       1 GDS         0.0833
     23 C4         27.6750   -3.3060   10.8510 C.2       1 GDS         0.0570
     24 OE5        27.0100   -2.6510   11.7040 O.co2     1 GDS        -0.5669
     25 OE6        28.0820   -4.4540   10.9820 O.co2     1 GDS        -0.5669
     26 C5         27.4840   -0.3060    8.8210 C.2       1 GDS         0.2040
     27 O5         28.6940   -0.1010    8.6090 O.2       1 GDS        -0.3944
     28 CA5        26.4870    0.8140    8.5510 C.3       1 GDS         0.1405
     29 N5         27.1430    2.1010    8.9070 N.am      1 GDS        -0.2648
     30 CB5        26.1040    0.6830    7.0780 C.3       1 GDS         0.0443
     31 SG5        24.6200    1.6680    6.7270 S.3       1 GDS        -0.0882
     32 CA6        27.4830    6.0410   11.9460 C.3       1 GDS         0.0304
     33 C6         27.8560    7.0560   10.8690 C.2       1 GDS         0.0846
     34 OE7        27.0070    7.9620   10.6470 O.co2     1 GDS        -0.5643
     35 OE8        28.9490    6.9530   10.3160 O.co2     1 GDS        -0.5643
     36 N6         26.7990    6.7050   13.0910 N.4       1 GDS         0.2328
     37 CB6        26.5670    4.9520   11.3220 C.3       1 GDS         0.0193
     38 CG6        27.3790    4.1630   10.2930 C.3       1 GDS         0.0441
     39 CD6        26.6430    2.8710    9.9650 C.2       1 GDS         0.1785
     40 O6         25.6440    2.4810   10.5720 O.2       1 GDS        -0.3969
     41 H1         25.8525   -3.9731   12.4057 H         1 GDS         0.2010
     42 H2         24.8613   -5.1424   13.0054 H         1 GDS         0.2010
     43 H3         25.2299   -3.8259   13.9223 H         1 GDS         0.2010
     44 H4         24.0864   -2.3585   12.4321 H         1 GDS         0.1026
     45 H5         23.2412   -4.9313   10.9721 H         1 GDS         0.0363
     46 H6         24.5473   -3.8400   10.3980 H         1 GDS         0.0363
     47 H7         21.6957   -2.9120   10.9922 H         1 GDS         0.0505
     48 H8         22.2618   -3.4157    9.3636 H         1 GDS         0.0505
     49 H9         21.2399   -0.7932   10.0478 H         1 GDS         0.1883
     50 H10        23.7586    0.8010    9.7492 H         1 GDS         0.0808
     51 H11        22.2876    2.3576    8.3136 H         1 GDS         0.0432
     52 H12        21.0589    1.0472    8.3098 H         1 GDS         0.0432
     53 H13        23.6950    2.9943   10.5514 H         1 GDS         0.1873
     54 H14        22.7920    3.6341   12.9484 H         1 GDS         0.0689
     55 H15        21.2319    3.6891   12.0597 H         1 GDS         0.0689
     56 H16        26.0441   -1.6246    9.4694 H         1 GDS         0.1873
     57 H17        28.9946   -2.1455    9.6189 H         1 GDS         0.0689
     58 H18        27.9434   -3.2930    8.7217 H         1 GDS         0.0689
     59 H19        25.5873    0.6900    9.1717 H         1 GDS         0.0808
     60 H20        27.9400    2.4160    8.3916 H         1 GDS         0.1883
     61 H21        25.9019   -0.3734    6.8475 H         1 GDS         0.0432
     62 H22        26.9349    1.0422    6.4530 H         1 GDS         0.0432
     63 H23        28.4020    5.5638   12.3170 H         1 GDS         0.1026
     64 H24        26.5633    6.0153   13.7873 H         1 GDS         0.2010
     65 H25        25.9577    7.1544   12.7650 H         1 GDS         0.2010
     66 H26        27.4132    7.3944   13.4953 H         1 GDS         0.2010
     67 H27        25.7071    5.4289   10.8289 H         1 GDS         0.0363
     68 H28        26.2080    4.2736   12.1099 H         1 GDS         0.0363
     69 H29        28.3703    3.9275   10.7076 H         1 GDS         0.0505
     70 H30        27.4970    4.7624    9.3783 H         1 GDS         0.0505
@<TRIPOS>BOND
     1    2    1 1  
     2    2    3 1  
     3    6    2 1  
     4    3    4 ar 
     5    3    5 ar 
     6    7    6 1  
     7    8    7 1  
     8    8    9 2  
     9   10    8 am 
    10   11   10 1  
    11   11   12 1  
    12   14   11 1  
    13   12   13 2  
    14   12   16 am 
    15   15   14 1  
    16   31   15 1  
    17   16   17 1  
    18   17   18 1  
    19   18   19 ar 
    20   18   20 ar 
    21   21   22 1  
    22   26   21 am 
    23   22   23 1  
    24   23   24 ar 
    25   23   25 ar 
    26   26   27 2  
    27   28   26 1  
    28   29   28 1  
    29   28   30 1  
    30   39   29 am 
    31   30   31 1  
    32   32   33 1  
    33   32   36 1  
    34   37   32 1  
    35   33   34 ar 
    36   33   35 ar 
    37   38   37 1  
    38   38   39 1  
    39   39   40 2  
    40    1   41 1  
    41    1   42 1  
    42    1   43 1  
    43    2   44 1  
    44    6   45 1  
    45    6   46 1  
    46    7   47 1  
    47    7   48 1  
    48   10   49 1  
    49   11   50 1  
    50   14   51 1  
    51   14   52 1  
    52   16   53 1  
    53   17   54 1  
    54   17   55 1  
    55   21   56 1  
    56   22   57 1  
    57   22   58 1  
    58   28   59 1  
    59   29   60 1  
    60   30   61 1  
    61   30   62 1  
    62   32   63 1  
    63   36   64 1  
    64   36   65 1  
    65   36   66 1  
    66   37   67 1  
    67   37   68 1  
    68   38   69 1  
    69   38   70 1  
@<TRIPOS>SUBSTRUCTURE
     1 GDS         1

