### 
### Created by X-TOOL on Mon Sep 10 21:13:24 2018
### 

@<TRIPOS>MOLECULE
4zb8_ligand
   70    69     1     0     0
SMALL
GAST_HUCK


@<TRIPOS>ATOM
      1 N1        -10.5320    4.5070   -3.7610 N.4       1 GDS         0.2328
      2 CA1       -10.5950    5.5150   -4.7970 C.3       1 GDS         0.0304
      3 C1        -11.7030    5.1920   -5.7640 C.2       1 GDS         0.0846
      4 OE1       -11.8660    4.0090   -6.1010 O.co2     1 GDS        -0.5643
      5 OE2       -12.4060    6.1150   -6.2000 O.co2     1 GDS        -0.5643
      6 CB1        -9.2630    5.5710   -5.5470 C.3       1 GDS         0.0193
      7 CG1        -9.0960    6.8910   -6.2860 C.3       1 GDS         0.0441
      8 CD1        -7.8060    6.9250   -7.0800 C.2       1 GDS         0.1785
      9 O1         -6.8490    6.2610   -6.7360 O.2       1 GDS        -0.3969
     10 N2         -7.7930    7.7130   -8.1510 N.am      1 GDS        -0.2648
     11 CA2        -6.5720    8.0640   -8.8520 C.3       1 GDS         0.1405
     12 C2         -6.1710    9.4970   -8.6290 C.2       1 GDS         0.2040
     13 O2         -7.0000   10.3860   -8.6030 O.2       1 GDS        -0.3944
     14 CB2        -6.7300    7.8020  -10.3490 C.3       1 GDS         0.0443
     15 SG2        -6.5230    6.0890  -10.6970 S.3       1 GDS        -0.0882
     16 N3         -4.8760    9.7330   -8.4670 N.am      1 GDS        -0.2722
     17 CA3        -4.3900   11.0570   -8.1360 C.3       1 GDS         0.0833
     18 C3         -3.5610   11.0720   -6.8740 C.2       1 GDS         0.0570
     19 OE3        -2.5560   11.8070   -6.8310 O.co2     1 GDS        -0.5669
     20 OE4        -3.9130   10.3430   -5.9280 O.co2     1 GDS        -0.5669
     21 N4         -5.1130    4.0490   -6.3280 N.am      1 GDS        -0.2722
     22 CA4        -5.3970    2.9930   -5.3810 C.3       1 GDS         0.0833
     23 C4         -6.7390    2.3320   -5.6110 C.2       1 GDS         0.0570
     24 OE5        -7.2050    2.2650   -6.7670 O.co2     1 GDS        -0.5669
     25 OE6        -7.3260    1.8730   -4.6200 O.co2     1 GDS        -0.5669
     26 C5         -3.9710    4.1060   -7.0040 C.2       1 GDS         0.2040
     27 O5         -3.0530    3.3380   -6.8080 O.2       1 GDS        -0.3944
     28 CA5        -3.8530    5.1750   -8.0610 C.3       1 GDS         0.1405
     29 N5         -2.4990    5.6800   -8.1520 N.am      1 GDS        -0.2648
     30 CB5        -4.3160    4.6200   -9.4090 C.3       1 GDS         0.0443
     31 SG5        -4.5110    5.8810  -10.6330 S.3       1 GDS        -0.0882
     32 CA6        -0.7240    8.6650   -5.8630 C.3       1 GDS         0.0304
     33 C6          0.2660    7.8140   -5.1160 C.2       1 GDS         0.0846
     34 OE7         1.2660    8.3590   -4.6010 O.co2     1 GDS        -0.5643
     35 OE8         0.0500    6.5930   -5.0440 O.co2     1 GDS        -0.5643
     36 N6         -0.6400   10.0270   -5.3810 N.4       1 GDS         0.2328
     37 CB6        -0.4290    8.6430   -7.3600 C.3       1 GDS         0.0193
     38 CG6        -0.7070    7.2920   -8.0100 C.3       1 GDS         0.0441
     39 CD6        -2.1840    6.9630   -7.9960 C.2       1 GDS         0.1785
     40 O6         -3.0110    7.8400   -7.8490 O.2       1 GDS        -0.3969
     41 H1         -9.7881    4.7313   -3.1188 H         1 GDS         0.2010
     42 H2        -10.3554    3.6067   -4.1785 H         1 GDS         0.2010
     43 H3        -11.4085    4.4808   -3.2639 H         1 GDS         0.2010
     44 H4        -10.7921    6.4939   -4.3356 H         1 GDS         0.1026
     45 H5         -9.2271    4.7467   -6.2745 H         1 GDS         0.0363
     46 H6         -8.4408    5.4588   -4.8249 H         1 GDS         0.0363
     47 H7         -9.0863    7.7117   -5.5536 H         1 GDS         0.0505
     48 H8         -9.9431    7.0243   -6.9750 H         1 GDS         0.0505
     49 H9         -8.6608    8.0789   -8.4873 H         1 GDS         0.1883
     50 H10        -5.7655    7.4216   -8.4689 H         1 GDS         0.0808
     51 H11        -5.9718    8.3780  -10.8998 H         1 GDS         0.0432
     52 H12        -7.7341    8.1180  -10.6683 H         1 GDS         0.0432
     53 H13        -4.2231    8.9833   -8.5753 H         1 GDS         0.1873
     54 H14        -5.2530   11.7251   -7.9986 H         1 GDS         0.0689
     55 H15        -3.7713   11.4236   -8.9684 H         1 GDS         0.0689
     56 H16        -5.7997    4.7602   -6.4788 H         1 GDS         0.1873
     57 H17        -5.3867    3.4201   -4.3674 H         1 GDS         0.0689
     58 H18        -4.6113    2.2277   -5.4645 H         1 GDS         0.0689
     59 H19        -4.5122    6.0107   -7.7833 H         1 GDS         0.0808
     60 H20        -1.7626    5.0307   -8.3419 H         1 GDS         0.1883
     61 H21        -5.2822    4.1133   -9.2683 H         1 GDS         0.0432
     62 H22        -3.5702    3.8947   -9.7663 H         1 GDS         0.0432
     63 H23        -1.7383    8.2766   -5.6889 H         1 GDS         0.1026
     64 H24        -1.3021   10.6011   -5.8791 H         1 GDS         0.2010
     65 H25         0.2918   10.3802   -5.5326 H         1 GDS         0.2010
     66 H26        -0.8513   10.0484   -4.3956 H         1 GDS         0.2010
     67 H27         0.6321    8.8910   -7.5104 H         1 GDS         0.0363
     68 H28        -1.0561    9.4020   -7.8506 H         1 GDS         0.0363
     69 H29        -0.1618    6.5114   -7.4592 H         1 GDS         0.0505
     70 H30        -0.3566    7.3180   -9.0523 H         1 GDS         0.0505
@<TRIPOS>BOND
     1    2    1 1  
     2    2    3 1  
     3    6    2 1  
     4    3    4 ar 
     5    3    5 ar 
     6    7    6 1  
     7    8    7 1  
     8    8    9 2  
     9   10    8 am 
    10   11   10 1  
    11   11   12 1  
    12   14   11 1  
    13   12   13 2  
    14   12   16 am 
    15   15   14 1  
    16   31   15 1  
    17   16   17 1  
    18   17   18 1  
    19   18   19 ar 
    20   18   20 ar 
    21   21   22 1  
    22   26   21 am 
    23   22   23 1  
    24   23   24 ar 
    25   23   25 ar 
    26   26   27 2  
    27   28   26 1  
    28   29   28 1  
    29   28   30 1  
    30   39   29 am 
    31   30   31 1  
    32   32   33 1  
    33   32   36 1  
    34   37   32 1  
    35   33   34 ar 
    36   33   35 ar 
    37   38   37 1  
    38   38   39 1  
    39   39   40 2  
    40    1   41 1  
    41    1   42 1  
    42    1   43 1  
    43    2   44 1  
    44    6   45 1  
    45    6   46 1  
    46    7   47 1  
    47    7   48 1  
    48   10   49 1  
    49   11   50 1  
    50   14   51 1  
    51   14   52 1  
    52   16   53 1  
    53   17   54 1  
    54   17   55 1  
    55   21   56 1  
    56   22   57 1  
    57   22   58 1  
    58   28   59 1  
    59   29   60 1  
    60   30   61 1  
    61   30   62 1  
    62   32   63 1  
    63   36   64 1  
    64   36   65 1  
    65   36   66 1  
    66   37   67 1  
    67   37   68 1  
    68   38   69 1  
    69   38   70 1  
@<TRIPOS>SUBSTRUCTURE
     1 GDS         1

