### 
### Created by X-TOOL on Mon Sep 10 21:13:20 2018
### 

@<TRIPOS>MOLECULE
4zba_ligand
   70    69     1     0     0
SMALL
GAST_HUCK


@<TRIPOS>ATOM
      1 N1         27.8950  108.1900   25.0110 N.4       1 GDS         0.2328
      2 CA1        27.8360  106.9860   25.8680 C.3       1 GDS         0.0304
      3 C1         26.8020  107.1640   26.9840 C.2       1 GDS         0.0846
      4 OE1        26.7450  108.3160   27.4920 O.co2     1 GDS        -0.5643
      5 OE2        26.0930  106.2130   27.3100 O.co2     1 GDS        -0.5643
      6 CB1        29.2480  106.7300   26.4620 C.3       1 GDS         0.0193
      7 CG1        29.2890  105.3420   27.0980 C.3       1 GDS         0.0441
      8 CD1        30.6990  105.0180   27.5500 C.2       1 GDS         0.1785
      9 O1         31.6540  105.7950   27.4460 O.2       1 GDS        -0.3969
     10 N2         30.8540  103.7680   28.0990 N.am      1 GDS        -0.2648
     11 CA2        32.1450  103.2890   28.6190 C.3       1 GDS         0.1405
     12 C2         32.4720  101.9450   28.0160 C.2       1 GDS         0.2040
     13 O2         31.6140  101.0590   27.9780 O.2       1 GDS        -0.3944
     14 CB2        31.9590  103.1510   30.1790 C.3       1 GDS         0.0443
     15 SG2        33.4420  102.2920   30.8860 S.3       1 GDS        -0.0882
     16 N3         33.7210  101.7560   27.5570 N.am      1 GDS        -0.2722
     17 CA3        34.0770  100.4300   27.0490 C.3       1 GDS         0.0833
     18 C3         34.3830  100.3370   25.5830 C.2       1 GDS         0.0570
     19 OE3        34.3530  101.4170   24.9270 O.co2     1 GDS        -0.5669
     20 OE4        34.6400   99.2240   25.1430 O.co2     1 GDS        -0.5669
     21 N4         37.6090  104.7930   27.7190 N.am      1 GDS        -0.2722
     22 CA4        37.8590  105.2260   26.3280 C.3       1 GDS         0.0833
     23 C4         37.0880  106.4740   25.8970 C.2       1 GDS         0.0570
     24 OE5        36.3180  107.0060   26.7480 O.co2     1 GDS        -0.5669
     25 OE6        37.2710  106.8700   24.7490 O.co2     1 GDS        -0.5669
     26 C5         36.5310  104.0110   28.0050 C.2       1 GDS         0.2040
     27 O5         35.6940  103.6990   27.1500 O.2       1 GDS        -0.3944
     28 CA5        36.2820  103.5340   29.4480 C.3       1 GDS         0.1405
     29 N5         37.5170  103.2240   30.2020 N.am      1 GDS        -0.2648
     30 CB5        35.4390  104.5610   30.1720 C.3       1 GDS         0.0443
     31 SG5        34.6410  103.7930   31.6350 S.3       1 GDS        -0.0882
     32 CA6        40.5170  100.0150   32.0810 C.3       1 GDS         0.0304
     33 C6         40.1870   98.9250   33.0900 C.2       1 GDS         0.0846
     34 OE7        39.3090   99.2100   33.9510 O.co2     1 GDS        -0.5643
     35 OE8        40.7940   97.8580   33.0120 O.co2     1 GDS        -0.5643
     36 N6         41.4970   99.5470   31.0760 N.4       1 GDS         0.2328
     37 CB6        39.2070  100.4370   31.4040 C.3       1 GDS         0.0193
     38 CG6        39.4590  101.7860   30.6890 C.3       1 GDS         0.0441
     39 CD6        38.2400  102.0860   29.8680 C.2       1 GDS         0.1785
     40 O6         37.8700  101.3780   28.9300 O.2       1 GDS        -0.3969
     41 H1         28.5801  108.0521   24.2846 H         1 GDS         0.2010
     42 H2         28.1539  108.9879   25.5699 H         1 GDS         0.2010
     43 H3         26.9913  108.3505   24.5944 H         1 GDS         0.2010
     44 H4         27.5436  106.1221   25.2531 H         1 GDS         0.1026
     45 H5         29.4676  107.4901   27.2262 H         1 GDS         0.0363
     46 H6         29.9991  106.7883   25.6604 H         1 GDS         0.0363
     47 H7         28.9624  104.5940   26.3606 H         1 GDS         0.0505
     48 H8         28.6143  105.3196   27.9665 H         1 GDS         0.0505
     49 H9         30.0605  103.1613   28.1470 H         1 GDS         0.1883
     50 H10        32.9462  104.0062   28.3873 H         1 GDS         0.0808
     51 H11        31.0546  102.5625   30.3926 H         1 GDS         0.0432
     52 H12        31.8613  104.1499   30.6292 H         1 GDS         0.0432
     53 H13        34.3886  102.5005   27.5624 H         1 GDS         0.1873
     54 H14        33.2348   99.7542   27.2585 H         1 GDS         0.0689
     55 H15        34.9665  100.0887   27.5988 H         1 GDS         0.0689
     56 H16        38.2310  105.0741   28.4498 H         1 GDS         0.1873
     57 H17        37.5776  104.4011   25.6569 H         1 GDS         0.0689
     58 H18        38.9339  105.4343   26.2223 H         1 GDS         0.0689
     59 H19        35.7010  102.6018   29.3890 H         1 GDS         0.0808
     60 H20        37.8260  103.8240   30.9399 H         1 GDS         0.1883
     61 H21        34.6634  104.9419   29.4913 H         1 GDS         0.0432
     62 H22        36.0794  105.3929   30.5004 H         1 GDS         0.0432
     63 H23        40.9458  100.8781   32.6113 H         1 GDS         0.1026
     64 H24        41.6924  100.2915   30.4252 H         1 GDS         0.2010
     65 H25        41.1169   98.7571   30.5785 H         1 GDS         0.2010
     66 H26        42.3493   99.2737   31.5396 H         1 GDS         0.2010
     67 H27        38.4163  100.5556   32.1595 H         1 GDS         0.0363
     68 H28        38.9023   99.6758   30.6707 H         1 GDS         0.0363
     69 H29        40.3423  101.7085   30.0380 H         1 GDS         0.0505
     70 H30        39.6190  102.5820   31.4311 H         1 GDS         0.0505
@<TRIPOS>BOND
     1    2    1 1  
     2    2    3 1  
     3    6    2 1  
     4    3    4 ar 
     5    3    5 ar 
     6    7    6 1  
     7    8    7 1  
     8    8    9 2  
     9   10    8 am 
    10   11   10 1  
    11   11   12 1  
    12   14   11 1  
    13   12   13 2  
    14   12   16 am 
    15   15   14 1  
    16   31   15 1  
    17   16   17 1  
    18   17   18 1  
    19   18   19 ar 
    20   18   20 ar 
    21   21   22 1  
    22   26   21 am 
    23   22   23 1  
    24   23   24 ar 
    25   23   25 ar 
    26   26   27 2  
    27   28   26 1  
    28   29   28 1  
    29   28   30 1  
    30   39   29 am 
    31   30   31 1  
    32   32   33 1  
    33   32   36 1  
    34   37   32 1  
    35   33   34 ar 
    36   33   35 ar 
    37   38   37 1  
    38   38   39 1  
    39   39   40 2  
    40    1   41 1  
    41    1   42 1  
    42    1   43 1  
    43    2   44 1  
    44    6   45 1  
    45    6   46 1  
    46    7   47 1  
    47    7   48 1  
    48   10   49 1  
    49   11   50 1  
    50   14   51 1  
    51   14   52 1  
    52   16   53 1  
    53   17   54 1  
    54   17   55 1  
    55   21   56 1  
    56   22   57 1  
    57   22   58 1  
    58   28   59 1  
    59   29   60 1  
    60   30   61 1  
    61   30   62 1  
    62   32   63 1  
    63   36   64 1  
    64   36   65 1  
    65   36   66 1  
    66   37   67 1  
    67   37   68 1  
    68   38   69 1  
    69   38   70 1  
@<TRIPOS>SUBSTRUCTURE
     1 GDS         1

