### 
### Created by X-TOOL on Mon Sep 10 21:13:23 2018
### 

@<TRIPOS>MOLECULE
4zbf_ligand
   54    58     1     0     0
SMALL
GAST_HUCK


@<TRIPOS>ATOM
      1 OAA       -34.2580   26.4610   -0.6420 O.co2     1 4M7        -0.5470
      2 CAU       -33.3250   27.2980   -0.7630 C.2       1 4M7         0.1346
      3 OAC       -33.4800   28.2590   -1.5580 O.co2     1 4M7        -0.5470
      4 CAY       -32.0320   27.1420   -0.0080 C.2       1 4M7         0.1914
      5 NBD       -31.3710   28.1220    0.7120 N.pl3     1 4M7        -0.2088
      6 CBC       -30.2110   27.6150    1.2460 C.ar      1 4M7         0.1401
      7 CAR       -31.7930   29.5110    0.9200 C.3       1 4M7         0.0688
      8 CAO       -30.8280   30.5100    0.3320 C.3       1 4M7        -0.0096
      9 CAS       -29.7920   31.0370    1.2850 C.3       1 4M7         0.0291
     10 SBE       -29.3140   29.9140    2.5590 S.3       1 4M7        -0.0132
     11 OAB       -30.3310   30.0430    3.6430 O.3       1 4M7        -0.3181
     12 CAX       -29.2090   28.1800    2.0390 C.ar      1 4M7         0.1017
     13 CAI       -28.1000   27.4190    2.4550 C.ar      1 4M7        -0.0103
     14 CAG       -28.0050   26.0600    2.0640 C.ar      1 4M7        -0.0310
     15 CAM       -29.0040   25.4850    1.2640 C.ar      1 4M7        -0.0237
     16 CBB       -30.0990   26.2540    0.8560 C.ar      1 4M7         0.0636
     17 CAW       -31.2610   25.9710    0.0540 C.2       1 4M7         0.0730
     18 CAQ       -31.6150   24.6500   -0.5820 C.3       1 4M7         0.0140
     19 CAN       -32.6470   23.8710    0.2110 C.3       1 4M7        -0.0063
     20 CAP       -32.1860   23.3960    1.5560 C.3       1 4M7         0.0757
     21 OAT       -31.0050   22.6920    1.4740 O.3       1 4M7        -0.3127
     22 CAV       -30.4380   22.0830    2.5770 C.ar      1 4M7         0.1043
     23 CBA       -29.4140   21.1490    2.3440 C.ar      1 4M7         0.0178
     24 CAL       -29.0280   20.8480    1.0040 C.ar      1 4M7        -0.0532
     25 CAE       -28.0160   19.9270    0.7820 C.ar      1 4M7        -0.0633
     26 CAD       -27.3920   19.3050    1.8630 C.ar      1 4M7        -0.0640
     27 CAJ       -27.7830   19.5890    3.1730 C.ar      1 4M7        -0.0587
     28 CAZ       -28.8010   20.5350    3.4100 C.ar      1 4M7        -0.0261
     29 CAK       -29.1940   20.8480    4.7300 C.ar      1 4M7        -0.0685
     30 CAF       -30.2140   21.7740    4.9540 C.ar      1 4M7        -0.0744
     31 CAH       -30.8410   22.4020    3.8660 C.ar      1 4M7        -0.0340
     32 H1        -31.8740   29.6954    2.0014 H         1 4M7         0.0644
     33 H2        -32.7767   29.6536    0.4489 H         1 4M7         0.0644
     34 H3        -31.4099   31.3643   -0.0444 H         1 4M7         0.0305
     35 H4        -30.3047   30.0253   -0.5054 H         1 4M7         0.0305
     36 H5        -30.1955   31.9426    1.7616 H         1 4M7         0.0428
     37 H6        -28.8946   31.2970    0.7045 H         1 4M7         0.0428
     38 H7        -30.1113   29.4522    4.3538 H         1 4M7         0.2333
     39 H8        -27.3268   27.8678    3.0680 H         1 4M7         0.0833
     40 H9        -27.1584   25.4633    2.3838 H         1 4M7         0.0659
     41 H10       -28.9274   24.4466    0.9626 H         1 4M7         0.0927
     42 H11       -30.7014   24.0425   -0.6612 H         1 4M7         0.0568
     43 H12       -32.0166   24.8412   -1.5881 H         1 4M7         0.0568
     44 H13       -32.9383   22.9905   -0.3804 H         1 4M7         0.0333
     45 H14       -33.5233   24.5190    0.3599 H         1 4M7         0.0333
     46 H15       -32.9597   22.7439    1.9875 H         1 4M7         0.0621
     47 H16       -32.0356   24.2683    2.2091 H         1 4M7         0.0621
     48 H17       -29.5202   21.3337    0.1693 H         1 4M7         0.0631
     49 H18       -27.7100   19.6906   -0.2307 H         1 4M7         0.0591
     50 H19       -26.5944   18.5930    1.6842 H         1 4M7         0.0614
     51 H20       -27.3055   19.0839    4.0048 H         1 4M7         0.0599
     52 H21       -28.7033   20.3689    5.5694 H         1 4M7         0.0493
     53 H22       -30.5217   22.0080    5.9667 H         1 4M7         0.0581
     54 H23       -31.6299   23.1269    4.0308 H         1 4M7         0.0499
@<TRIPOS>BOND
     1    1    2 ar 
     2    2    3 ar 
     3    2    4 1  
     4    4    5 1  
     5    4   17 2  
     6    5    6 1  
     7    5    7 1  
     8    6   12 ar 
     9    6   16 ar 
    10    7    8 1  
    11    8    9 1  
    12    9   10 1  
    13   10   11 1  
    14   10   12 1  
    15   12   13 ar 
    16   13   14 ar 
    17   14   15 ar 
    18   15   16 ar 
    19   16   17 1  
    20   17   18 1  
    21   18   19 1  
    22   19   20 1  
    23   20   21 1  
    24   21   22 1  
    25   22   23 ar 
    26   22   31 ar 
    27   23   24 ar 
    28   23   28 ar 
    29   24   25 ar 
    30   25   26 ar 
    31   26   27 ar 
    32   27   28 ar 
    33   28   29 ar 
    34   29   30 ar 
    35   30   31 ar 
    36    7   32 1  
    37    7   33 1  
    38    8   34 1  
    39    8   35 1  
    40    9   36 1  
    41    9   37 1  
    42   11   38 1  
    43   13   39 1  
    44   14   40 1  
    45   15   41 1  
    46   18   42 1  
    47   18   43 1  
    48   19   44 1  
    49   19   45 1  
    50   20   46 1  
    51   20   47 1  
    52   24   48 1  
    53   25   49 1  
    54   26   50 1  
    55   27   51 1  
    56   29   52 1  
    57   30   53 1  
    58   31   54 1  
@<TRIPOS>SUBSTRUCTURE
     1 4M7         1

