### 
### Created by X-TOOL on Mon Sep 10 21:13:23 2018
### 

@<TRIPOS>MOLECULE
4zbi_ligand
   51    55     1     0     0
SMALL
GAST_HUCK


@<TRIPOS>ATOM
      1 OAA        -8.7400  -23.1740    8.8760 O.co2     1 4M6        -0.5634
      2 CAT        -8.1630  -22.8940    7.7930 C.2       1 4M6         0.0763
      3 OAB        -7.1030  -23.4850    7.5090 O.co2     1 4M6        -0.5634
      4 CAX        -8.7570  -21.8540    6.8490 C.2       1 4M6         0.0892
      5 NBC        -9.3750  -20.6850    7.2170 N.pl3     1 4M6        -0.2671
      6 CBB        -9.7670  -20.0430    6.1120 C.ar      1 4M6         0.0689
      7 CAR        -9.6300  -20.0820    8.5690 C.3       1 4M6         0.0495
      8 CAN        -9.8850  -18.5530    8.5230 C.3       1 4M6        -0.0185
      9 CAP       -10.7520  -18.1020    7.3560 C.3       1 4M6        -0.0190
     10 CAU       -10.4210  -18.8310    6.0410 C.ar      1 4M6        -0.0221
     11 CAG       -10.7580  -18.3100    4.7500 C.ar      1 4M6        -0.0742
     12 CAE       -10.4280  -19.0390    3.5760 C.ar      1 4M6        -0.0856
     13 CAL        -9.7550  -20.2740    3.6790 C.ar      1 4M6        -0.0800
     14 CBA        -9.4240  -20.7650    4.9610 C.ar      1 4M6        -0.0207
     15 CAW        -8.7670  -21.9460    5.4400 C.2       1 4M6        -0.0299
     16 CAQ        -8.1860  -23.0770    4.6000 C.3       1 4M6        -0.0295
     17 CAM        -6.6800  -22.8930    4.4080 C.3       1 4M6        -0.0191
     18 CAO        -6.3510  -21.6510    3.5810 C.3       1 4M6         0.0736
     19 OAS        -6.9540  -21.8330    2.3280 O.3       1 4M6        -0.3129
     20 CAV        -6.5920  -20.9200    1.3210 C.ar      1 4M6         0.1043
     21 CAZ        -6.9550  -21.2020   -0.0050 C.ar      1 4M6         0.0178
     22 CAK        -7.6630  -22.3850   -0.2920 C.ar      1 4M6        -0.0532
     23 CAD        -8.0370  -22.6870   -1.6010 C.ar      1 4M6        -0.0633
     24 CAC        -7.7080  -21.8100   -2.6210 C.ar      1 4M6        -0.0640
     25 CAI        -7.0100  -20.6420   -2.3350 C.ar      1 4M6        -0.0587
     26 CAY        -6.6300  -20.3310   -1.0180 C.ar      1 4M6        -0.0261
     27 CAJ        -5.9240  -19.1430   -0.7360 C.ar      1 4M6        -0.0685
     28 CAF        -5.5560  -18.8670    0.5730 C.ar      1 4M6        -0.0744
     29 CAH        -5.8930  -19.7500    1.5990 C.ar      1 4M6        -0.0340
     30 H1         -8.7531  -20.2702    9.2058 H         1 4M6         0.0593
     31 H2        -10.5131  -20.5697    9.0075 H         1 4M6         0.0593
     32 H3         -8.9133  -18.0429    8.4487 H         1 4M6         0.0311
     33 H4        -10.3836  -18.2577    9.4580 H         1 4M6         0.0311
     34 H5        -10.6024  -17.0227    7.2052 H         1 4M6         0.0411
     35 H6        -11.8054  -18.2946    7.6075 H         1 4M6         0.0411
     36 H7        -11.2666  -17.3562    4.6684 H         1 4M6         0.0468
     37 H8        -10.6935  -18.6460    2.6013 H         1 4M6         0.0494
     38 H9         -9.4962  -20.8367    2.7894 H         1 4M6         0.0486
     39 H10        -8.6768  -23.0838    3.6156 H         1 4M6         0.0368
     40 H11        -8.3702  -24.0350    5.1082 H         1 4M6         0.0368
     41 H12        -6.2778  -23.7780    3.8933 H         1 4M6         0.0308
     42 H13        -6.2061  -22.7964    5.3960 H         1 4M6         0.0308
     43 H14        -5.2618  -21.5486    3.4667 H         1 4M6         0.0620
     44 H15        -6.7546  -20.7518    4.0694 H         1 4M6         0.0620
     45 H16        -7.9193  -23.0664    0.5112 H         1 4M6         0.0631
     46 H17        -8.5801  -23.5997   -1.8181 H         1 4M6         0.0591
     47 H18        -7.9946  -22.0341   -3.6421 H         1 4M6         0.0614
     48 H19        -6.7552  -19.9614   -3.1393 H         1 4M6         0.0599
     49 H20        -5.6717  -18.4532   -1.5332 H         1 4M6         0.0493
     50 H21        -5.0045  -17.9617    0.7993 H         1 4M6         0.0581
     51 H22        -5.6082  -19.5228    2.6199 H         1 4M6         0.0499
@<TRIPOS>BOND
     1    1    2 ar 
     2    2    3 ar 
     3    2    4 1  
     4    4    5 1  
     5    4   15 2  
     6    5    6 1  
     7    5    7 1  
     8    6   10 ar 
     9    6   14 ar 
    10    7    8 1  
    11    8    9 1  
    12    9   10 1  
    13   10   11 ar 
    14   11   12 ar 
    15   12   13 ar 
    16   13   14 ar 
    17   14   15 1  
    18   15   16 1  
    19   16   17 1  
    20   17   18 1  
    21   18   19 1  
    22   19   20 1  
    23   20   21 ar 
    24   20   29 ar 
    25   21   22 ar 
    26   21   26 ar 
    27   22   23 ar 
    28   23   24 ar 
    29   24   25 ar 
    30   25   26 ar 
    31   26   27 ar 
    32   27   28 ar 
    33   28   29 ar 
    34    7   30 1  
    35    7   31 1  
    36    8   32 1  
    37    8   33 1  
    38    9   34 1  
    39    9   35 1  
    40   11   36 1  
    41   12   37 1  
    42   13   38 1  
    43   16   39 1  
    44   16   40 1  
    45   17   41 1  
    46   17   42 1  
    47   18   43 1  
    48   18   44 1  
    49   22   45 1  
    50   23   46 1  
    51   24   47 1  
    52   25   48 1  
    53   27   49 1  
    54   28   50 1  
    55   29   51 1  
@<TRIPOS>SUBSTRUCTURE
     1 4M6         1

