### 
### Created by X-TOOL on Mon Sep 10 21:13:25 2018
### 

@<TRIPOS>MOLECULE
4ze6_ligand
   25    24     1     0     0
SMALL
GAST_HUCK


@<TRIPOS>ATOM
      1 C5         -1.3070    3.9970   10.3530 C.3       1 011        -0.0482
      2 C4         -1.3080    2.4810   10.3120 C.3       1 011        -0.0514
      3 O          -5.0470    0.2330   10.7120 O.co2     1 011        -0.5690
      4 C6          0.0860    4.6050   10.3200 C.3       1 011        -0.0126
      5 C3         -2.6540    1.8590   10.6310 C.3       1 011        -0.0414
      6 C7          0.8460    4.3060    9.0410 C.3       1 011        -0.0354
      7 C2         -2.6820    0.3630   10.3700 C.3       1 011         0.0002
      8 N           2.2140    4.8410    9.0640 N.4       1 011         0.2185
      9 C1         -3.9620   -0.3110   10.7630 C.2       1 011         0.0348
     10 OXT        -3.7860   -1.5390   11.1730 O.co2     1 011        -0.5690
     11 H1         -1.8058    4.3204   11.2785 H         1 011         0.0267
     12 H2         -1.8696    4.3689    9.4840 H         1 011         0.0267
     13 H3         -0.5744    2.1141   11.0450 H         1 011         0.0266
     14 H4         -1.0092    2.1615    9.3027 H         1 011         0.0266
     15 H5          0.6608    4.2050   11.1683 H         1 011         0.0317
     16 H6         -0.0077    5.6962   10.4224 H         1 011         0.0317
     17 H7         -3.4214    2.3400   10.0067 H         1 011         0.0283
     18 H8         -2.8812    2.0358   11.6926 H         1 011         0.0283
     19 H9          0.3051    4.7557    8.1954 H         1 011         0.0813
     20 H10         0.8955    3.2154    8.9063 H         1 011         0.0813
     21 H11        -1.8612   -0.1005   10.9370 H         1 011         0.0430
     22 H12        -2.5231    0.1986    9.2940 H         1 011         0.0430
     23 H13         2.6766    4.6180    8.1966 H         1 011         0.1994
     24 H14         2.7226    4.4303    9.8313 H         1 011         0.1994
     25 H15         2.1815    5.8418    9.1798 H         1 011         0.1994
@<TRIPOS>BOND
     1    2    1 1  
     2    1    4 1  
     3    5    2 1  
     4    9    3 ar 
     5    4    6 1  
     6    7    5 1  
     7    6    8 1  
     8    7    9 1  
     9    9   10 ar 
    10    1   11 1  
    11    1   12 1  
    12    2   13 1  
    13    2   14 1  
    14    4   15 1  
    15    4   16 1  
    16    5   17 1  
    17    5   18 1  
    18    6   19 1  
    19    6   20 1  
    20    7   21 1  
    21    7   22 1  
    22    8   23 1  
    23    8   24 1  
    24    8   25 1  
@<TRIPOS>SUBSTRUCTURE
     1 011         1

