### 
### Created by X-TOOL on Mon Sep 10 21:13:28 2018
### 

@<TRIPOS>MOLECULE
4zfi_ligand
   55    59     1     0     0
SMALL
GAST_HUCK


@<TRIPOS>ATOM
      1 C5         18.0480   -1.3940   25.4900 C.3       1 4NJ        -0.0135
      2 C6         17.0940   -0.8070   24.4800 C.ar      1 4NJ        -0.0522
      3 C7         17.4430   -0.7600   23.1280 C.ar      1 4NJ        -0.0608
      4 C8         16.6010   -0.2330   22.1860 C.ar      1 4NJ        -0.0546
      5 C9         15.3590    0.2680   22.5890 C.ar      1 4NJ         0.0330
      6 C10        14.9710    0.2270   23.9320 C.ar      1 4NJ        -0.0546
      7 C11        15.8510   -0.3280   24.8620 C.ar      1 4NJ        -0.0608
      8 CL1        14.2690    0.8570   21.3360 Cl        1 4NJ        -0.0771
      9 C13        19.0840   -0.4160   25.9540 C.3       1 4NJ         0.1221
     10 C14        18.5150    0.8570   26.4650 C.2       1 4NJ         0.0029
     11 C15        19.0510    2.0630   25.8730 C.2       1 4NJ         0.1052
     12 C16        19.9620    1.4300   24.9200 C.2       1 4NJ         0.2597
     13 N18        20.0070    0.0920   24.8930 N.am      1 4NJ        -0.2907
     14 C19        20.8420   -0.8220   24.0870 C.3       1 4NJ         0.0106
     15 O20        20.6360    2.0660   24.0810 O.2       1 4NJ        -0.3458
     16 O21        19.8210   -0.9240   27.0660 O.3       1 4NJ        -0.4335
     17 C28        18.7800    3.5210   26.1000 C.3       1 4NJ         0.0659
     18 C37        17.7660    4.0070   25.1150 C.ar      1 4NJ        -0.0119
     19 C38        17.1370    5.1710   25.4260 C.ar      1 4NJ        -0.0531
     20 C39        16.2430    5.7710   24.5830 C.ar      1 4NJ        -0.0521
     21 C40        15.9000    5.1690   23.4500 C.ar      1 4NJ         0.0352
     22 C41        16.4680    3.9530   23.1340 C.ar      1 4NJ        -0.0521
     23 C42        17.4020    3.3860   23.9430 C.ar      1 4NJ        -0.0531
     24 CL2        14.6540    5.9930   22.4400 Cl        1 4NJ        -0.0751
     25 C44        17.5440    1.0860   27.5860 C.2       1 4NJ        -0.0139
     26 C45        17.5830    0.3570   28.8650 C.ar      1 4NJ        -0.0152
     27 C46        16.4440    0.9310   29.5580 C.ar      1 4NJ         0.0683
     28 C48        16.4690    1.9320   27.5700 C.2       1 4NJ         0.0378
     29 N49        15.8480    1.8240   28.7940 N.pl3     1 4NJ        -0.2739
     30 C56        16.1930    0.4970   30.8340 C.ar      1 4NJ        -0.0280
     31 C57        16.9500   -0.4800   31.3960 C.ar      1 4NJ         0.0265
     32 C58        18.0200   -1.0640   30.7330 C.ar      1 4NJ        -0.0642
     33 C59        18.3410   -0.6790   29.4360 C.ar      1 4NJ        -0.0725
     34 CL3        16.5160   -0.9040   33.0940 Cl        1 4NJ        -0.0793
     35 H1         18.5582   -2.2540   25.0317 H         1 4NJ         0.0308
     36 H2         17.4701   -1.7327   26.3625 H         1 4NJ         0.0308
     37 H3         18.4051   -1.1508   22.8170 H         1 4NJ         0.0557
     38 H4         16.8928   -0.2044   21.1424 H         1 4NJ         0.0606
     39 H5         14.0088    0.6174   24.2434 H         1 4NJ         0.0606
     40 H6         15.5565   -0.3856   25.9036 H         1 4NJ         0.0557
     41 H7         21.4395   -0.2379   23.3716 H         1 4NJ         0.0473
     42 H8         20.1948   -1.5222   23.5385 H         1 4NJ         0.0473
     43 H9         21.5135   -1.3864   24.7507 H         1 4NJ         0.0473
     44 H10        20.3575   -0.2308   27.4322 H         1 4NJ         0.1880
     45 H11        19.7131    4.0898   25.9742 H         1 4NJ         0.0832
     46 H12        18.3966    3.6666   27.1207 H         1 4NJ         0.0832
     47 H13        17.3522    5.6416   26.3785 H         1 4NJ         0.0578
     48 H14        15.8160    6.7341   24.8385 H         1 4NJ         0.0611
     49 H15        16.1654    3.4417   22.2273 H         1 4NJ         0.0611
     50 H16        17.8601    2.4439   23.6642 H         1 4NJ         0.0578
     51 H17        16.1619    2.5713   26.7436 H         1 4NJ         0.1002
     52 H18        15.0226    2.3715   29.0766 H         1 4NJ         0.2302
     53 H19        15.3812    0.9387   31.4005 H         1 4NJ         0.0555
     54 H20        18.6099   -1.8258   31.2298 H         1 4NJ         0.0524
     55 H21        19.1436   -1.1588   28.8876 H         1 4NJ         0.0544
@<TRIPOS>BOND
     1    1    2 1  
     2    1    9 1  
     3    2    3 ar 
     4    2    7 ar 
     5    3    4 ar 
     6    4    5 ar 
     7    5    6 ar 
     8    5    8 1  
     9    6    7 ar 
    10    9   10 1  
    11    9   13 1  
    12    9   16 1  
    13   10   11 2  
    14   10   25 1  
    15   11   12 1  
    16   11   17 1  
    17   12   13 am 
    18   12   15 2  
    19   13   14 1  
    20   17   18 1  
    21   18   19 ar 
    22   18   23 ar 
    23   19   20 ar 
    24   20   21 ar 
    25   21   22 ar 
    26   21   24 1  
    27   22   23 ar 
    28   25   26 1  
    29   25   28 2  
    30   26   27 ar 
    31   26   33 ar 
    32   27   29 1  
    33   27   30 ar 
    34   28   29 1  
    35   30   31 ar 
    36   31   32 ar 
    37   31   34 1  
    38   32   33 ar 
    39    1   35 1  
    40    1   36 1  
    41    3   37 1  
    42    4   38 1  
    43    6   39 1  
    44    7   40 1  
    45   14   41 1  
    46   14   42 1  
    47   14   43 1  
    48   16   44 1  
    49   17   45 1  
    50   17   46 1  
    51   19   47 1  
    52   20   48 1  
    53   22   49 1  
    54   23   50 1  
    55   28   51 1  
    56   29   52 1  
    57   30   53 1  
    58   32   54 1  
    59   33   55 1  
@<TRIPOS>SUBSTRUCTURE
     1 4NJ         1

