### 
### Created by X-TOOL on Mon Sep 10 21:13:25 2018
### 

@<TRIPOS>MOLECULE
4zg6_ligand
   46    49     1     0     0
SMALL
GAST_HUCK


@<TRIPOS>ATOM
      1 C24        65.6300   24.1450   30.3890 C.2       1 4NY         0.0591
      2 C23        64.4040   20.0590   25.7220 C.1       1 4NY         0.0628
      3 C22        60.4240   17.4520   19.6610 C.ar      1 4NY        -0.0593
      4 C14        62.9480   22.9510   21.4170 C.ar      1 4NY        -0.0694
      5 C15        62.8450   21.6740   21.9740 C.ar      1 4NY        -0.0026
      6 C16        62.0540   18.0810   21.4660 C.3       1 4NY         0.0906
      7 C17        60.6560   18.1050   20.8710 C.ar      1 4NY        -0.0166
      8 C18        59.6000   18.7540   21.5140 C.ar      1 4NY        -0.0593
      9 C19        58.3310   18.7510   20.9460 C.ar      1 4NY        -0.0348
     10 C20        58.0990   18.0950   19.7340 C.ar      1 4NY         0.1248
     11 C21        59.1540   17.4360   19.0890 C.ar      1 4NY        -0.0348
     12 O          65.9880   25.3100   30.3950 O.co2     1 4NY        -0.5623
     13 O1         65.5260   23.4720   31.5360 O.co2     1 4NY        -0.5623
     14 C1         65.2840   23.4730   29.0970 C.ar      1 4NY         0.0044
     15 C2         64.8270   22.1640   29.1660 C.ar      1 4NY        -0.0532
     16 C3         64.5010   21.5050   27.9900 C.ar      1 4NY        -0.0574
     17 C4         64.6280   22.1310   26.7370 C.ar      1 4NY        -0.0129
     18 C5         65.0650   23.4600   26.6640 C.ar      1 4NY        -0.0574
     19 C          65.4060   24.1270   27.8520 C.ar      1 4NY        -0.0532
     20 C6         64.1820   21.2870   25.5750 C.2       1 4NY         0.0813
     21 N1         64.6620   18.9350   25.8390 N.1       1 4NY        -0.3645
     22 C7         63.5010   21.8260   24.5330 C.2       1 4NY        -0.0270
     23 C8         63.0320   21.0700   23.3190 C.2       1 4NY         0.0162
     24 C13        62.6960   23.1040   20.0490 C.ar      1 4NY        -0.0623
     25 C12        62.3120   22.0110   19.2600 C.ar      1 4NY         0.0284
     26 CL         62.0150   22.2120   17.5060 Cl        1 4NY        -0.0783
     27 C11        62.2010   20.7300   19.7990 C.ar      1 4NY        -0.0247
     28 C10        62.4540   20.5060   21.1570 C.ar      1 4NY         0.0813
     29 N          62.4130   19.4070   21.9590 N.pl3     1 4NY        -0.2336
     30 C9         62.7430   19.7030   23.2520 C.2       1 4NY         0.0687
     31 F          56.8670   18.0860   19.1900 F         1 4NY        -0.1893
     32 H1         61.2430   16.9500   19.1587 H         1 4NY         0.0548
     33 H2         63.2169   23.8035   22.0302 H         1 4NY         0.0553
     34 H3         62.7732   17.7736   20.6926 H         1 4NY         0.0774
     35 H4         62.0824   17.3633   22.2991 H         1 4NY         0.0774
     36 H5         59.7698   19.2607   22.4571 H         1 4NY         0.0548
     37 H6         57.5159   19.2610   21.4467 H         1 4NY         0.0587
     38 H7         58.9832   16.9178   18.1523 H         1 4NY         0.0587
     39 H8         64.7266   21.6652   30.1232 H         1 4NY         0.0635
     40 H9         64.1400   20.4840   28.0377 H         1 4NY         0.0580
     41 H10        65.1387   23.9646   25.7075 H         1 4NY         0.0580
     42 H11        65.7647   25.1492   27.8127 H         1 4NY         0.0635
     43 H12        63.2757   22.8905   24.5785 H         1 4NY         0.0863
     44 H13        62.7993   24.0820   19.5929 H         1 4NY         0.0533
     45 H14        61.9165   19.9010   19.1611 H         1 4NY         0.0564
     46 H15        62.7752   18.9994   24.0826 H         1 4NY         0.1215
@<TRIPOS>BOND
     1    1   12 ar 
     2    1   13 ar 
     3   14    1 1  
     4   20    2 1  
     5    2   21 3  
     6    7    3 ar 
     7    3   11 ar 
     8    5    4 ar 
     9    4   24 ar 
    10    5   23 1  
    11   28    5 ar 
    12    6    7 1  
    13   29    6 1  
    14    7    8 ar 
    15    8    9 ar 
    16    9   10 ar 
    17   11   10 ar 
    18   10   31 1  
    19   15   14 ar 
    20   19   14 ar 
    21   16   15 ar 
    22   17   16 ar 
    23   17   18 ar 
    24   20   17 1  
    25   18   19 ar 
    26   22   20 2  
    27   23   22 1  
    28   23   30 2  
    29   25   24 ar 
    30   25   26 1  
    31   27   25 ar 
    32   28   27 ar 
    33   28   29 1  
    34   29   30 1  
    35    3   32 1  
    36    4   33 1  
    37    6   34 1  
    38    6   35 1  
    39    8   36 1  
    40    9   37 1  
    41   11   38 1  
    42   15   39 1  
    43   16   40 1  
    44   18   41 1  
    45   19   42 1  
    46   22   43 1  
    47   24   44 1  
    48   27   45 1  
    49   30   46 1  
@<TRIPOS>SUBSTRUCTURE
     1 4NY         1

