### 
### Created by X-TOOL on Mon Sep 10 21:13:21 2018
### 

@<TRIPOS>MOLECULE
4zg7_ligand
   57    62     1     0     0
SMALL
GAST_HUCK


@<TRIPOS>ATOM
      1 C1         -8.2120    5.3360  -38.9300 C.3       1 4O0         0.1483
      2 C2         -7.8850    2.8960  -38.7820 C.ar      1 4O0         0.0970
      3 C3         -6.6400    2.8450  -38.0170 C.ar      1 4O0         0.1601
      4 C4         -6.1400    1.4960  -37.7130 C.ar      1 4O0         0.0542
      5 N1         -6.8170    7.1390  -39.6040 N.am      1 4O0        -0.2015
      6 C5         -6.8200    0.3410  -38.1030 C.ar      1 4O0        -0.0715
      7 C6         -8.0100    0.3970  -38.7980 C.ar      1 4O0        -0.0828
      8 C7         -8.5190    1.6320  -39.1640 C.ar      1 4O0        -0.0204
      9 C8         -9.6910    2.1270  -39.8730 C.2       1 4O0         0.0221
     10 C9         -9.6910    3.5910  -39.9000 C.2       1 4O0         0.0526
     11 C10       -10.7380    4.4700  -40.5510 C.3       1 4O0        -0.0107
     12 O1        -12.8220   -1.3570  -44.9400 O.co2     1 4O0        -0.5621
     13 O2        -11.1520   -1.4200  -46.3840 O.co2     1 4O0        -0.5621
     14 C11       -10.3150    0.8150  -42.1620 C.ar      1 4O0         0.0574
     15 C12        -9.1230    1.2980  -42.6600 C.ar      1 4O0        -0.0481
     16 C13        -8.7340    1.0130  -43.9700 C.ar      1 4O0        -0.0683
     17 C14        -9.5340    0.2510  -44.8280 C.ar      1 4O0        -0.0565
     18 C15       -10.7350   -0.2760  -44.3850 C.ar      1 4O0         0.0378
     19 C16       -11.1750    0.0050  -43.0240 C.ar      1 4O0         0.1591
     20 C17       -11.5800   -1.0720  -45.2980 C.2       1 4O0         0.0609
     21 C18        -7.1010    7.8790  -38.3710 C.3       1 4O0         0.0402
     22 C19        -6.2470    9.1490  -38.4990 C.3       1 4O0        -0.0280
     23 C20        -5.6340    9.1490  -39.8570 C.ar      1 4O0        -0.0287
     24 C21        -5.9690    7.8760  -40.4760 C.ar      1 4O0         0.1048
     25 C22        -5.5210    7.6150  -41.7700 C.ar      1 4O0        -0.0063
     26 F1         -5.9730    3.9390  -37.6150 F         1 4O0        -0.1900
     27 CL         -4.6710    1.3830  -36.7660 Cl        1 4O0        -0.0851
     28 S         -10.8890    1.1050  -40.5910 S.3       1 4O0        -0.0820
     29 F         -12.3070   -0.4680  -42.5140 F         1 4O0        -0.1843
     30 N          -8.5880    3.9760  -39.2130 N.pl3     1 4O0        -0.2462
     31 C          -7.2880    5.9340  -39.9370 C.2       1 4O0         0.2525
     32 O          -7.0380    5.3750  -40.9650 O.2       1 4O0        -0.3712
     33 C23        -4.7130    8.5810  -42.4170 C.ar      1 4O0        -0.0464
     34 C24        -4.3830    9.7850  -41.7940 C.ar      1 4O0        -0.0477
     35 C25        -4.8380   10.0840  -40.5000 C.ar      1 4O0        -0.0532
     36 C27        -5.5520    9.7660  -37.3010 C.3       1 4O0        -0.0906
     37 C26        -6.7910   10.4550  -37.9130 C.3       1 4O0        -0.0906
     38 H1         -7.7159    5.3603  -37.9485 H         1 4O0         0.0848
     39 H2         -9.1260    5.9469  -38.8941 H         1 4O0         0.0848
     40 H3         -6.4011   -0.6269  -37.8526 H         1 4O0         0.0495
     41 H4         -8.5398   -0.5133  -39.0543 H         1 4O0         0.0472
     42 H5        -11.5023    3.8384  -41.0274 H         1 4O0         0.0410
     43 H6        -10.2615    5.1057  -41.3118 H         1 4O0         0.0410
     44 H7        -11.2109    5.1044  -39.7868 H         1 4O0         0.0410
     45 H8         -8.4829    1.9039  -42.0290 H         1 4O0         0.0574
     46 H9         -7.7856    1.3927  -44.3325 H         1 4O0         0.0572
     47 H10        -9.2111    0.0719  -45.8472 H         1 4O0         0.0581
     48 H11        -6.8047    7.2954  -37.4869 H         1 4O0         0.0492
     49 H12        -8.1696    8.1310  -38.3028 H         1 4O0         0.0492
     50 H13        -5.7860    6.6909  -42.2709 H         1 4O0         0.0599
     51 H14        -4.3434    8.3812  -43.4163 H         1 4O0         0.0798
     52 H15        -3.7636   10.5031  -42.3190 H         1 4O0         0.0600
     53 H16        -4.5746   11.0185  -40.0179 H         1 4O0         0.0770
     54 H17        -4.5570   10.2205  -37.4164 H         1 4O0         0.0126
     55 H18        -5.6223    9.2827  -36.3154 H         1 4O0         0.0126
     56 H19        -7.7461   10.4602  -37.3674 H         1 4O0         0.0126
     57 H20        -6.6808   11.3980  -38.4685 H         1 4O0         0.0126
@<TRIPOS>BOND
     1   30    1 1  
     2    1   31 1  
     3    2    3 ar 
     4    8    2 ar 
     5   30    2 1  
     6    3    4 ar 
     7    3   26 1  
     8    6    4 ar 
     9    4   27 1  
    10    5   21 1  
    11    5   24 1  
    12   31    5 am 
    13    7    6 ar 
    14    8    7 ar 
    15    9    8 1  
    16    9   10 2  
    17   28    9 1  
    18   10   11 1  
    19   10   30 1  
    20   20   12 ar 
    21   20   13 ar 
    22   14   15 ar 
    23   19   14 ar 
    24   14   28 1  
    25   16   15 ar 
    26   17   16 ar 
    27   18   17 ar 
    28   18   19 ar 
    29   18   20 1  
    30   19   29 1  
    31   21   22 1  
    32   22   23 1  
    33   22   36 1  
    34   22   37 1  
    35   23   24 ar 
    36   23   35 ar 
    37   24   25 ar 
    38   25   33 ar 
    39   31   32 2  
    40   33   34 ar 
    41   34   35 ar 
    42   36   37 1  
    43    1   38 1  
    44    1   39 1  
    45    6   40 1  
    46    7   41 1  
    47   11   42 1  
    48   11   43 1  
    49   11   44 1  
    50   15   45 1  
    51   16   46 1  
    52   17   47 1  
    53   21   48 1  
    54   21   49 1  
    55   25   50 1  
    56   33   51 1  
    57   34   52 1  
    58   35   53 1  
    59   36   54 1  
    60   36   55 1  
    61   37   56 1  
    62   37   57 1  
@<TRIPOS>SUBSTRUCTURE
     1 4O0         1

