### 
### Created by X-TOOL on Mon Sep 10 21:13:23 2018
### 

@<TRIPOS>MOLECULE
4zg9_ligand
   50    54     1     0     0
SMALL
GAST_HUCK


@<TRIPOS>ATOM
      1 C1         35.7070   60.2410   -9.2490 C.3       1 4O2         0.0706
      2 C2         34.9660   61.2500  -10.1270 C.3       1 4O2         0.0249
      3 C3         35.8550   61.8860  -11.1680 C.2       1 4O2         0.0371
      4 C4         34.4790   58.1790  -10.1490 C.2       1 4O2         0.2337
      5 C5         34.6130   56.8550  -10.7340 C.3       1 4O2         0.1439
      6 C6         33.9070   55.8310   -9.8440 C.3       1 4O2        -0.0008
      7 C7         36.7230   55.5890  -11.0110 C.3       1 4O2         0.0900
      8 C8         35.9450   54.3610  -10.6000 C.2       1 4O2         0.0652
      9 C10        34.1630   53.1740   -9.7750 C.ar      1 4O2        -0.0314
     10 C11        33.0010   52.6760   -9.2530 C.ar      1 4O2        -0.0798
     11 C13        33.8940   50.4410   -9.4850 C.ar      1 4O2        -0.0802
     12 C14        35.0870   50.9280  -10.0060 C.ar      1 4O2        -0.0479
     13 C17        37.6370   52.0800  -12.5480 C.ar      1 4O2        -0.0187
     14 C19        38.3490   52.5420  -14.7950 C.ar      1 4O2        -0.0348
     15 C21        37.1800   50.4990  -14.2890 C.ar      1 4O2        -0.0348
     16 F          37.8660   50.9460  -16.4980 F         1 4O2        -0.1893
     17 C20        37.7920   51.3390  -15.2080 C.ar      1 4O2         0.1248
     18 C18        38.2780   52.9070  -13.4570 C.ar      1 4O2        -0.0595
     19 C22        37.1160   50.8650  -12.9640 C.ar      1 4O2        -0.0595
     20 C16        37.5490   52.4630  -11.1030 C.3       1 4O2         0.0812
     21 N2         36.2760   53.0330  -10.6730 N.pl3     1 4O2        -0.2548
     22 N1         36.0580   56.8090  -10.5680 N.am      1 4O2        -0.2189
     23 C          36.5540   57.9620  -10.0680 C.2       1 4O2         0.2973
     24 O          37.8040   58.1820   -9.8720 O.2       1 4O2        -0.3910
     25 C15        35.2740   52.2930  -10.1810 C.ar      1 4O2         0.0604
     26 C12        32.8760   51.3010   -9.1110 C.ar      1 4O2        -0.0830
     27 C9         34.5980   54.5270  -10.0390 C.2       1 4O2        -0.0417
     28 O3         33.3100   58.7230  -10.0720 O.2       1 4O2        -0.3840
     29 N          35.5810   58.8820   -9.7860 N.am      1 4O2        -0.1673
     30 O2         37.0570   61.7250  -11.1030 O.co2     1 4O2        -0.5689
     31 O1         35.3730   62.6420  -12.1630 O.co2     1 4O2        -0.5689
     32 H1         35.2825   60.2673   -8.2346 H         1 4O2         0.0592
     33 H2         36.7718   60.5139   -9.2081 H         1 4O2         0.0592
     34 H3         34.5572   62.0424   -9.4829 H         1 4O2         0.0454
     35 H4         34.1417   60.7316  -10.6386 H         1 4O2         0.0454
     36 H5         34.2757   56.7762  -11.7780 H         1 4O2         0.0818
     37 H6         32.8497   55.7443  -10.1349 H         1 4O2         0.0368
     38 H7         33.9733   56.1386   -8.7900 H         1 4O2         0.0368
     39 H8         36.8118   55.6069  -12.1072 H         1 4O2         0.0703
     40 H9         37.7264   55.5445  -10.5625 H         1 4O2         0.0703
     41 H10        32.1966   53.3396   -8.9571 H         1 4O2         0.0510
     42 H11        33.7588   49.3716   -9.3698 H         1 4O2         0.0502
     43 H12        35.8772   50.2374  -10.2777 H         1 4O2         0.0531
     44 H13        38.8362   53.1922  -15.5126 H         1 4O2         0.0587
     45 H14        36.7534   49.5569  -14.6138 H         1 4O2         0.0587
     46 H15        38.7233   53.8375  -13.1239 H         1 4O2         0.0548
     47 H16        36.6559   50.1998  -12.2422 H         1 4O2         0.0548
     48 H17        38.3359   53.2049  -10.9020 H         1 4O2         0.0749
     49 H18        37.7343   51.5601  -10.5027 H         1 4O2         0.0749
     50 H19        31.9611   50.8917   -8.6982 H         1 4O2         0.0500
@<TRIPOS>BOND
     1    1    2 1  
     2   29    1 1  
     3    2    3 1  
     4    3   30 ar 
     5    3   31 ar 
     6    5    4 1  
     7    4   28 2  
     8    4   29 am 
     9    6    5 1  
    10   22    5 1  
    11   27    6 1  
    12    8    7 1  
    13    7   22 1  
    14   21    8 1  
    15    8   27 2  
    16    9   10 ar 
    17    9   25 ar 
    18   27    9 1  
    19   10   26 ar 
    20   12   11 ar 
    21   26   11 ar 
    22   25   12 ar 
    23   13   18 ar 
    24   13   19 ar 
    25   20   13 1  
    26   14   17 ar 
    27   18   14 ar 
    28   15   17 ar 
    29   19   15 ar 
    30   17   16 1  
    31   20   21 1  
    32   21   25 1  
    33   22   23 am 
    34   23   24 2  
    35   23   29 am 
    36    1   32 1  
    37    1   33 1  
    38    2   34 1  
    39    2   35 1  
    40    5   36 1  
    41    6   37 1  
    42    6   38 1  
    43    7   39 1  
    44    7   40 1  
    45   10   41 1  
    46   11   42 1  
    47   12   43 1  
    48   14   44 1  
    49   15   45 1  
    50   18   46 1  
    51   19   47 1  
    52   20   48 1  
    53   20   49 1  
    54   26   50 1  
@<TRIPOS>SUBSTRUCTURE
     1 4O2         1

