### 
### Created by X-TOOL on Mon Sep 10 21:13:25 2018
### 

@<TRIPOS>MOLECULE
4zga_ligand
   42    46     1     0     0
SMALL
GAST_HUCK


@<TRIPOS>ATOM
      1 C15         6.0280   65.5840   24.2120 C.3       1 4O3         0.0900
      2 C17         6.5860   67.9850   26.7330 C.2       1 4O3         0.2311
      3 O1          7.7220   67.9390   23.6160 O.2       1 4O3        -0.3911
      4 C16         7.1890   67.7570   24.7580 C.2       1 4O3         0.2946
      5 N2          7.3330   68.6000   25.8090 N.am      1 4O3        -0.1829
      6 O           6.4240   68.4910   27.8980 O.2       1 4O3        -0.3842
      7 C18         5.8590   66.7620   26.4030 C.3       1 4O3         0.1437
      8 C19         6.0990   65.6280   27.3720 C.3       1 4O3        -0.0008
      9 C13         6.0830   64.3910   26.5520 C.2       1 4O3        -0.0417
     10 C8          6.1050   63.0100   27.0180 C.ar      1 4O3        -0.0314
     11 C9          6.1260   62.4390   28.2840 C.ar      1 4O3        -0.0798
     12 C10         6.1210   61.0530   28.3740 C.ar      1 4O3        -0.0830
     13 C11         6.1230   60.2490   27.2320 C.ar      1 4O3        -0.0802
     14 C12         6.1140   60.8050   25.9520 C.ar      1 4O3        -0.0479
     15 C7          6.0970   62.2020   25.7920 C.ar      1 4O3         0.0604
     16 N1          6.4290   66.7110   25.0300 N.am      1 4O3        -0.2191
     17 C14         6.0670   64.3450   25.0960 C.2       1 4O3         0.0652
     18 N           6.0650   63.0480   24.7310 N.pl3     1 4O3        -0.2548
     19 C6          6.0870   62.5800   23.3410 C.3       1 4O3         0.0812
     20 C5          4.7340   62.3860   22.7710 C.ar      1 4O3        -0.0187
     21 C2          4.0760   61.1770   22.9700 C.ar      1 4O3        -0.0595
     22 C1          2.8170   60.9940   22.4270 C.ar      1 4O3        -0.0348
     23 C4          4.1550   63.4150   22.0470 C.ar      1 4O3        -0.0595
     24 C3          2.8960   63.2220   21.5070 C.ar      1 4O3        -0.0348
     25 C           2.2340   62.0260   21.7000 C.ar      1 4O3         0.1248
     26 F           1.0170   61.8510   21.1650 F         1 4O3        -0.1893
     27 H1          6.7230   65.4657   23.3676 H         1 4O3         0.0703
     28 H2          5.0089   65.7409   23.8289 H         1 4O3         0.0703
     29 H3          7.8553   69.4502   25.8758 H         1 4O3         0.2255
     30 H4          4.7715   66.9234   26.3661 H         1 4O3         0.0818
     31 H5          5.3028   65.5961   28.1303 H         1 4O3         0.0368
     32 H6          7.0735   65.7469   27.8682 H         1 4O3         0.0368
     33 H7          6.1457   63.0564   29.1748 H         1 4O3         0.0510
     34 H8          6.1154   60.5852   29.3518 H         1 4O3         0.0500
     35 H9          6.1317   59.1706   27.3422 H         1 4O3         0.0502
     36 H10         6.1201   60.1598   25.0809 H         1 4O3         0.0531
     37 H11         6.6234   61.6204   23.3033 H         1 4O3         0.0749
     38 H12         6.6208   63.3228   22.7301 H         1 4O3         0.0749
     39 H13         4.5448   60.3864   23.5446 H         1 4O3         0.0548
     40 H14         2.2908   60.0566   22.5667 H         1 4O3         0.0587
     41 H15         4.6784   64.3538   21.9061 H         1 4O3         0.0548
     42 H16         2.4281   64.0120   20.9308 H         1 4O3         0.0587
@<TRIPOS>BOND
     1   16    1 1  
     2    1   17 1  
     3    5    2 am 
     4    2    6 2  
     5    2    7 1  
     6    4    3 2  
     7    4    5 am 
     8    4   16 am 
     9    7    8 1  
    10    7   16 1  
    11    8    9 1  
    12    9   10 1  
    13    9   17 2  
    14   10   11 ar 
    15   10   15 ar 
    16   11   12 ar 
    17   12   13 ar 
    18   13   14 ar 
    19   14   15 ar 
    20   15   18 1  
    21   17   18 1  
    22   18   19 1  
    23   19   20 1  
    24   20   21 ar 
    25   20   23 ar 
    26   21   22 ar 
    27   22   25 ar 
    28   23   24 ar 
    29   24   25 ar 
    30   25   26 1  
    31    1   27 1  
    32    1   28 1  
    33    5   29 1  
    34    7   30 1  
    35    8   31 1  
    36    8   32 1  
    37   11   33 1  
    38   12   34 1  
    39   13   35 1  
    40   14   36 1  
    41   19   37 1  
    42   19   38 1  
    43   21   39 1  
    44   22   40 1  
    45   23   41 1  
    46   24   42 1  
@<TRIPOS>SUBSTRUCTURE
     1 4O3         1

