### 
### Created by X-TOOL on Mon Sep 10 21:13:28 2018
### 

@<TRIPOS>MOLECULE
4zgk_ligand
   51    55     1     0     0
SMALL
GAST_HUCK


@<TRIPOS>ATOM
      1 CL1        11.9910    2.5380  -22.9420 Cl        1 4NX        -0.0751
      2 C40        10.6590    3.2570  -23.9650 C.ar      1 4NX         0.0352
      3 C39        10.9720    3.9210  -25.1690 C.ar      1 4NX        -0.0521
      4 C38         9.9580    4.4700  -25.9590 C.ar      1 4NX        -0.0531
      5 C41         9.3280    3.1200  -23.5850 C.ar      1 4NX        -0.0521
      6 C42         8.3080    3.6690  -24.3660 C.ar      1 4NX        -0.0531
      7 C37         8.6210    4.3580  -25.5500 C.ar      1 4NX        -0.0120
      8 C28         7.5480    4.9900  -26.4220 C.3       1 4NX         0.0667
      9 C15         6.1330    4.4180  -26.2360 C.2       1 4NX         0.1175
     10 C16         5.3000    4.7860  -25.2670 C.2       1 4NX         0.3165
     11 O20         5.5960    5.4930  -24.3350 O.2       1 4NX        -0.3155
     12 O18         3.9890    4.1670  -25.3960 O.3       1 4NX        -0.3019
     13 C13         4.0910    3.2900  -26.5040 C.3       1 4NX         0.1603
     14 O21         3.1080    3.6650  -27.4390 O.3       1 4NX        -0.4277
     15 C5          3.9270    1.8430  -26.0620 C.3       1 4NX        -0.0062
     16 C6          4.9460    1.3870  -25.0020 C.ar      1 4NX        -0.0516
     17 C11         6.0080    0.5710  -25.3370 C.ar      1 4NX        -0.0608
     18 C10         6.9400    0.1330  -24.3900 C.ar      1 4NX        -0.0546
     19 C7          4.7570    1.7360  -23.6800 C.ar      1 4NX        -0.0608
     20 C8          5.6550    1.2910  -22.6980 C.ar      1 4NX        -0.0546
     21 C9          6.7330    0.4820  -23.0590 C.ar      1 4NX         0.0330
     22 CL2         7.8380   -0.0960  -21.7810 Cl        1 4NX        -0.0771
     23 C14         5.5300    3.5030  -27.0050 C.2       1 4NX         0.0116
     24 C44         6.2610    2.8170  -28.1100 C.2       1 4NX        -0.0130
     25 C48         7.5770    2.3490  -28.1680 C.2       1 4NX         0.0380
     26 N49         7.8010    1.7950  -29.3790 N.pl3     1 4NX        -0.2738
     27 C46         6.7200    1.8640  -30.1790 C.ar      1 4NX         0.0684
     28 C45         5.6300    2.5160  -29.4160 C.ar      1 4NX        -0.0151
     29 C56         6.4630    1.4550  -31.4760 C.ar      1 4NX        -0.0279
     30 C57         5.1950    1.6680  -32.0090 C.ar      1 4NX         0.0265
     31 CL3         4.8870    1.1600  -33.6870 Cl        1 4NX        -0.0793
     32 C58         4.1580    2.2890  -31.2970 C.ar      1 4NX        -0.0641
     33 C59         4.3750    2.7020  -29.9880 C.ar      1 4NX        -0.0725
     34 H1         12.0057    4.0062  -25.4839 H         1 4NX         0.0611
     35 H2         10.2037    4.9800  -26.8835 H         1 4NX         0.0578
     36 H3          9.0804    2.5834  -22.6763 H         1 4NX         0.0611
     37 H4          7.2740    3.5633  -24.0583 H         1 4NX         0.0578
     38 H5          7.8369    4.8481  -27.4738 H         1 4NX         0.0830
     39 H6          7.5132    6.0654  -26.1932 H         1 4NX         0.0830
     40 H7          2.2491    3.5944  -27.0393 H         1 4NX         0.1886
     41 H8          4.0370    1.1978  -26.9461 H         1 4NX         0.0314
     42 H9          2.9169    1.7226  -25.6435 H         1 4NX         0.0314
     43 H10         6.1237    0.2591  -26.3687 H         1 4NX         0.0557
     44 H11         7.7979   -0.4606  -24.6844 H         1 4NX         0.0606
     45 H12         3.9127    2.3554  -23.3997 H         1 4NX         0.0557
     46 H13         5.5117    1.5749  -21.6617 H         1 4NX         0.0606
     47 H14         8.3069    2.4200  -27.3630 H         1 4NX         0.1003
     48 H15         8.6959    1.3686  -29.6586 H         1 4NX         0.2303
     49 H16         7.2361    0.9769  -32.0667 H         1 4NX         0.0555
     50 H17         3.1930    2.4458  -31.7652 H         1 4NX         0.0524
     51 H18         3.5761    3.1636  -29.4191 H         1 4NX         0.0544
@<TRIPOS>BOND
     1    1    2 1  
     2    2    3 ar 
     3    2    5 ar 
     4    3    4 ar 
     5    4    7 ar 
     6    5    6 ar 
     7    6    7 ar 
     8    7    8 1  
     9    8    9 1  
    10    9   10 1  
    11    9   23 2  
    12   10   11 2  
    13   10   12 1  
    14   12   13 1  
    15   13   14 1  
    16   13   15 1  
    17   13   23 1  
    18   15   16 1  
    19   16   17 ar 
    20   16   19 ar 
    21   17   18 ar 
    22   18   21 ar 
    23   19   20 ar 
    24   20   21 ar 
    25   21   22 1  
    26   23   24 1  
    27   24   25 2  
    28   24   28 1  
    29   25   26 1  
    30   26   27 1  
    31   27   28 ar 
    32   27   29 ar 
    33   28   33 ar 
    34   29   30 ar 
    35   30   31 1  
    36   30   32 ar 
    37   32   33 ar 
    38    3   34 1  
    39    4   35 1  
    40    5   36 1  
    41    6   37 1  
    42    8   38 1  
    43    8   39 1  
    44   14   40 1  
    45   15   41 1  
    46   15   42 1  
    47   17   43 1  
    48   18   44 1  
    49   19   45 1  
    50   20   46 1  
    51   25   47 1  
    52   26   48 1  
    53   29   49 1  
    54   32   50 1  
    55   33   51 1  
@<TRIPOS>SUBSTRUCTURE
     1 4NX         1

