### 
### Created by X-TOOL on Mon Sep 10 21:13:25 2018
### 

@<TRIPOS>MOLECULE
4zh2_ligand
   31    32     1     0     0
SMALL
GAST_HUCK


@<TRIPOS>ATOM
      1 FAB        30.7100   96.5970    8.6600 F         1 4OB        -0.2200
      2 CAT        30.4170   97.8440    8.4050 C.3       1 4OB         0.3770
      3 FAC        29.8950   97.9430    7.2080 F         1 4OB        -0.2200
      4 FAD        29.5280   98.2180    9.2800 F         1 4OB        -0.2200
      5 CAS        31.5440   98.6010    8.5660 C.ar      1 4OB         0.0485
      6 CAM        32.1120   99.3720    7.5550 C.ar      1 4OB        -0.0206
      7 CAL        32.1130   98.5600    9.8180 C.ar      1 4OB        -0.0318
      8 CAH        33.2540   99.2880   10.0890 C.ar      1 4OB        -0.0318
      9 CAK        33.8230  100.0560    9.0910 C.ar      1 4OB        -0.0230
     10 CAR        33.2730  100.0900    7.8220 C.ar      1 4OB         0.0498
     11 CAP        33.9010  100.9070    6.8920 C.2       1 4OB         0.1604
     12 NAN        34.0100  102.1850    7.1950 N.2       1 4OB        -0.1644
     13 OAA        35.3430  102.7380    6.9100 O.3       1 4OB        -0.2768
     14 NAO        34.4680  100.4830    5.7640 N.pl3     1 4OB        -0.2641
     15 CAQ        34.5640   99.2320    5.3830 C.ar      1 4OB         0.0583
     16 CAI        33.8710   98.8410    4.2570 C.ar      1 4OB        -0.0400
     17 CAF        33.9880   97.5520    3.7830 C.ar      1 4OB        -0.0724
     18 CAE        34.8220   96.6640    4.4300 C.ar      1 4OB        -0.0742
     19 CAG        35.5350   97.0640    5.5420 C.ar      1 4OB        -0.0724
     20 CAJ        35.4190   98.3570    6.0160 C.ar      1 4OB        -0.0400
     21 H1         31.6553   99.4121    6.5727 H         1 4OB         0.0858
     22 H2         31.6631   97.9531   10.5953 H         1 4OB         0.0850
     23 H3         33.7000   99.2575   11.0765 H         1 4OB         0.0697
     24 H4         34.7114  100.6391    9.3051 H         1 4OB         0.0862
     25 H5         35.5315  102.6456    5.9834 H         1 4OB         0.2683
     26 H6         34.8647  101.1983    5.1379 H         1 4OB         0.2085
     27 H7         33.2320   99.5497    3.7428 H         1 4OB         0.0528
     28 H8         33.4290   97.2386    2.9087 H         1 4OB         0.0585
     29 H9         34.9178   95.6483    4.0637 H         1 4OB         0.0512
     30 H10        36.1887   96.3611    6.0457 H         1 4OB         0.0585
     31 H11        35.9945   98.6790    6.8764 H         1 4OB         0.0528
@<TRIPOS>BOND
     1    1    2 1  
     2    2    3 1  
     3    2    4 1  
     4    2    5 1  
     5    5    6 ar 
     6    5    7 ar 
     7    6   10 ar 
     8    7    8 ar 
     9    8    9 ar 
    10    9   10 ar 
    11   10   11 1  
    12   11   12 2  
    13   11   14 1  
    14   12   13 1  
    15   14   15 1  
    16   15   16 ar 
    17   15   20 ar 
    18   16   17 ar 
    19   17   18 ar 
    20   18   19 ar 
    21   19   20 ar 
    22    6   21 1  
    23    7   22 1  
    24    8   23 1  
    25    9   24 1  
    26   13   25 1  
    27   14   26 1  
    28   16   27 1  
    29   17   28 1  
    30   18   29 1  
    31   19   30 1  
    32   20   31 1  
@<TRIPOS>SUBSTRUCTURE
     1 4OB         1

