### 
### Created by X-TOOL on Mon Sep 10 21:13:25 2018
### 

@<TRIPOS>MOLECULE
4zh3_ligand
   31    32     1     0     0
SMALL
GAST_HUCK


@<TRIPOS>ATOM
      1 FAC        32.4140   95.9060    8.5190 F         1 4OD        -0.2243
      2 CAV        31.8970   97.0860    8.7070 C.3       1 4OD         0.3748
      3 FAD        31.2490   97.4530    7.6290 F         1 4OD        -0.2243
      4 FAE        31.0380   96.9890    9.7000 F         1 4OD        -0.2243
      5 CAU        32.9320   97.9510    9.0340 C.ar      1 4OD         0.0823
      6 CAM        33.4900   98.8080    8.0920 C.ar      1 4OD        -0.0223
      7 CAR        33.4350   97.9460   10.3190 C.ar      1 4OD         0.1705
      8 FAB        32.9740   97.2270   11.1280 F         1 4OD        -0.1539
      9 CAJ        34.4520   98.7870   10.6920 C.ar      1 4OD         0.0046
     10 CAK        34.9940   99.6360    9.7560 C.ar      1 4OD        -0.0239
     11 CAT        34.5340   99.6400    8.4580 C.ar      1 4OD         0.0459
     12 CAP        35.1340  100.5520    7.6120 C.2       1 4OD         0.1576
     13 NAO        35.3160  101.7650    8.0800 N.2       1 4OD        -0.1670
     14 OAA        36.5590  102.3550    7.6630 O.3       1 4OD        -0.2781
     15 NAN        35.5960  100.2970    6.3980 N.pl3     1 4OD        -0.2640
     16 CAS        35.5910   99.1380    5.7870 C.ar      1 4OD         0.0611
     17 CAL        36.4700   98.1760    6.2200 C.ar      1 4OD        -0.0303
     18 CAQ        36.5230   96.9780    5.5550 C.ar      1 4OD         0.0026
     19 BRF        37.6360   95.7570    6.1730 Br        1 4OD        -0.0531
     20 CAH        35.7390   96.7340    4.4480 C.ar      1 4OD        -0.0646
     21 CAG        34.8790   97.7160    3.9930 C.ar      1 4OD        -0.0696
     22 CAI        34.8160   98.9260    4.6580 C.ar      1 4OD        -0.0372
     23 H1         33.1097   98.8245    7.0770 H         1 4OD         0.0835
     24 H2         34.8234   98.7825   11.7104 H         1 4OD         0.0686
     25 H3         35.7928  100.3101   10.0432 H         1 4OD         0.0856
     26 H4         36.5810  102.4074    6.7147 H         1 4OD         0.2677
     27 H5         36.0007  101.0906    5.8810 H         1 4OD         0.2085
     28 H6         37.1117   98.3607    7.0739 H         1 4OD         0.0555
     29 H7         35.7963   95.7792    3.9380 H         1 4OD         0.0538
     30 H8         34.2590   97.5385    3.1217 H         1 4OD         0.0592
     31 H9         34.1600   99.7095    4.2962 H         1 4OD         0.0552
@<TRIPOS>BOND
     1    1    2 1  
     2    2    3 1  
     3    2    4 1  
     4    2    5 1  
     5    5    6 ar 
     6    5    7 ar 
     7    6   11 ar 
     8    7    8 1  
     9    7    9 ar 
    10    9   10 ar 
    11   10   11 ar 
    12   11   12 1  
    13   12   13 2  
    14   12   15 1  
    15   13   14 1  
    16   15   16 1  
    17   16   17 ar 
    18   16   22 ar 
    19   17   18 ar 
    20   18   19 1  
    21   18   20 ar 
    22   20   21 ar 
    23   21   22 ar 
    24    6   23 1  
    25    9   24 1  
    26   10   25 1  
    27   14   26 1  
    28   15   27 1  
    29   17   28 1  
    30   20   29 1  
    31   21   30 1  
    32   22   31 1  
@<TRIPOS>SUBSTRUCTURE
     1 4OD         1

