### 
### Created by X-TOOL on Mon Sep 10 21:13:25 2018
### 

@<TRIPOS>MOLECULE
4zh4_ligand
   32    34     1     0     0
SMALL
GAST_HUCK


@<TRIPOS>ATOM
      1 FAC        31.2670   96.7310    7.9150 F         1 4OE        -0.2248
      2 CAW        31.8850   96.4400    9.0220 C.3       1 4OE         0.3733
      3 FAD        32.3780   95.2710    8.9330 F         1 4OE        -0.2248
      4 FAE        31.0280   96.4530    9.9970 F         1 4OE        -0.2248
      5 CAU        32.9160   97.3400    9.3000 C.ar      1 4OE         0.0766
      6 CAM        33.3780   98.2810    8.3790 C.ar      1 4OE        -0.0340
      7 CAQ        33.4990   97.2700   10.5540 C.ar      1 4OE         0.1663
      8 FAB        33.0610   96.3840   11.4090 F         1 4OE        -0.1569
      9 CAH        34.5280   98.1290   10.9060 C.ar      1 4OE         0.0005
     10 CAK        34.9820   99.0650    9.9900 C.ar      1 4OE        -0.0340
     11 CAS        34.4140   99.1430    8.7260 C.ar      1 4OE        -0.0080
     12 CAT        34.8760  100.0600    7.8800 C.2       1 4OE         0.0132
     13 CAL        34.8930  101.3630    8.1080 C.2       1 4OE         0.0091
     14 NAN        35.4410  101.9280    7.0290 N.2       1 4OE        -0.2147
     15 NAO        35.7450  101.0710    6.2050 N.pl3     1 4OE        -0.2125
     16 CAV        35.4120   99.8800    6.6890 C.2       1 4OE         0.0983
     17 CAR        35.6060   98.7320    6.0520 C.ar      1 4OE         0.0086
     18 CAI        36.6880   97.9320    6.3890 C.ar      1 4OE        -0.0524
     19 CAF        36.9030   96.7350    5.7190 C.ar      1 4OE        -0.0268
     20 CAP        36.0380   96.3440    4.7080 C.ar      1 4OE         0.1335
     21 FAA        36.2460   95.2130    4.0780 F         1 4OE        -0.1824
     22 CAG        34.9580   97.1460    4.3650 C.ar      1 4OE        -0.0268
     23 CAJ        34.7430   98.3430    5.0350 C.ar      1 4OE        -0.0524
     24 H1         32.9301   98.3405    7.3936 H         1 4OE         0.0777
     25 H2         34.9751   98.0693   11.8917 H         1 4OE         0.0677
     26 H3         35.7853   99.7400   10.2624 H         1 4OE         0.0818
     27 H4         34.5316  101.8739    8.9992 H         1 4OE         0.0684
     28 H5         36.1851  101.2462    5.2904 H         1 4OE         0.2552
     29 H6         37.3662   98.2416    7.1760 H         1 4OE         0.0618
     30 H7         37.7455   96.1072    5.9857 H         1 4OE         0.0607
     31 H8         34.2830   96.8380    3.5747 H         1 4OE         0.0607
     32 H9         33.9032   98.9730    4.7650 H         1 4OE         0.0618
@<TRIPOS>BOND
     1    1    2 1  
     2    2    3 1  
     3    2    4 1  
     4    2    5 1  
     5    5    6 ar 
     6    5    7 ar 
     7    6   11 ar 
     8    7    8 1  
     9    7    9 ar 
    10    9   10 ar 
    11   10   11 ar 
    12   11   12 1  
    13   12   13 1  
    14   12   16 2  
    15   13   14 2  
    16   14   15 1  
    17   15   16 1  
    18   16   17 1  
    19   17   18 ar 
    20   17   23 ar 
    21   18   19 ar 
    22   19   20 ar 
    23   20   21 1  
    24   20   22 ar 
    25   22   23 ar 
    26    6   24 1  
    27    9   25 1  
    28   10   26 1  
    29   13   27 1  
    30   15   28 1  
    31   18   29 1  
    32   19   30 1  
    33   22   31 1  
    34   23   32 1  
@<TRIPOS>SUBSTRUCTURE
     1 4OE         1

