### 
### Created by X-TOOL on Sun Nov 13 14:27:13 2016
### 

@<TRIPOS>MOLECULE
4zhl_ligand
  150   153     1     0     0
SMALL
GAST_HUCK


@<TRIPOS>ATOM
      1 N           9.9320  -25.4950  -26.7110 N.4       1 CYS         0.2385
      2 CA          8.7570  -26.3330  -27.1070 C.3       1 CYS         0.0751
      3 C           9.1650  -27.5480  -27.9370 C.2       1 CYS         0.2300
      4 O           9.3080  -27.4450  -29.1640 O.2       1 CYS        -0.3905
      5 CB          7.7180  -25.5180  -27.8870 C.3       1 CYS         0.0643
      6 SG          6.5910  -24.5490  -26.8610 S.3       1 CYS        -0.0848
      7 N           9.3430  -28.7070  -27.2710 N.am      1 CYS        -0.2471
      8 CA          9.5750  -29.9850  -27.9480 C.3       1 CYS         0.1339
      9 C           8.4820  -30.2990  -28.9420 C.2       1 CYS         0.2041
     10 O           7.3480  -29.8420  -28.7770 O.2       1 CYS        -0.3944
     11 CB          9.5560  -30.9980  -26.8010 C.3       1 CYS        -0.0104
     12 CG          9.9890  -30.2220  -25.6160 C.3       1 CYS        -0.0281
     13 CD          9.4230  -28.8470  -25.8050 C.3       1 CYS         0.0371
     14 N           8.8110  -31.0820  -29.9630 N.am      1 CYS        -0.2640
     15 CA          7.8640  -31.3570  -31.0390 C.3       1 CYS         0.1282
     16 C           6.6310  -32.1230  -30.5510 C.2       1 CYS         0.2037
     17 O           5.5610  -32.0120  -31.1560 O.2       1 CYS        -0.3944
     18 CB          8.5430  -32.1180  -32.1730 C.3       1 CYS        -0.0244
     19 N           6.7930  -32.8990  -29.4760 N.am      1 CYS        -0.2621
     20 CA          5.7110  -33.7320  -28.9260 C.3       1 CYS         0.1390
     21 C           5.1470  -33.2190  -27.5830 C.2       1 CYS         0.2058
     22 O           4.5010  -33.9700  -26.8510 O.2       1 CYS        -0.3942
     23 CB          6.1880  -35.1790  -28.7420 C.3       1 CYS         0.0163
     24 CG          6.7210  -35.8880  -29.9790 C.ar      1 CYS        -0.0493
     25 CD1         6.3630  -35.4870  -31.2710 C.ar      1 CYS        -0.0685
     26 CD2         7.5390  -37.0090  -29.8460 C.ar      1 CYS        -0.0685
     27 CE1         6.8410  -36.1540  -32.3870 C.ar      1 CYS        -0.0398
     28 CE2         8.0180  -37.6870  -30.9590 C.ar      1 CYS        -0.0398
     29 CZ          7.6650  -37.2560  -32.2280 C.ar      1 CYS         0.0805
     30 OH          8.1320  -37.9310  -33.3370 O.3       1 CYS        -0.3376
     31 N           5.3780  -31.9500  -27.2620 N.am      1 CYS        -0.2614
     32 CA          4.7390  -31.3250  -26.0990 C.3       1 CYS         0.1539
     33 C           3.2240  -31.5250  -26.1320 C.2       1 CYS         0.2062
     34 O           2.6210  -31.6040  -27.2060 O.2       1 CYS        -0.3943
     35 CB          5.0390  -29.8230  -26.0590 C.3       1 CYS         0.0843
     36 OG          4.5270  -29.2200  -24.8800 O.3       1 CYS        -0.3903
     37 N           2.6140  -31.6210  -24.9520 N.am      1 CYS        -0.2637
     38 CA          1.1510  -31.6110  -24.8410 C.3       1 CYS         0.1311
     39 C           0.7260  -30.4100  -23.9930 C.2       1 CYS         0.2040
     40 O          -0.3140  -30.4200  -23.3300 O.2       1 CYS        -0.3944
     41 CB          0.6570  -32.9470  -24.2740 C.3       1 CYS        -0.0092
     42 CG          0.7420  -34.0620  -25.3080 C.3       1 CYS        -0.0156
     43 CD          0.2070  -35.4000  -24.8130 C.3       1 CYS         0.0627
     44 NE          0.2060  -36.3770  -25.8990 N.pl3     1 CYS        -0.2723
     45 CZ         -0.2450  -37.6220  -25.8090 C.cat     1 CYS         0.2882
     46 NH1        -0.7500  -38.0910  -24.6690 N.pl3     1 CYS        -0.2849
     47 NH2        -0.2030  -38.4060  -26.8790 N.pl3     1 CYS        -0.2849
     48 N           1.5590  -29.3730  -24.0430 N.am      1 CYS        -0.2621
     49 CA          1.3560  -28.1500  -23.2820 C.3       1 CYS         0.1390
     50 C           0.5480  -27.1740  -24.1050 C.2       1 CYS         0.2057
     51 O           0.8180  -26.9840  -25.3070 O.2       1 CYS        -0.3942
     52 CB          2.7100  -27.5380  -22.9370 C.3       1 CYS         0.0163
     53 CG          2.6750  -26.2070  -22.1890 C.ar      1 CYS        -0.0493
     54 CD1         1.8570  -26.0180  -21.0780 C.ar      1 CYS        -0.0685
     55 CD2         3.4940  -25.1490  -22.5880 C.ar      1 CYS        -0.0685
     56 CE1         1.8430  -24.8090  -20.4020 C.ar      1 CYS        -0.0398
     57 CE2         3.4970  -23.9440  -21.9110 C.ar      1 CYS        -0.0398
     58 CZ          2.6660  -23.7720  -20.8240 C.ar      1 CYS         0.0805
     59 OH          2.6730  -22.5600  -20.1750 O.3       1 CYS        -0.3376
     60 N          -0.4550  -26.5720  -23.4590 N.am      1 CYS        -0.2633
     61 CA         -1.2350  -25.4790  -24.0520 C.3       1 CYS         0.1335
     62 C          -0.3580  -24.4070  -24.6990 C.2       1 CYS         0.2040
     63 O          -0.6680  -23.9210  -25.7910 O.2       1 CYS        -0.3944
     64 CB         -2.1260  -24.7880  -22.9940 C.3       1 CYS        -0.0037
     65 CG1        -3.4010  -25.5870  -22.8100 C.3       1 CYS        -0.0491
     66 CG2        -2.4970  -23.3650  -23.4140 C.3       1 CYS        -0.0582
     67 CD1        -4.2610  -25.1160  -21.6630 C.3       1 CYS        -0.0648
     68 N           0.7200  -24.0290  -24.0140 N.am      1 CYS        -0.2664
     69 CA          1.6120  -22.9760  -24.5040 C.3       1 CYS         0.1201
     70 C           2.3390  -23.2840  -25.8060 C.2       1 CYS         0.2002
     71 O           2.8230  -22.3660  -26.4680 O.2       1 CYS        -0.3947
     72 N           2.4370  -24.5650  -26.1600 N.am      1 CYS        -0.2689
     73 CA          3.0380  -24.9850  -27.4280 C.3       1 CYS         0.1041
     74 C           1.9530  -25.3920  -28.4150 C.2       1 CYS         0.0609
     75 O           2.0510  -25.0950  -29.6060 O.co2     1 CYS        -0.5666
     76 CB          4.0080  -26.1600  -27.2210 C.3       1 CYS         0.0388
     77 SG          5.3150  -25.9010  -25.9890 S.3       1 CYS        -0.0887
     78 OXT         0.9670  -26.0220  -28.0320 O.co2     1 CYS        -0.5666
     79 H1          9.6151  -24.7078  -26.1669 H         1 CYS         0.2015
     80 H2         10.4026  -25.1638  -27.5385 H         1 CYS         0.2015
     81 H3         10.5696  -26.0489  -26.1608 H         1 CYS         0.2015
     82 H4          8.2834  -26.6962  -26.1830 H         1 CYS         0.1107
     83 H5          7.1180  -26.2156  -28.4897 H         1 CYS         0.0466
     84 H6          8.2550  -24.8264  -28.5528 H         1 CYS         0.0466
     85 H7         10.5479  -29.9849  -28.4612 H         1 CYS         0.0802
     86 H8         10.2533  -31.8250  -27.0006 H         1 CYS         0.0313
     87 H9          8.5428  -31.4001  -26.6537 H         1 CYS         0.0313
     88 H10        11.0870  -30.1813  -25.5640 H         1 CYS         0.0287
     89 H11         9.5949  -30.6760  -24.6948 H         1 CYS         0.0287
     90 H12         8.4261  -28.7657  -25.3471 H         1 CYS         0.0524
     91 H13        10.0883  -28.0850  -25.3728 H         1 CYS         0.0524
     92 H14         9.7233  -31.4902  -29.9951 H         1 CYS         0.1883
     93 H15         7.5212  -30.3899  -31.4355 H         1 CYS         0.0797
     94 H16         7.8126  -32.3144  -32.9717 H         1 CYS         0.0277
     95 H17         8.9344  -33.0725  -31.7913 H         1 CYS         0.0277
     96 H18         9.3717  -31.5160  -32.5740 H         1 CYS         0.0277
     97 H19         7.6860  -32.9148  -29.0263 H         1 CYS         0.1885
     98 H20         4.8892  -33.7279  -29.6572 H         1 CYS         0.0821
     99 H21         5.3371  -35.7644  -28.3636 H         1 CYS         0.0453
    100 H22         6.9913  -35.1717  -27.9905 H         1 CYS         0.0453
    101 H23         5.6999  -34.6394  -31.4008 H         1 CYS         0.0530
    102 H24         7.8061  -37.3579  -28.8550 H         1 CYS         0.0530
    103 H25         6.5713  -35.8149  -33.3807 H         1 CYS         0.0525
    104 H26         8.6644  -38.5485  -30.8361 H         1 CYS         0.0525
    105 H27         7.8017  -37.5126  -34.1234 H         1 CYS         0.2458
    106 H28         6.0017  -31.4090  -27.8263 H         1 CYS         0.1884
    107 H29         5.1394  -31.7930  -25.1876 H         1 CYS         0.0823
    108 H30         4.5777  -29.3432  -26.9348 H         1 CYS         0.0606
    109 H31         6.1286  -29.6754  -26.0914 H         1 CYS         0.0606
    110 H32         4.9250  -29.6266  -24.1192 H         1 CYS         0.2097
    111 H33         3.1661  -31.7018  -24.1221 H         1 CYS         0.1883
    112 H34         0.7213  -31.4901  -25.8463 H         1 CYS         0.0800
    113 H35        -0.3900  -32.8344  -23.9561 H         1 CYS         0.0313
    114 H36         1.2766  -33.2172  -23.4062 H         1 CYS         0.0313
    115 H37         1.7968  -34.1933  -25.5909 H         1 CYS         0.0301
    116 H38         0.1601  -33.7610  -26.1916 H         1 CYS         0.0301
    117 H39        -0.8206  -35.2662  -24.4440 H         1 CYS         0.0689
    118 H40         0.8454  -35.7664  -23.9955 H         1 CYS         0.0689
    119 H41         0.5858  -36.0754  -26.8077 H         1 CYS         0.2642
    120 H42        -1.0951  -39.0602  -24.6188 H         1 CYS         0.2615
    121 H43        -0.7954  -37.4844  -23.8378 H         1 CYS         0.2615
    122 H44         0.1862  -38.0497  -27.7636 H         1 CYS         0.2615
    123 H45        -0.5596  -39.3708  -26.8249 H         1 CYS         0.2615
    124 H46         2.3640  -29.4379  -24.6327 H         1 CYS         0.1885
    125 H47         0.8130  -28.3818  -22.3539 H         1 CYS         0.0821
    126 H48         3.2571  -27.3802  -23.8782 H         1 CYS         0.0453
    127 H49         3.2559  -28.2603  -22.3122 H         1 CYS         0.0453
    128 H50         1.2224  -26.8282  -20.7374 H         1 CYS         0.0530
    129 H51         4.1419  -25.2754  -23.4478 H         1 CYS         0.0530
    130 H52         1.1918  -24.6723  -19.5462 H         1 CYS         0.0525
    131 H53         4.1484  -23.1393  -22.2324 H         1 CYS         0.0525
    132 H54         2.0570  -22.5855  -19.4523 H         1 CYS         0.2458
    133 H55        -0.6833  -26.8783  -22.5348 H         1 CYS         0.1883
    134 H56        -1.8820  -25.9128  -24.8287 H         1 CYS         0.0803
    135 H57        -1.5788  -24.7482  -22.0406 H         1 CYS         0.0345
    136 H58        -3.1280  -26.6371  -22.6289 H         1 CYS         0.0267
    137 H59        -3.9904  -25.5158  -23.7360 H         1 CYS         0.0267
    138 H60        -1.5804  -22.7726  -23.5514 H         1 CYS         0.0235
    139 H61        -3.1188  -22.9026  -22.6333 H         1 CYS         0.0235
    140 H62        -3.0585  -23.3963  -24.3594 H         1 CYS         0.0235
    141 H63        -5.1615  -25.7443  -21.5979 H         1 CYS         0.0230
    142 H64        -4.5555  -24.0696  -21.8311 H         1 CYS         0.0230
    143 H65        -3.6930  -25.1908  -20.7240 H         1 CYS         0.0230
    144 H66         0.9254  -24.4755  -23.1431 H         1 CYS         0.1881
    145 H67         2.3699  -22.7868  -23.7296 H         1 CYS         0.0763
    146 H68         1.0109  -22.0678  -24.6585 H         1 CYS         0.0763
    147 H69         2.0875  -25.2650  -25.5373 H         1 CYS         0.1876
    148 H70         3.5984  -24.1360  -27.8465 H         1 CYS         0.0734
    149 H71         4.4917  -26.3718  -28.1860 H         1 CYS         0.0425
    150 H72         3.4174  -27.0334  -26.9073 H         1 CYS         0.0425
@<TRIPOS>BOND
     1    1    2 1  
     2    2    3 1  
     3    2    5 1  
     4    3    4 2  
     5    3    7 am 
     6    5    6 1  
     7    6   77 1  
     8    7    8 1  
     9    7   13 1  
    10    8    9 1  
    11    8   11 1  
    12    9   10 2  
    13    9   14 am 
    14   11   12 1  
    15   12   13 1  
    16   14   15 1  
    17   15   16 1  
    18   15   18 1  
    19   16   17 2  
    20   16   19 am 
    21   19   20 1  
    22   20   21 1  
    23   20   23 1  
    24   21   22 2  
    25   21   31 am 
    26   23   24 1  
    27   24   25 ar 
    28   24   26 ar 
    29   25   27 ar 
    30   26   28 ar 
    31   27   29 ar 
    32   28   29 ar 
    33   29   30 1  
    34   31   32 1  
    35   32   33 1  
    36   32   35 1  
    37   33   34 2  
    38   33   37 am 
    39   35   36 1  
    40   37   38 1  
    41   38   39 1  
    42   38   41 1  
    43   39   40 2  
    44   39   48 am 
    45   41   42 1  
    46   42   43 1  
    47   43   44 1  
    48   44   45 ar 
    49   45   46 ar 
    50   45   47 ar 
    51   48   49 1  
    52   49   50 1  
    53   49   52 1  
    54   50   51 2  
    55   50   60 am 
    56   52   53 1  
    57   53   54 ar 
    58   53   55 ar 
    59   54   56 ar 
    60   55   57 ar 
    61   56   58 ar 
    62   57   58 ar 
    63   58   59 1  
    64   60   61 1  
    65   61   62 1  
    66   61   64 1  
    67   62   63 2  
    68   62   68 am 
    69   64   65 1  
    70   64   66 1  
    71   65   67 1  
    72   68   69 1  
    73   69   70 1  
    74   70   71 2  
    75   70   72 am 
    76   72   73 1  
    77   73   74 1  
    78   73   76 1  
    79   74   75 ar 
    80   74   78 ar 
    81   76   77 1  
    82    1   79 1  
    83    1   80 1  
    84    1   81 1  
    85    2   82 1  
    86    5   83 1  
    87    5   84 1  
    88    8   85 1  
    89   11   86 1  
    90   11   87 1  
    91   12   88 1  
    92   12   89 1  
    93   13   90 1  
    94   13   91 1  
    95   14   92 1  
    96   15   93 1  
    97   18   94 1  
    98   18   95 1  
    99   18   96 1  
   100   19   97 1  
   101   20   98 1  
   102   23   99 1  
   103   23  100 1  
   104   25  101 1  
   105   26  102 1  
   106   27  103 1  
   107   28  104 1  
   108   30  105 1  
   109   31  106 1  
   110   32  107 1  
   111   35  108 1  
   112   35  109 1  
   113   36  110 1  
   114   37  111 1  
   115   38  112 1  
   116   41  113 1  
   117   41  114 1  
   118   42  115 1  
   119   42  116 1  
   120   43  117 1  
   121   43  118 1  
   122   44  119 1  
   123   46  120 1  
   124   46  121 1  
   125   47  122 1  
   126   47  123 1  
   127   48  124 1  
   128   49  125 1  
   129   52  126 1  
   130   52  127 1  
   131   54  128 1  
   132   55  129 1  
   133   56  130 1  
   134   57  131 1  
   135   59  132 1  
   136   60  133 1  
   137   61  134 1  
   138   64  135 1  
   139   65  136 1  
   140   65  137 1  
   141   66  138 1  
   142   66  139 1  
   143   66  140 1  
   144   67  141 1  
   145   67  142 1  
   146   67  143 1  
   147   68  144 1  
   148   69  145 1  
   149   69  146 1  
   150   72  147 1  
   151   73  148 1  
   152   76  149 1  
   153   76  150 1  
@<TRIPOS>SUBSTRUCTURE
     1 CYS         1

