### 
### Created by X-TOOL on Sun Nov 13 14:28:45 2016
### 

@<TRIPOS>MOLECULE
4zhm_ligand
  136   139     1     0     0
SMALL
GAST_HUCK


@<TRIPOS>ATOM
      1 N           9.8510  -25.0650  -27.5740 N.4       1 CYS         0.2385
      2 CA          8.7720  -26.0860  -27.4020 C.3       1 CYS         0.0751
      3 C           9.1490  -27.4010  -28.0820 C.2       1 CYS         0.2300
      4 O           9.3420  -27.4310  -29.2990 O.2       1 CYS        -0.3905
      5 CB          7.4580  -25.5680  -27.9830 C.3       1 CYS         0.0643
      6 SG          6.5740  -24.4300  -26.8910 S.3       1 CYS        -0.0848
      7 N           9.2520  -28.4960  -27.3010 N.am      1 CYS        -0.2471
      8 CA          9.4910  -29.8000  -27.9200 C.3       1 CYS         0.1339
      9 C           8.3840  -30.1650  -28.8980 C.2       1 CYS         0.2041
     10 O           7.2240  -29.8180  -28.6730 O.2       1 CYS        -0.3944
     11 CB          9.5070  -30.7670  -26.7310 C.3       1 CYS        -0.0104
     12 CG          9.8720  -29.9240  -25.5660 C.3       1 CYS        -0.0281
     13 CD          9.2860  -28.5710  -25.8300 C.3       1 CYS         0.0371
     14 N           8.7420  -30.8510  -29.9790 N.am      1 CYS        -0.2640
     15 CA          7.7830  -31.1590  -31.0360 C.3       1 CYS         0.1282
     16 C           6.5750  -31.9550  -30.5220 C.2       1 CYS         0.2037
     17 O           5.4940  -31.8710  -31.1000 O.2       1 CYS        -0.3944
     18 CB          8.4680  -31.8960  -32.1800 C.3       1 CYS        -0.0244
     19 N           6.7640  -32.7120  -29.4400 N.am      1 CYS        -0.2621
     20 CA          5.6980  -33.5320  -28.8590 C.3       1 CYS         0.1390
     21 C           5.1890  -32.9720  -27.5270 C.2       1 CYS         0.2058
     22 O           4.6590  -33.7000  -26.6770 O.2       1 CYS        -0.3942
     23 CB          6.1810  -34.9820  -28.7340 C.3       1 CYS         0.0163
     24 CG          6.7120  -35.5500  -30.0470 C.ar      1 CYS        -0.0493
     25 CD1         6.2970  -35.0340  -31.2850 C.ar      1 CYS        -0.0685
     26 CD2         7.6120  -36.6120  -30.0610 C.ar      1 CYS        -0.0685
     27 CE1         6.7780  -35.5390  -32.4800 C.ar      1 CYS        -0.0398
     28 CE2         8.0840  -37.1310  -31.2630 C.ar      1 CYS        -0.0398
     29 CZ          7.6710  -36.5820  -32.4640 C.ar      1 CYS         0.0805
     30 OH          8.1360  -37.0750  -33.6610 O.3       1 CYS        -0.3376
     31 N           5.3260  -31.6600  -27.3630 N.am      1 CYS        -0.2614
     32 CA          4.6740  -30.9780  -26.2710 C.3       1 CYS         0.1539
     33 C           3.1680  -31.2230  -26.3800 C.2       1 CYS         0.2062
     34 O           2.5660  -31.1180  -27.4450 O.2       1 CYS        -0.3943
     35 CB          4.9610  -29.4810  -26.3070 C.3       1 CYS         0.0843
     36 OG          4.3950  -28.8200  -25.1850 O.3       1 CYS        -0.3903
     37 N           2.6290  -31.3260  -25.2700 N.am      1 CYS        -0.2639
     38 CA          1.2420  -31.2440  -24.8250 C.3       1 CYS         0.1282
     39 C           1.0090  -29.9430  -24.0910 C.2       1 CYS         0.2037
     40 O          -0.0620  -29.7420  -23.6070 O.2       1 CYS        -0.3944
     41 CB          0.8150  -32.3860  -23.9180 C.3       1 CYS        -0.0244
     42 N           1.8400  -28.7480  -23.8110 N.am      1 CYS        -0.2621
     43 CA          1.5440  -27.4650  -23.1820 C.3       1 CYS         0.1390
     44 C           0.6150  -26.6370  -24.0630 C.2       1 CYS         0.2057
     45 O           0.8300  -26.5220  -25.2860 O.2       1 CYS        -0.3942
     46 CB          2.8650  -26.7560  -22.9360 C.3       1 CYS         0.0163
     47 CG          2.7650  -25.4770  -22.1690 C.ar      1 CYS        -0.0493
     48 CD1         1.8830  -25.3390  -21.0950 C.ar      1 CYS        -0.0685
     49 CD2         3.5810  -24.4050  -22.4890 C.ar      1 CYS        -0.0685
     50 CE1         1.8110  -24.1570  -20.3880 C.ar      1 CYS        -0.0398
     51 CE2         3.5150  -23.2250  -21.7900 C.ar      1 CYS        -0.0398
     52 CZ          2.6290  -23.1030  -20.7450 C.ar      1 CYS         0.0805
     53 OH          2.5810  -21.9170  -20.0580 O.3       1 CYS        -0.3376
     54 N          -0.4240  -26.0770  -23.4380 N.am      1 CYS        -0.2633
     55 CA         -1.3220  -25.1000  -24.0870 C.3       1 CYS         0.1335
     56 C          -0.5140  -24.0400  -24.8430 C.2       1 CYS         0.2040
     57 O          -0.8620  -23.6550  -25.9640 O.2       1 CYS        -0.3944
     58 CB         -2.2010  -24.3330  -23.0590 C.3       1 CYS        -0.0037
     59 CG1        -3.0770  -25.2700  -22.2350 C.3       1 CYS        -0.0491
     60 CG2        -3.0950  -23.3010  -23.7490 C.3       1 CYS        -0.0582
     61 CD1        -4.1500  -25.9590  -23.0260 C.3       1 CYS        -0.0648
     62 N           0.5670  -23.5770  -24.2220 N.am      1 CYS        -0.2664
     63 CA          1.3780  -22.5040  -24.7820 C.3       1 CYS         0.1201
     64 C           2.3320  -22.8700  -25.9080 C.2       1 CYS         0.2002
     65 O           3.1360  -22.0300  -26.3020 O.2       1 CYS        -0.3947
     66 N           2.2750  -24.1090  -26.4100 N.am      1 CYS        -0.2689
     67 CA          3.1440  -24.5480  -27.5080 C.3       1 CYS         0.1041
     68 C           2.3610  -24.7450  -28.8040 C.2       1 CYS         0.0609
     69 O           1.2080  -25.1740  -28.7800 O.co2     1 CYS        -0.5666
     70 CB          3.8800  -25.8430  -27.1410 C.3       1 CYS         0.0388
     71 SG          5.2280  -25.6370  -25.9530 S.3       1 CYS        -0.0887
     72 OXT         2.8720  -24.4780  -29.8910 O.co2     1 CYS        -0.5666
     73 H1          9.5789  -24.2085  -27.1175 H         1 CYS         0.2015
     74 H2          9.9955  -24.8910  -28.5563 H         1 CYS         0.2015
     75 H3         10.7059  -25.4072  -27.1641 H         1 CYS         0.2015
     76 H4          8.6353  -26.2725  -26.3266 H         1 CYS         0.1107
     77 H5          6.8055  -26.4298  -28.1868 H         1 CYS         0.0466
     78 H6          7.6781  -25.0439  -28.9247 H         1 CYS         0.0466
     79 H7         10.4574  -29.8096  -28.4452 H         1 CYS         0.0802
     80 H8         10.2538  -31.5597  -26.8855 H         1 CYS         0.0313
     81 H9          8.5154  -31.2205  -26.5863 H         1 CYS         0.0313
     82 H10        10.9659  -29.8544  -25.4733 H         1 CYS         0.0287
     83 H11         9.4519  -30.3478  -24.6419 H         1 CYS         0.0287
     84 H12         8.2733  -28.4914  -25.4081 H         1 CYS         0.0524
     85 H13         9.9217  -27.7777  -25.4098 H         1 CYS         0.0524
     86 H14         9.6878  -31.1626  -30.0701 H         1 CYS         0.1883
     87 H15         7.4054  -30.2034  -31.4287 H         1 CYS         0.0797
     88 H16         7.7312  -32.1193  -32.9656 H         1 CYS         0.0277
     89 H17         8.8997  -32.8355  -31.8046 H         1 CYS         0.0277
     90 H18         9.2676  -31.2654  -32.5958 H         1 CYS         0.0277
     91 H19         7.6666  -32.7201  -29.0096 H         1 CYS         0.1885
     92 H20         4.8498  -33.5216  -29.5593 H         1 CYS         0.0821
     93 H21         5.3383  -35.6043  -28.3985 H         1 CYS         0.0453
     94 H22         6.9858  -35.0199  -27.9851 H         1 CYS         0.0453
     95 H23         5.5819  -34.2196  -31.3051 H         1 CYS         0.0530
     96 H24         7.9494  -37.0400  -29.1240 H         1 CYS         0.0530
     97 H25         6.4521  -35.1141  -33.4225 H         1 CYS         0.0525
     98 H26         8.7755  -37.9658  -31.2583 H         1 CYS         0.0525
     99 H27         7.7506  -36.5826  -34.3761 H         1 CYS         0.2458
    100 H28         5.8883  -31.1386  -28.0048 H         1 CYS         0.1884
    101 H29         5.0425  -31.3873  -25.3188 H         1 CYS         0.0823
    102 H30         4.5327  -29.0561  -27.2268 H         1 CYS         0.0606
    103 H31         6.0498  -29.3247  -26.3032 H         1 CYS         0.0606
    104 H32         4.7644  -29.1800  -24.3872 H         1 CYS         0.2097
    105 H33         3.2759  -31.5009  -24.5277 H         1 CYS         0.1883
    106 H34         0.6032  -31.2646  -25.7202 H         1 CYS         0.0797
    107 H35        -0.2376  -32.2505  -23.6286 H         1 CYS         0.0277
    108 H36         1.4451  -32.3934  -23.0164 H         1 CYS         0.0277
    109 H37         0.9283  -33.3407  -24.4524 H         1 CYS         0.0277
    110 H38         2.7893  -28.8388  -24.1121 H         1 CYS         0.1885
    111 H39         1.0453  -27.6400  -22.2173 H         1 CYS         0.0821
    112 H40         3.3191  -26.5329  -23.9127 H         1 CYS         0.0453
    113 H41         3.5193  -27.4395  -22.3749 H         1 CYS         0.0453
    114 H42         1.2474  -26.1708  -20.8137 H         1 CYS         0.0530
    115 H43         4.2857  -24.4992  -23.3073 H         1 CYS         0.0530
    116 H44         1.1188  -24.0562  -19.5599 H         1 CYS         0.0525
    117 H45         4.1573  -22.3946  -22.0601 H         1 CYS         0.0525
    118 H46         3.4321  -21.7394  -19.6752 H         1 CYS         0.2458
    119 H47        -0.6022  -26.3307  -22.4873 H         1 CYS         0.1883
    120 H48        -1.9730  -25.6394  -24.7907 H         1 CYS         0.0803
    121 H49        -1.5254  -23.8021  -22.3722 H         1 CYS         0.0345
    122 H50        -3.5579  -24.6826  -21.4390 H         1 CYS         0.0267
    123 H51        -2.4322  -26.0390  -21.7846 H         1 CYS         0.0267
    124 H52        -2.4731  -22.6187  -24.3471 H         1 CYS         0.0235
    125 H53        -3.6444  -22.7255  -22.9894 H         1 CYS         0.0235
    126 H54        -3.8102  -23.8167  -24.4066 H         1 CYS         0.0235
    127 H55        -4.7334  -26.6126  -22.3608 H         1 CYS         0.0230
    128 H56        -3.6887  -26.5630  -23.8213 H         1 CYS         0.0230
    129 H57        -4.8145  -25.2065  -23.4757 H         1 CYS         0.0230
    130 H58         0.8311  -23.9773  -23.3445 H         1 CYS         0.1881
    131 H59         1.9789  -22.0814  -23.9633 H         1 CYS         0.0763
    132 H60         0.6909  -21.7360  -25.1668 H         1 CYS         0.0763
    133 H61         1.6185  -24.7572  -26.0242 H         1 CYS         0.1876
    134 H62         3.8947  -23.7624  -27.6789 H         1 CYS         0.0734
    135 H63         4.2990  -26.2719  -28.0632 H         1 CYS         0.0425
    136 H64         3.1483  -26.5426  -26.7107 H         1 CYS         0.0425
@<TRIPOS>BOND
     1    1    2 1  
     2    2    3 1  
     3    2    5 1  
     4    3    4 2  
     5    3    7 am 
     6    5    6 1  
     7    6   71 1  
     8    7    8 1  
     9    7   13 1  
    10    8    9 1  
    11    8   11 1  
    12    9   10 2  
    13    9   14 am 
    14   11   12 1  
    15   12   13 1  
    16   14   15 1  
    17   15   16 1  
    18   15   18 1  
    19   16   17 2  
    20   16   19 am 
    21   19   20 1  
    22   20   21 1  
    23   20   23 1  
    24   21   22 2  
    25   21   31 am 
    26   23   24 1  
    27   24   25 ar 
    28   24   26 ar 
    29   25   27 ar 
    30   26   28 ar 
    31   27   29 ar 
    32   28   29 ar 
    33   29   30 1  
    34   31   32 1  
    35   32   33 1  
    36   32   35 1  
    37   33   34 2  
    38   33   37 am 
    39   35   36 1  
    40   37   38 1  
    41   38   39 1  
    42   38   41 1  
    43   39   40 2  
    44   39   42 am 
    45   42   43 1  
    46   43   44 1  
    47   43   46 1  
    48   44   45 2  
    49   44   54 am 
    50   46   47 1  
    51   47   48 ar 
    52   47   49 ar 
    53   48   50 ar 
    54   49   51 ar 
    55   50   52 ar 
    56   51   52 ar 
    57   52   53 1  
    58   54   55 1  
    59   55   56 1  
    60   55   58 1  
    61   56   57 2  
    62   56   62 am 
    63   58   59 1  
    64   58   60 1  
    65   59   61 1  
    66   62   63 1  
    67   63   64 1  
    68   64   65 2  
    69   64   66 am 
    70   66   67 1  
    71   67   68 1  
    72   67   70 1  
    73   68   69 ar 
    74   68   72 ar 
    75   70   71 1  
    76    1   73 1  
    77    1   74 1  
    78    1   75 1  
    79    2   76 1  
    80    5   77 1  
    81    5   78 1  
    82    8   79 1  
    83   11   80 1  
    84   11   81 1  
    85   12   82 1  
    86   12   83 1  
    87   13   84 1  
    88   13   85 1  
    89   14   86 1  
    90   15   87 1  
    91   18   88 1  
    92   18   89 1  
    93   18   90 1  
    94   19   91 1  
    95   20   92 1  
    96   23   93 1  
    97   23   94 1  
    98   25   95 1  
    99   26   96 1  
   100   27   97 1  
   101   28   98 1  
   102   30   99 1  
   103   31  100 1  
   104   32  101 1  
   105   35  102 1  
   106   35  103 1  
   107   36  104 1  
   108   37  105 1  
   109   38  106 1  
   110   41  107 1  
   111   41  108 1  
   112   41  109 1  
   113   42  110 1  
   114   43  111 1  
   115   46  112 1  
   116   46  113 1  
   117   48  114 1  
   118   49  115 1  
   119   50  116 1  
   120   51  117 1  
   121   53  118 1  
   122   54  119 1  
   123   55  120 1  
   124   58  121 1  
   125   59  122 1  
   126   59  123 1  
   127   60  124 1  
   128   60  125 1  
   129   60  126 1  
   130   61  127 1  
   131   61  128 1  
   132   61  129 1  
   133   62  130 1  
   134   63  131 1  
   135   63  132 1  
   136   66  133 1  
   137   67  134 1  
   138   70  135 1  
   139   70  136 1  
@<TRIPOS>SUBSTRUCTURE
     1 CYS         1

