### 
### Created by X-TOOL on Mon Sep 10 21:13:27 2018
### 

@<TRIPOS>MOLECULE
4zij_ligand
   29    30     1     0     0
SMALL
GAST_HUCK


@<TRIPOS>ATOM
      1 O3         -4.0470   27.8340    8.5580 O.co2     1 SFQ        -0.5662
      2 C13        -4.7400   27.6400    9.5560 C.2       1 SFQ         0.0531
      3 O4         -4.5380   26.7680   10.4460 O.co2     1 SFQ        -0.5662
      4 C8         -5.9630   28.4910    9.7290 C.ar      1 SFQ         0.0262
      5 C9         -6.0500   29.6510    8.9400 C.ar      1 SFQ        -0.0634
      6 C10        -7.1500   30.5000    9.0170 C.ar      1 SFQ        -0.0754
      7 C11        -8.1650   30.1860    9.8860 C.ar      1 SFQ        -0.0750
      8 C12        -8.0910   29.0370   10.6590 C.ar      1 SFQ        -0.0414
      9 C7         -7.0050   28.1740   10.6130 C.ar      1 SFQ         0.0780
     10 N1         -7.0230   26.9840   11.4800 N.am      1 SFQ        -0.1833
     11 S1         -7.1460   26.9180   13.1260 S.o2      1 SFQ         0.0916
     12 O1         -6.5440   25.7110   13.5810 O.2       1 SFQ        -0.1440
     13 O2         -8.4720   27.1760   13.5640 O.2       1 SFQ        -0.1440
     14 C4         -6.1700   28.2110   13.7990 C.ar      1 SFQ         0.1169
     15 C2         -4.8490   28.0470   14.1930 C.ar      1 SFQ        -0.0315
     16 C1         -4.0530   29.0740   14.7120 C.ar      1 SFQ        -0.0488
     17 C3         -4.6130   30.3200   14.8390 C.ar      1 SFQ         0.0096
     18 I1         -3.4770   31.8160   15.5790 I         1 SFQ        -0.0493
     19 C6         -5.9170   30.5760   14.4660 C.ar      1 SFQ        -0.0488
     20 C5         -6.6730   29.5170   13.9470 C.ar      1 SFQ        -0.0315
     21 H1         -5.2429   29.8894    8.2568 H         1 SFQ         0.0606
     22 H2         -7.2041   31.3916    8.4029 H         1 SFQ         0.0480
     23 H3         -9.0270   30.8381    9.9683 H         1 SFQ         0.0593
     24 H4         -8.9136   28.8038   11.3253 H         1 SFQ         0.0490
     25 H5         -6.9516   26.1029   11.0125 H         1 SFQ         0.2186
     26 H6         -4.4068   27.0624   14.0923 H         1 SFQ         0.0644
     27 H7         -3.0255   28.8908   15.0047 H         1 SFQ         0.0646
     28 H8         -6.3434   31.5670   14.5715 H         1 SFQ         0.0646
     29 H9         -7.6953   29.7131   13.6446 H         1 SFQ         0.0644
@<TRIPOS>BOND
     1    1    2 ar 
     2    2    3 ar 
     3    2    4 1  
     4    4    5 ar 
     5    4    9 ar 
     6    5    6 ar 
     7    6    7 ar 
     8    7    8 ar 
     9    8    9 ar 
    10    9   10 1  
    11   10   11 am 
    12   11   12 2  
    13   11   13 2  
    14   11   14 1  
    15   14   15 ar 
    16   14   20 ar 
    17   15   16 ar 
    18   16   17 ar 
    19   17   18 1  
    20   17   19 ar 
    21   19   20 ar 
    22    5   21 1  
    23    6   22 1  
    24    7   23 1  
    25    8   24 1  
    26   10   25 1  
    27   15   26 1  
    28   16   27 1  
    29   19   28 1  
    30   20   29 1  
@<TRIPOS>SUBSTRUCTURE
     1 SFQ         1

