### 
### Created by X-TOOL on Mon Sep 10 21:13:24 2018
### 

@<TRIPOS>MOLECULE
4zim_ligand
   51    55     1     0     0
SMALL
GAST_HUCK


@<TRIPOS>ATOM
      1 C13        -1.0590   44.6950    5.4900 C.ar      1 4OK         0.0374
      2 C18        -0.6730   49.1820   -1.6020 C.ar      1 4OK         0.0532
      3 C17        -1.0770   49.1200   -2.9290 C.ar      1 4OK         0.0528
      4 C16        -4.0170   44.8870    1.9450 C.ar      1 4OK         0.0893
      5 C15        -3.3200   44.1890    3.9610 C.ar      1 4OK         0.0726
      6 C19         0.2290   44.9140    6.2210 C.2       1 4OK         0.1992
      7 C20        -6.1440   44.7270    0.5770 C.2       1 4OK         0.1967
      8 C21        -0.9250   46.3760    7.9110 C.3       1 4OK         0.0566
      9 C22         1.3550   45.5980    8.2900 C.3       1 4OK         0.0566
     10 C23        -1.2980   45.8120    9.2530 C.3       1 4OK         0.0680
     11 C24         0.9010   45.0650    9.6240 C.3       1 4OK         0.0680
     12 C11        -2.2390   47.4450   -1.0230 C.ar      1 4OK        -0.0232
     13 C12        -2.8780   46.5950    0.0070 C.ar      1 4OK        -0.0230
     14 C1         -2.6080   47.3690   -2.3630 C.ar      1 4OK        -0.0560
     15 C2         -2.0870   43.8870    5.9880 C.ar      1 4OK        -0.0529
     16 C3         -3.2230   43.6250    5.2350 C.ar      1 4OK        -0.0340
     17 C4         -2.0390   48.1980   -3.3100 C.ar      1 4OK        -0.0485
     18 C5         -2.1730   46.2400    1.1560 C.ar      1 4OK        -0.0534
     19 C6         -1.1740   45.2570    4.2230 C.ar      1 4OK        -0.0465
     20 C7         -4.1820   46.1110   -0.1560 C.ar      1 4OK        -0.0431
     21 C8         -1.2520   48.3580   -0.6570 C.ar      1 4OK        -0.0422
     22 C9         -2.7290   45.4220    2.1310 C.ar      1 4OK         0.0066
     23 C10        -2.2930   44.9980    3.4390 C.ar      1 4OK         0.0053
     24 C14        -4.7520   45.2480    0.7920 C.ar      1 4OK         0.0732
     25 N25        -4.3570   44.1280    3.0480 N.pl3     1 4OK        -0.2671
     26 N26         0.2130   45.6240    7.3670 N.am      1 4OK        -0.2696
     27 N27        -6.7060   44.8640   -0.6510 N.am      1 4OK        -0.3018
     28 O28         1.2530   44.3970    5.8040 O.2       1 4OK        -0.3895
     29 O29        -6.7330   44.1680    1.5040 O.2       1 4OK        -0.3906
     30 O30        -0.1880   45.8340   10.1520 O.3       1 4OK        -0.3758
     31 CL1        -0.4650   50.2450   -4.1000 Cl        1 4OK        -0.0711
     32 CL2         0.5820   50.2690   -1.1020 Cl        1 4OK        -0.0705
     33 H1         -0.6465   47.4344    8.0219 H         1 4OK         0.0544
     34 H2         -1.7818   46.2920    7.2262 H         1 4OK         0.0544
     35 H3          2.1427   44.9473    7.8825 H         1 4OK         0.0544
     36 H4          1.7497   46.6170    8.4158 H         1 4OK         0.0544
     37 H5         -1.6340   44.7726    9.1240 H         1 4OK         0.0580
     38 H6         -2.1159   46.4116    9.6789 H         1 4OK         0.0580
     39 H7          1.7430   45.1051   10.3307 H         1 4OK         0.0580
     40 H8          0.5753   44.0216    9.5004 H         1 4OK         0.0580
     41 H9         -3.3555   46.6460   -2.6689 H         1 4OK         0.0610
     42 H10        -1.9945   43.4582    6.9793 H         1 4OK         0.0618
     43 H11        -4.0158   42.9978    5.6262 H         1 4OK         0.0554
     44 H12        -2.3439   48.1277   -4.3479 H         1 4OK         0.0619
     45 H13        -1.1641   46.6123    1.2921 H         1 4OK         0.0630
     46 H14        -0.3875   45.9000    3.8448 H         1 4OK         0.0639
     47 H15        -4.7580   46.4068   -1.0253 H         1 4OK         0.0640
     48 H16        -0.9361   48.4220    0.3780 H         1 4OK         0.0615
     49 H17        -5.2356   43.6044    3.1700 H         1 4OK         0.2201
     50 H18        -7.6318   44.5248   -0.8179 H         1 4OK         0.1804
     51 H19        -6.1942   45.3042   -1.3888 H         1 4OK         0.1804
@<TRIPOS>BOND
     1    1    6 1  
     2   15    1 ar 
     3    1   19 ar 
     4    2    3 ar 
     5   21    2 ar 
     6    2   32 1  
     7   17    3 ar 
     8    3   31 1  
     9   22    4 ar 
    10    4   24 ar 
    11    4   25 1  
    12    5   16 ar 
    13    5   23 ar 
    14   25    5 1  
    15    6   26 am 
    16    6   28 2  
    17   24    7 1  
    18    7   27 am 
    19    7   29 2  
    20    8   10 1  
    21   26    8 1  
    22    9   11 1  
    23   26    9 1  
    24   10   30 1  
    25   11   30 1  
    26   13   12 1  
    27   12   14 ar 
    28   12   21 ar 
    29   18   13 ar 
    30   13   20 ar 
    31   14   17 ar 
    32   16   15 ar 
    33   18   22 ar 
    34   19   23 ar 
    35   20   24 ar 
    36   22   23 1  
    37    8   33 1  
    38    8   34 1  
    39    9   35 1  
    40    9   36 1  
    41   10   37 1  
    42   10   38 1  
    43   11   39 1  
    44   11   40 1  
    45   14   41 1  
    46   15   42 1  
    47   16   43 1  
    48   17   44 1  
    49   18   45 1  
    50   19   46 1  
    51   20   47 1  
    52   21   48 1  
    53   25   49 1  
    54   27   50 1  
    55   27   51 1  
@<TRIPOS>SUBSTRUCTURE
     1 4OK         1

