### 
### Created by X-TOOL on Mon Sep 10 21:13:20 2018
### 

@<TRIPOS>MOLECULE
4zip_ligand
   95    98     1     0     0
SMALL
GAST_HUCK


@<TRIPOS>ATOM
      1 C2         20.9210   27.7670   14.9020 C.ar      1 G64         0.0908
      2 O39        21.5260   28.9720   14.6210 O.3       1 G64        -0.3212
      3 C40        22.9020   29.0060   14.9760 C.3       1 G64         0.0594
      4 C3         21.5450   26.6480   15.3930 C.ar      1 G64        -0.0313
      5 C4         20.7790   25.5190   15.6580 C.ar      1 G64        -0.0440
      6 C5         19.4140   25.4920   15.3900 C.ar      1 G64         0.0971
      7 C6         18.8220   26.5880   14.7940 C.ar      1 G64        -0.0440
      8 C7         19.5650   27.7000   14.4970 C.ar      1 G64        -0.0313
      9 S8         18.4640   24.0950   15.8240 S.o2      1 G64         0.0657
     10 O9         17.3720   23.9870   14.8900 O.2       1 G64        -0.1515
     11 O10        19.4000   22.9840   15.9680 O.2       1 G64        -0.1515
     12 N11        17.8040   24.3450   17.3230 N.am      1 G64        -0.2325
     13 C12        18.7410   24.6510   18.4030 C.3       1 G64         0.0319
     14 C13        18.4300   23.9830   19.7280 C.3       1 G64        -0.0296
     15 C14        18.4230   22.4810   19.5770 C.3       1 G64        -0.0612
     16 C15        19.4420   24.4410   20.7980 C.3       1 G64        -0.0612
     17 C16        16.5020   25.0110   17.3930 C.3       1 G64         0.0578
     18 C17        15.4060   24.0800   17.8810 C.3       1 G64         0.0967
     19 O18        14.2330   24.8130   18.2200 O.3       1 G64        -0.3877
     20 C19        15.0420   22.9690   16.8900 C.3       1 G64         0.0783
     21 N20        14.2070   21.9790   17.5660 N.am      1 G64        -0.2786
     22 C21        14.6550   20.8040   17.9850 C.2       1 G64         0.2049
     23 O22        15.8730   20.4860   18.0020 O.2       1 G64        -0.3846
     24 C32        14.2940   23.4600   15.6530 C.3       1 G64         0.0064
     25 C33        12.6580   21.7750   14.6860 C.ar      1 G64        -0.0603
     26 C34        12.4220   20.6160   13.9250 C.ar      1 G64        -0.0686
     27 C35        13.4000   19.9540   13.2520 C.ar      1 G64        -0.0687
     28 C36        14.6910   20.4930   13.2970 C.ar      1 G64        -0.0686
     29 C37        14.9820   21.6250   14.0230 C.ar      1 G64        -0.0603
     30 C38        13.9650   22.2890   14.7400 C.ar      1 G64        -0.0408
     31 C51        13.6020   19.8380   18.5020 C.ar      1 G64         0.0488
     32 C52        13.8230   19.1930   19.7140 C.ar      1 G64        -0.0367
     33 C53        12.8350   18.3100   20.2000 C.ar      1 G64        -0.0353
     34 C54        11.6820   18.1190   19.4710 C.ar      1 G64        -0.0367
     35 C55        11.5260   18.7240   18.2290 C.ar      1 G64         0.0491
     36 C56        12.4550   19.6420   17.7680 C.ar      1 G64        -0.0289
     37 C57        13.1010   17.6140   21.5320 C.3       1 G64        -0.0293
     38 C58        10.2510   18.5540   17.4140 C.2       1 G64         0.2077
     39 O59         9.2280   19.0070   17.9090 O.2       1 G64        -0.3843
     40 N60        10.2330   17.9860   16.2330 N.am      1 G64        -0.2703
     41 C61        11.4390   17.3370   15.6550 C.3       1 G64         0.0234
     42 C62         9.0290   18.0590   15.3290 C.3       1 G64         0.0545
     43 C63         9.2550   18.4960   13.8790 C.2       1 G64         0.0158
     44 N64         9.7270   17.6540   12.9240 N.2       1 G64        -0.3265
     45 C65         9.7770   18.2890   11.7840 C.2       1 G64         0.1624
     46 O66         9.4470   19.5920   11.9610 O.3       1 G64        -0.2401
     47 C67         9.1650   19.7290   13.3030 C.2       1 G64         0.1025
     48 C68         8.6080   21.0600   13.7820 C.3       1 G64        -0.0086
     49 C69        10.3220   17.7980   10.4570 C.3       1 G64         0.0197
     50 H1         23.3209   29.9918   14.7258 H         1 G64         0.0577
     51 H2         23.4434   28.2259   14.4207 H         1 G64         0.0577
     52 H3         23.0066   28.8266   16.0562 H         1 G64         0.0577
     53 H4         22.6143   26.6446   15.5707 H         1 G64         0.0542
     54 H5         21.2545   24.6420   16.0820 H         1 G64         0.0608
     55 H6         17.7638   26.5684   14.5599 H         1 G64         0.0608
     56 H7         19.1174   28.5249   13.9546 H         1 G64         0.0542
     57 H8         18.7371   25.7397   18.5603 H         1 G64         0.0480
     58 H9         19.7442   24.3299   18.0859 H         1 G64         0.0480
     59 H10        17.4259   24.2981   20.0481 H         1 G64         0.0311
     60 H11        18.1958   22.0160   20.5476 H         1 G64         0.0233
     61 H12        19.4107   22.1427   19.2306 H         1 G64         0.0233
     62 H13        17.6574   22.1898   18.8428 H         1 G64         0.0233
     63 H14        19.4185   25.5377   20.8793 H         1 G64         0.0233
     64 H15        20.4527   24.1163   20.5097 H         1 G64         0.0233
     65 H16        19.1766   23.9957   21.7682 H         1 G64         0.0233
     66 H17        16.2363   25.3754   16.3897 H         1 G64         0.0504
     67 H18        16.5768   25.8630   18.0847 H         1 G64         0.0504
     68 H19        15.7788   23.5944   18.7949 H         1 G64         0.0634
     69 H20        13.9202   25.2799   17.4540 H         1 G64         0.2100
     70 H21        15.9749   22.4893   16.5591 H         1 G64         0.0604
     71 H22        13.2442   22.2001   17.7212 H         1 G64         0.1851
     72 H23        14.9238   24.1793   15.1090 H         1 G64         0.0449
     73 H24        13.3605   23.9518   15.9640 H         1 G64         0.0449
     74 H25        11.8493   22.2614   15.2194 H         1 G64         0.0557
     75 H26        11.4098   20.2315   13.8726 H         1 G64         0.0599
     76 H27        13.1884   19.0442   12.7019 H         1 G64         0.0559
     77 H28        15.4848   20.0043   12.7437 H         1 G64         0.0599
     78 H29        15.9960   22.0077   14.0440 H         1 G64         0.0557
     79 H30        14.7352   19.3648   20.2739 H         1 G64         0.0642
     80 H31        10.8912   17.4930   19.8682 H         1 G64         0.0642
     81 H32        12.2824   20.1930   16.8506 H         1 G64         0.0665
     82 H33        14.0826   17.9253   21.9187 H         1 G64         0.0391
     83 H34        13.0942   16.5240   21.3840 H         1 G64         0.0391
     84 H35        12.3181   17.8911   22.2533 H         1 G64         0.0391
     85 H36        11.1959   16.9293   14.6627 H         1 G64         0.0487
     86 H37        11.7688   16.5216   16.3156 H         1 G64         0.0487
     87 H38        12.2447   18.0797   15.5589 H         1 G64         0.0487
     88 H39         8.3216   18.7703   15.7803 H         1 G64         0.0605
     89 H40         8.5756   17.0571   15.3036 H         1 G64         0.0605
     90 H41         8.7349   21.8159   12.9930 H         1 G64         0.0380
     91 H42         9.1475   21.3794   14.6858 H         1 G64         0.0380
     92 H43         7.5385   20.9479   14.0137 H         1 G64         0.0380
     93 H44        10.5251   16.7188   10.5208 H         1 G64         0.0469
     94 H45        11.2540   18.3332   10.2227 H         1 G64         0.0469
     95 H46         9.5823   17.9856    9.6648 H         1 G64         0.0469
@<TRIPOS>BOND
     1    1    2 1  
     2    4    1 ar 
     3    8    1 ar 
     4    2    3 1  
     5    5    4 ar 
     6    6    5 ar 
     7    6    7 ar 
     8    9    6 1  
     9    7    8 ar 
    10    9   10 2  
    11    9   11 2  
    12   12    9 am 
    13   12   13 1  
    14   17   12 1  
    15   13   14 1  
    16   14   15 1  
    17   14   16 1  
    18   18   17 1  
    19   18   19 1  
    20   20   18 1  
    21   20   21 1  
    22   24   20 1  
    23   21   22 am 
    24   22   23 2  
    25   22   31 1  
    26   30   24 1  
    27   25   26 ar 
    28   25   30 ar 
    29   26   27 ar 
    30   27   28 ar 
    31   28   29 ar 
    32   29   30 ar 
    33   31   32 ar 
    34   31   36 ar 
    35   32   33 ar 
    36   33   34 ar 
    37   33   37 1  
    38   34   35 ar 
    39   35   36 ar 
    40   35   38 1  
    41   38   39 2  
    42   38   40 am 
    43   40   41 1  
    44   40   42 1  
    45   42   43 1  
    46   43   44 1  
    47   43   47 2  
    48   44   45 2  
    49   45   46 1  
    50   45   49 1  
    51   46   47 1  
    52   47   48 1  
    53    3   50 1  
    54    3   51 1  
    55    3   52 1  
    56    4   53 1  
    57    5   54 1  
    58    7   55 1  
    59    8   56 1  
    60   13   57 1  
    61   13   58 1  
    62   14   59 1  
    63   15   60 1  
    64   15   61 1  
    65   15   62 1  
    66   16   63 1  
    67   16   64 1  
    68   16   65 1  
    69   17   66 1  
    70   17   67 1  
    71   18   68 1  
    72   19   69 1  
    73   20   70 1  
    74   21   71 1  
    75   24   72 1  
    76   24   73 1  
    77   25   74 1  
    78   26   75 1  
    79   27   76 1  
    80   28   77 1  
    81   29   78 1  
    82   32   79 1  
    83   34   80 1  
    84   36   81 1  
    85   37   82 1  
    86   37   83 1  
    87   37   84 1  
    88   41   85 1  
    89   41   86 1  
    90   41   87 1  
    91   42   88 1  
    92   42   89 1  
    93   48   90 1  
    94   48   91 1  
    95   48   92 1  
    96   49   93 1  
    97   49   94 1  
    98   49   95 1  
@<TRIPOS>SUBSTRUCTURE
     1 G64         1

