### 
### Created by X-TOOL on Sun Nov 13 14:28:45 2016
### 

@<TRIPOS>MOLECULE
4zj4_ligand
  150   153     1     0     0
SMALL
GAST_HUCK


@<TRIPOS>ATOM
      1 N         -33.3330  -11.0290   -2.3220 N.4       1 CYS         0.2385
      2 CA        -32.9550  -12.1130   -3.2830 C.3       1 CYS         0.0751
      3 C         -34.1840  -12.6860   -3.9930 C.2       1 CYS         0.2300
      4 O         -35.2360  -12.8440   -3.3670 O.2       1 CYS        -0.3905
      5 CB        -32.1700  -13.2300   -2.5790 C.3       1 CYS         0.0643
      6 SG        -32.8330  -13.7420   -0.9770 S.3       1 CYS        -0.0848
      7 N         -34.0570  -12.9890   -5.3040 N.am      1 CYS        -0.2471
      8 CA        -35.1490  -13.6050   -6.0750 C.3       1 CYS         0.1339
      9 C         -35.5720  -14.9800   -5.5580 C.2       1 CYS         0.2041
     10 O         -34.7650  -15.6960   -4.9620 O.2       1 CYS        -0.3944
     11 CB        -34.5580  -13.7450   -7.4840 C.3       1 CYS        -0.0104
     12 CG        -33.4710  -12.7410   -7.5540 C.3       1 CYS        -0.0281
     13 CD        -32.9180  -12.6230   -6.1670 C.3       1 CYS         0.0371
     14 N         -36.8240  -15.3460   -5.8290 N.am      1 CYS        -0.2640
     15 CA        -37.4170  -16.6000   -5.3590 C.3       1 CYS         0.1282
     16 C         -36.6610  -17.8640   -5.7890 C.2       1 CYS         0.2036
     17 O         -36.7450  -18.8870   -5.1090 O.2       1 CYS        -0.3944
     18 CB        -38.8690  -16.6930   -5.8150 C.3       1 CYS        -0.0244
     19 N         -35.9440  -17.8040   -6.9120 N.am      1 CYS        -0.2637
     20 CA        -35.1690  -18.9610   -7.3860 C.3       1 CYS         0.1311
     21 C         -34.0080  -19.3010   -6.4500 C.2       1 CYS         0.2040
     22 O         -33.5530  -20.4450   -6.4110 O.2       1 CYS        -0.3944
     23 CB        -34.6760  -18.7580   -8.8260 C.3       1 CYS        -0.0092
     24 CG        -33.6450  -17.6590   -9.0480 C.3       1 CYS        -0.0156
     25 CD        -33.4860  -17.3870  -10.5390 C.3       1 CYS         0.0627
     26 NE        -32.4490  -16.4050  -10.8560 N.pl3     1 CYS        -0.2723
     27 CZ        -32.6170  -15.0830  -10.8720 C.cat     1 CYS         0.2882
     28 NH1       -33.7920  -14.5310  -10.5690 N.pl3     1 CYS        -0.2849
     29 NH2       -31.5950  -14.2970  -11.1900 N.pl3     1 CYS        -0.2849
     30 N         -33.5590  -18.3370   -5.6710 N.am      1 CYS        -0.2619
     31 CA        -32.5350  -18.6110   -4.6360 C.3       1 CYS         0.1404
     32 C         -33.0180  -19.2000   -3.3310 C.2       1 CYS         0.2059
     33 O         -34.1450  -19.5020   -3.1950 O.2       1 CYS        -0.3942
     34 CB        -31.6600  -17.3850   -4.3820 C.3       1 CYS         0.0214
     35 CG        -30.9540  -16.9040   -5.6040 C.ar      1 CYS        -0.0386
     36 CD1       -31.5670  -16.0310   -6.4590 C.ar      1 CYS        -0.0601
     37 CD2       -29.6900  -17.3480   -5.9210 C.ar      1 CYS        -0.0601
     38 CE1       -30.9570  -15.6280   -7.6080 C.ar      1 CYS        -0.0686
     39 CE2       -29.0770  -16.9550   -7.0810 C.ar      1 CYS        -0.0686
     40 CZ        -29.7130  -16.0590   -7.9100 C.ar      1 CYS        -0.0687
     41 N         -32.1580  -19.8780   -2.4800 N.am      1 CYS        -0.2639
     42 CA        -32.5310  -20.8330   -1.4640 C.3       1 CYS         0.1282
     43 C         -32.3610  -20.3510   -0.0410 C.2       1 CYS         0.2036
     44 O         -32.8360  -20.9360    0.8420 O.2       1 CYS        -0.3944
     45 CB        -31.7930  -22.1630   -1.6870 C.3       1 CYS        -0.0244
     46 N         -32.0830  -19.0850    0.1320 N.am      1 CYS        -0.2640
     47 CA        -32.1030  -18.5770    1.4800 C.3       1 CYS         0.1282
     48 C         -33.5140  -18.3750    1.9830 C.2       1 CYS         0.2036
     49 O         -34.3580  -18.3280    1.2270 O.2       1 CYS        -0.3944
     50 CB        -31.2770  -17.3270    1.6090 C.3       1 CYS        -0.0244
     51 N         -33.7350  -18.3170    3.2900 N.am      1 CYS        -0.2637
     52 CA        -35.0870  -18.5600    3.7720 C.3       1 CYS         0.1312
     53 C         -36.0620  -17.4130    3.4810 C.2       1 CYS         0.2040
     54 O         -37.2730  -17.6100    3.5540 O.2       1 CYS        -0.3944
     55 CB        -35.0620  -18.8790    5.2690 C.3       1 CYS        -0.0101
     56 CG        -34.2570  -20.1250    5.6560 C.3       1 CYS        -0.0425
     57 CD1       -34.3680  -20.3810    7.1510 C.3       1 CYS        -0.0625
     58 CD2       -34.7030  -21.3520    4.8710 C.3       1 CYS        -0.0625
     59 N         -35.5460  -16.2310    3.1490 N.am      1 CYS        -0.2619
     60 CA        -36.3990  -15.0900    2.8110 C.3       1 CYS         0.1404
     61 C         -36.2240  -14.6120    1.3630 C.2       1 CYS         0.2054
     62 O         -36.5010  -13.4530    1.0420 O.2       1 CYS        -0.3942
     63 CB        -36.1470  -13.9500    3.7970 C.3       1 CYS         0.0214
     64 CG        -36.3330  -14.3500    5.2360 C.ar      1 CYS        -0.0386
     65 CD1       -37.5880  -14.2920    5.8290 C.ar      1 CYS        -0.0601
     66 CD2       -35.2570  -14.7910    5.9940 C.ar      1 CYS        -0.0601
     67 CE1       -37.7650  -14.6620    7.1520 C.ar      1 CYS        -0.0686
     68 CE2       -35.4270  -15.1640    7.3180 C.ar      1 CYS        -0.0686
     69 CZ        -36.6840  -15.0990    7.8970 C.ar      1 CYS        -0.0687
     70 N         -35.7350  -15.4690    0.5050 N.am      1 CYS        -0.2685
     71 CA        -35.6600  -15.1950   -0.8950 C.3       1 CYS         0.1041
     72 C         -37.0510  -15.3650   -1.4570 C.2       1 CYS         0.0609
     73 O         -37.7260  -16.2900   -1.1290 O.co2     1 CYS        -0.5666
     74 CB        -34.6830  -16.1780   -1.5300 C.3       1 CYS         0.0388
     75 SG        -32.9690  -15.8500   -1.0410 S.3       1 CYS        -0.0887
     76 OXT       -37.4890  -14.5760   -2.2350 O.co2     1 CYS        -0.5666
     77 H1        -32.5034  -10.6741   -1.8726 H         1 CYS         0.2015
     78 H2        -33.9595  -11.4009   -1.6254 H         1 CYS         0.2015
     79 H3        -33.7905  -10.2821   -2.8209 H         1 CYS         0.2015
     80 H4        -32.3001  -11.6695   -4.0475 H         1 CYS         0.1107
     81 H5        -31.1398  -12.8768   -2.4241 H         1 CYS         0.0466
     82 H6        -32.1608  -14.1089   -3.2404 H         1 CYS         0.0466
     83 H7        -36.0267  -12.9420   -6.0811 H         1 CYS         0.0802
     84 H8        -35.3241  -13.5370   -8.2455 H         1 CYS         0.0313
     85 H9        -34.1569  -14.7581   -7.6346 H         1 CYS         0.0313
     86 H10       -33.8687  -11.7717   -7.8892 H         1 CYS         0.0287
     87 H11       -32.6872  -13.0760   -8.2493 H         1 CYS         0.0287
     88 H12       -32.0762  -13.3156   -6.0202 H         1 CYS         0.0524
     89 H13       -32.5862  -11.5942   -5.9633 H         1 CYS         0.0524
     90 H14       -37.3881  -14.7328   -6.3820 H         1 CYS         0.1883
     91 H15       -37.4049  -16.5719   -4.2594 H         1 CYS         0.0797
     92 H16       -39.3057  -17.6372   -5.4577 H         1 CYS         0.0277
     93 H17       -38.9110  -16.6623   -6.9138 H         1 CYS         0.0277
     94 H18       -39.4378  -15.8467   -5.4025 H         1 CYS         0.0277
     95 H19       -35.9330  -16.9561   -7.4420 H         1 CYS         0.1883
     96 H20       -35.8481  -19.8263   -7.3906 H         1 CYS         0.0800
     97 H21       -35.5522  -18.5235   -9.4483 H         1 CYS         0.0313
     98 H22       -34.2304  -19.7058   -9.1624 H         1 CYS         0.0313
     99 H23       -32.6782  -17.9768   -8.6306 H         1 CYS         0.0301
    100 H24       -33.9779  -16.7399   -8.5436 H         1 CYS         0.0301
    101 H25       -34.4455  -17.0147  -10.9272 H         1 CYS         0.0689
    102 H26       -33.2308  -18.3333  -11.0383 H         1 CYS         0.0689
    103 H27       -31.5117  -16.7650  -11.0858 H         1 CYS         0.2642
    104 H28       -33.9000  -13.5068  -10.5876 H         1 CYS         0.2615
    105 H29       -34.5919  -15.1287  -10.3163 H         1 CYS         0.2615
    106 H30       -30.6816  -14.7102  -11.4262 H         1 CYS         0.2615
    107 H31       -31.7157  -13.2741  -11.2004 H         1 CYS         0.2615
    108 H32       -33.9142  -17.4086   -5.7801 H         1 CYS         0.1885
    109 H33       -31.8787  -19.3766   -5.0753 H         1 CYS         0.0823
    110 H34       -30.9075  -17.6438   -3.6226 H         1 CYS         0.0474
    111 H35       -32.2979  -16.5724   -4.0042 H         1 CYS         0.0474
    112 H36       -32.5543  -15.6535   -6.2186 H         1 CYS         0.0557
    113 H37       -29.1729  -18.0177   -5.2433 H         1 CYS         0.0557
    114 H38       -31.4733  -14.9568   -8.2848 H         1 CYS         0.0599
    115 H39       -28.1006  -17.3457   -7.3436 H         1 CYS         0.0599
    116 H40       -29.2162  -15.6997   -8.8040 H         1 CYS         0.0559
    117 H41       -31.1817  -19.6860   -2.5803 H         1 CYS         0.1883
    118 H42       -33.6051  -21.0287   -1.5985 H         1 CYS         0.0797
    119 H43       -32.0864  -22.8805   -0.9065 H         1 CYS         0.0277
    120 H44       -30.7074  -21.9925   -1.6389 H         1 CYS         0.0277
    121 H45       -32.0572  -22.5678   -2.6751 H         1 CYS         0.0277
    122 H46       -31.8646  -18.4915   -0.6426 H         1 CYS         0.1883
    123 H47       -31.6379  -19.3402    2.1212 H         1 CYS         0.0797
    124 H48       -31.3149  -16.9681    2.6481 H         1 CYS         0.0277
    125 H49       -31.6773  -16.5522    0.9386 H         1 CYS         0.0277
    126 H50       -30.2346  -17.5464    1.3347 H         1 CYS         0.0277
    127 H51       -32.9922  -18.1117    3.9273 H         1 CYS         0.1883
    128 H52       -35.4657  -19.4480    3.2447 H         1 CYS         0.0800
    129 H53       -36.0996  -19.0265    5.6032 H         1 CYS         0.0315
    130 H54       -34.6269  -18.0158    5.7940 H         1 CYS         0.0315
    131 H55       -33.2004  -19.9349    5.4165 H         1 CYS         0.0298
    132 H56       -33.7862  -21.2768    7.4138 H         1 CYS         0.0232
    133 H57       -35.4233  -20.5376    7.4189 H         1 CYS         0.0232
    134 H58       -33.9747  -19.5138    7.7017 H         1 CYS         0.0232
    135 H59       -34.6162  -21.1493    3.7933 H         1 CYS         0.0232
    136 H60       -35.7496  -21.5844    5.1172 H         1 CYS         0.0232
    137 H61       -34.0652  -22.2083    5.1355 H         1 CYS         0.0232
    138 H62       -34.5523  -16.1201    3.1301 H         1 CYS         0.1885
    139 H63       -37.4445  -15.4125    2.9247 H         1 CYS         0.0823
    140 H64       -36.8463  -13.1319    3.5697 H         1 CYS         0.0474
    141 H65       -35.1137  -13.5967    3.6644 H         1 CYS         0.0474
    142 H66       -38.4390  -13.9531    5.2493 H         1 CYS         0.0557
    143 H67       -34.2718  -14.8443    5.5450 H         1 CYS         0.0557
    144 H68       -38.7492  -14.6093    7.6032 H         1 CYS         0.0599
    145 H69       -34.5783  -15.5059    7.8993 H         1 CYS         0.0599
    146 H70       -36.8204  -15.3901    8.9322 H         1 CYS         0.0559
    147 H71       -35.4009  -16.3494    0.8415 H         1 CYS         0.1876
    148 H72       -35.3110  -14.1660   -1.0663 H         1 CYS         0.0734
    149 H73       -34.7608  -16.0981   -2.6243 H         1 CYS         0.0425
    150 H74       -34.9520  -17.1975   -1.2167 H         1 CYS         0.0425
@<TRIPOS>BOND
     1    1    2 1  
     2    2    3 1  
     3    2    5 1  
     4    3    4 2  
     5    3    7 am 
     6    5    6 1  
     7    6   75 1  
     8    7    8 1  
     9    7   13 1  
    10    8    9 1  
    11    8   11 1  
    12    9   10 2  
    13    9   14 am 
    14   11   12 1  
    15   12   13 1  
    16   14   15 1  
    17   15   16 1  
    18   15   18 1  
    19   16   17 2  
    20   16   19 am 
    21   19   20 1  
    22   20   21 1  
    23   20   23 1  
    24   21   22 2  
    25   21   30 am 
    26   23   24 1  
    27   24   25 1  
    28   25   26 1  
    29   26   27 ar 
    30   27   28 ar 
    31   27   29 ar 
    32   30   31 1  
    33   31   32 1  
    34   31   34 1  
    35   32   33 2  
    36   32   41 am 
    37   34   35 1  
    38   35   36 ar 
    39   35   37 ar 
    40   36   38 ar 
    41   37   39 ar 
    42   38   40 ar 
    43   39   40 ar 
    44   41   42 1  
    45   42   43 1  
    46   42   45 1  
    47   43   44 2  
    48   43   46 am 
    49   46   47 1  
    50   47   48 1  
    51   47   50 1  
    52   48   49 2  
    53   48   51 am 
    54   51   52 1  
    55   52   53 1  
    56   52   55 1  
    57   53   54 2  
    58   53   59 am 
    59   55   56 1  
    60   56   57 1  
    61   56   58 1  
    62   59   60 1  
    63   60   61 1  
    64   60   63 1  
    65   61   62 2  
    66   61   70 am 
    67   63   64 1  
    68   64   65 ar 
    69   64   66 ar 
    70   65   67 ar 
    71   66   68 ar 
    72   67   69 ar 
    73   68   69 ar 
    74   70   71 1  
    75   71   72 1  
    76   71   74 1  
    77   72   73 ar 
    78   72   76 ar 
    79   74   75 1  
    80    1   77 1  
    81    1   78 1  
    82    1   79 1  
    83    2   80 1  
    84    5   81 1  
    85    5   82 1  
    86    8   83 1  
    87   11   84 1  
    88   11   85 1  
    89   12   86 1  
    90   12   87 1  
    91   13   88 1  
    92   13   89 1  
    93   14   90 1  
    94   15   91 1  
    95   18   92 1  
    96   18   93 1  
    97   18   94 1  
    98   19   95 1  
    99   20   96 1  
   100   23   97 1  
   101   23   98 1  
   102   24   99 1  
   103   24  100 1  
   104   25  101 1  
   105   25  102 1  
   106   26  103 1  
   107   28  104 1  
   108   28  105 1  
   109   29  106 1  
   110   29  107 1  
   111   30  108 1  
   112   31  109 1  
   113   34  110 1  
   114   34  111 1  
   115   36  112 1  
   116   37  113 1  
   117   38  114 1  
   118   39  115 1  
   119   40  116 1  
   120   41  117 1  
   121   42  118 1  
   122   45  119 1  
   123   45  120 1  
   124   45  121 1  
   125   46  122 1  
   126   47  123 1  
   127   50  124 1  
   128   50  125 1  
   129   50  126 1  
   130   51  127 1  
   131   52  128 1  
   132   55  129 1  
   133   55  130 1  
   134   56  131 1  
   135   57  132 1  
   136   57  133 1  
   137   57  134 1  
   138   58  135 1  
   139   58  136 1  
   140   58  137 1  
   141   59  138 1  
   142   60  139 1  
   143   63  140 1  
   144   63  141 1  
   145   65  142 1  
   146   66  143 1  
   147   67  144 1  
   148   68  145 1  
   149   69  146 1  
   150   70  147 1  
   151   71  148 1  
   152   74  149 1  
   153   74  150 1  
@<TRIPOS>SUBSTRUCTURE
     1 CYS         1

