### 
### Created by X-TOOL on Sun Nov 13 14:27:58 2016
### 

@<TRIPOS>MOLECULE
4zj6_ligand
  154   158     1     0     0
SMALL
GAST_HUCK


@<TRIPOS>ATOM
      1 N         -26.2030  -23.2580    2.3680 N.4       1 CYS         0.2385
      2 CA        -26.9740  -22.4110    3.3290 C.3       1 CYS         0.0751
      3 C         -28.0470  -23.2250    4.0570 C.2       1 CYS         0.2300
      4 O         -28.6920  -24.0820    3.4430 O.2       1 CYS        -0.3905
      5 CB        -27.5990  -21.1890    2.6280 C.3       1 CYS         0.0643
      6 SG        -28.3370  -21.5120    1.0100 S.3       1 CYS        -0.0848
      7 N         -28.2300  -22.9710    5.3700 N.am      1 CYS        -0.2471
      8 CA        -29.2960  -23.6200    6.1500 C.3       1 CYS         0.1339
      9 C         -30.7030  -23.3140    5.6400 C.2       1 CYS         0.2041
     10 O         -30.9240  -22.2850    4.9920 O.2       1 CYS        -0.3944
     11 CB        -29.1190  -23.0390    7.5600 C.3       1 CYS        -0.0104
     12 CG        -27.7230  -22.5460    7.6160 C.3       1 CYS        -0.0281
     13 CD        -27.3450  -22.1520    6.2200 C.3       1 CYS         0.0371
     14 N         -31.6450  -24.1940    5.9710 N.am      1 CYS        -0.2640
     15 CA        -33.0200  -24.1180    5.4780 C.3       1 CYS         0.1282
     16 C         -33.7700  -22.8350    5.8670 C.2       1 CYS         0.2036
     17 O         -34.7030  -22.4360    5.1720 O.2       1 CYS        -0.3944
     18 CB        -33.8090  -25.3350    5.9480 C.3       1 CYS        -0.0244
     19 N         -33.3800  -22.2090    6.9770 N.am      1 CYS        -0.2637
     20 CA        -34.0070  -20.9560    7.4220 C.3       1 CYS         0.1311
     21 C         -33.7210  -19.7920    6.4670 C.2       1 CYS         0.2040
     22 O         -34.4820  -18.8240    6.4090 O.2       1 CYS        -0.3944
     23 CB        -33.5800  -20.5970    8.8510 C.3       1 CYS        -0.0092
     24 CG        -32.1020  -20.2760    9.0550 C.3       1 CYS        -0.0156
     25 CD        -31.7690  -20.2690   10.5400 C.3       1 CYS         0.0627
     26 NE        -30.3850  -19.8920   10.8270 N.pl3     1 CYS        -0.2723
     27 CZ        -29.3510  -20.7310   10.8730 C.cat     1 CYS         0.2882
     28 NH1       -29.5090  -22.0330   10.6380 N.pl3     1 CYS        -0.2849
     29 NH2       -28.1400  -20.2640   11.1580 N.pl3     1 CYS        -0.2849
     30 N         -32.6660  -19.8810    5.6690 N.am      1 CYS        -0.2619
     31 CA        -32.3930  -18.8630    4.6440 C.3       1 CYS         0.1404
     32 C         -33.1810  -19.0250    3.3360 C.2       1 CYS         0.2059
     33 O         -33.9400  -19.9270    3.1890 O.2       1 CYS        -0.3942
     34 CB        -30.8920  -18.6990    4.3760 C.3       1 CYS         0.0214
     35 CG        -30.1200  -18.3030    5.5910 C.ar      1 CYS        -0.0386
     36 CD1       -29.7140  -19.2490    6.4690 C.ar      1 CYS        -0.0601
     37 CD2       -29.8430  -17.0020    5.8640 C.ar      1 CYS        -0.0601
     38 CE1       -29.0700  -18.9160    7.6030 C.ar      1 CYS        -0.0686
     39 CE2       -29.1790  -16.6490    6.9820 C.ar      1 CYS        -0.0686
     40 CZ        -28.7930  -17.6170    7.8560 C.ar      1 CYS        -0.0687
     41 N         -33.1870  -18.1070    2.4950 N.am      1 CYS        -0.2639
     42 CA        -34.2030  -17.8580    1.4570 C.3       1 CYS         0.1282
     43 C         -33.6740  -17.9730    0.0320 C.2       1 CYS         0.2036
     44 O         -34.4810  -17.8990   -0.8270 O.2       1 CYS        -0.3944
     45 CB        -34.9880  -16.5420    1.6070 C.3       1 CYS        -0.0244
     46 N         -32.5160  -18.2470   -0.1810 N.am      1 CYS        -0.2640
     47 CA        -32.0700  -18.5920   -1.5200 C.3       1 CYS         0.1282
     48 C         -32.6320  -19.9350   -1.9800 C.2       1 CYS         0.2036
     49 O         -33.0760  -20.6930   -1.1800 O.2       1 CYS        -0.3944
     50 CB        -30.5580  -18.5070   -1.6530 C.3       1 CYS        -0.0244
     51 N         -32.6080  -20.1140   -3.2120 N.am      1 CYS        -0.2637
     52 CA        -33.4250  -21.1720   -3.7620 C.3       1 CYS         0.1312
     53 C         -33.0130  -22.5870   -3.3750 C.2       1 CYS         0.2040
     54 O         -33.8080  -23.4540   -3.3860 O.2       1 CYS        -0.3944
     55 CB        -33.5870  -20.9860   -5.2570 C.3       1 CYS        -0.0101
     56 CG        -34.3650  -19.7130   -5.6070 C.3       1 CYS        -0.0425
     57 CD1       -34.4050  -19.4490   -7.0830 C.3       1 CYS        -0.0625
     58 CD2       -35.7670  -19.8860   -5.1420 C.3       1 CYS        -0.0625
     59 N         -31.8450  -22.8070   -3.0350 N.am      1 CYS        -0.2627
     60 CA        -31.3360  -24.1300   -2.6700 C.3       1 CYS         0.1351
     61 C         -30.8400  -24.2220   -1.2250 C.2       1 CYS         0.2046
     62 O         -30.1090  -25.1470   -0.8670 O.2       1 CYS        -0.3943
     63 CB        -30.2580  -24.5310   -3.6730 C.3       1 CYS         0.0042
     64 CG        -30.8080  -24.4510   -5.0570 C.2       1 CYS        -0.0418
     65 CD1       -31.6380  -25.3510   -5.6570 C.2       1 CYS         0.0167
     66 CD2       -30.6350  -23.3800   -5.9930 C.ar      1 CYS        -0.0214
     67 NE1       -31.9620  -24.9290   -6.9220 N.pl3     1 CYS        -0.2890
     68 CE2       -31.3640  -23.7190   -7.1530 C.ar      1 CYS         0.0603
     69 CE3       -29.9250  -22.1730   -5.9690 C.ar      1 CYS        -0.0747
     70 CZ2       -31.4020  -22.8990   -8.2820 C.ar      1 CYS        -0.0443
     71 CZ3       -29.9640  -21.3570   -7.0940 C.ar      1 CYS        -0.0792
     72 CH2       -30.6990  -21.7260   -8.2340 C.ar      1 CYS        -0.0768
     73 N         -31.2680  -23.2760   -0.3940 N.am      1 CYS        -0.2686
     74 CA        -31.0000  -23.3290    1.0370 C.3       1 CYS         0.1041
     75 C         -31.8720  -24.3950    1.6930 C.2       1 CYS         0.0609
     76 O         -33.0070  -24.6210    1.2720 O.co2     1 CYS        -0.5666
     77 CB        -31.2670  -21.9650    1.6790 C.3       1 CYS         0.0388
     78 SG        -30.1780  -20.6380    1.1120 S.3       1 CYS        -0.0887
     79 OXT       -31.4520  -25.0430    2.6520 O.co2     1 CYS        -0.5666
     80 H1        -25.5067  -22.6938    1.9066 H         1 CYS         0.2015
     81 H2        -26.8316  -23.6441    1.6811 H         1 CYS         0.2015
     82 H3        -25.7508  -24.0071    2.8683 H         1 CYS         0.2015
     83 H4        -26.2667  -22.0381    4.0844 H         1 CYS         0.1107
     84 H5        -26.8100  -20.4341    2.4957 H         1 CYS         0.0466
     85 H6        -28.3848  -20.7870    3.2845 H         1 CYS         0.0466
     86 H7        -29.1489  -24.7101    6.1545 H         1 CYS         0.0802
     87 H8        -29.2817  -23.8180    8.3194 H         1 CYS         0.0313
     88 H9        -29.8251  -22.2120    7.7259 H         1 CYS         0.0313
     89 H10       -27.0551  -23.3412    7.9787 H         1 CYS         0.0287
     90 H11       -27.6554  -21.6763    8.2861 H         1 CYS         0.0287
     91 H12       -27.5246  -21.0796    6.0535 H         1 CYS         0.0524
     92 H13       -26.2879  -22.3820    6.0208 H         1 CYS         0.0524
     93 H14       -31.4009  -24.9434    6.5865 H         1 CYS         0.1883
     94 H15       -32.9718  -24.1454    4.3794 H         1 CYS         0.0797
     95 H16       -34.8411  -25.2699    5.5732 H         1 CYS         0.0277
     96 H17       -33.8194  -25.3630    7.0476 H         1 CYS         0.0277
     97 H18       -33.3359  -26.2501    5.5623 H         1 CYS         0.0277
     98 H19       -32.6401  -22.6027    7.5225 H         1 CYS         0.1883
     99 H20       -35.0950  -21.1181    7.4291 H         1 CYS         0.0800
    100 H21       -33.8303  -21.4494    9.4997 H         1 CYS         0.0313
    101 H22       -34.1603  -19.7161    9.1628 H         1 CYS         0.0313
    102 H23       -31.8822  -19.2863    8.6281 H         1 CYS         0.0301
    103 H24       -31.4909  -21.0377    8.5486 H         1 CYS         0.0301
    104 H25       -31.9450  -21.2781   10.9408 H         1 CYS         0.0689
    105 H26       -32.4360  -19.5532   11.0428 H         1 CYS         0.0689
    106 H27       -30.1942  -18.8962   11.0084 H         1 CYS         0.2642
    107 H28       -28.6973  -22.6658   10.6782 H         1 CYS         0.2615
    108 H29       -30.4428  -22.4067   10.4161 H         1 CYS         0.2615
    109 H30       -28.0055  -19.2594   11.3415 H         1 CYS         0.2615
    110 H31       -27.3359  -20.9066   11.1954 H         1 CYS         0.2615
    111 H32       -32.0428  -20.6570    5.7663 H         1 CYS         0.1885
    112 H33       -32.7329  -17.9112    5.0783 H         1 CYS         0.0823
    113 H34       -30.7562  -17.9242    3.6071 H         1 CYS         0.0474
    114 H35       -30.4958  -19.6561    4.0061 H         1 CYS         0.0474
    115 H36       -29.9108  -20.2934    6.2554 H         1 CYS         0.0557
    116 H37       -30.1620  -16.2332    5.1696 H         1 CYS         0.0557
    117 H38       -28.7754  -19.6842    8.3088 H         1 CYS         0.0599
    118 H39       -28.9554  -15.6074    7.1822 H         1 CYS         0.0599
    119 H40       -28.2604  -17.3456    8.7603 H         1 CYS         0.0559
    120 H41       -32.4180  -17.4686    2.5274 H         1 CYS         0.1883
    121 H42       -34.9400  -18.6656    1.5777 H         1 CYS         0.0797
    122 H43       -35.7159  -16.4538    0.7870 H         1 CYS         0.0277
    123 H44       -34.2901  -15.6925    1.5707 H         1 CYS         0.0277
    124 H45       -35.5189  -16.5395    2.5704 H         1 CYS         0.0277
    125 H46       -31.8583  -18.2361    0.5722 H         1 CYS         0.1883
    126 H47       -32.4861  -17.8314   -2.1970 H         1 CYS         0.0797
    127 H48       -30.2645  -18.7752   -2.6786 H         1 CYS         0.0277
    128 H49       -30.0877  -19.2034   -0.9432 H         1 CYS         0.0277
    129 H50       -30.2277  -17.4810   -1.4336 H         1 CYS         0.0277
    130 H51       -32.0399  -19.5423   -3.8039 H         1 CYS         0.1883
    131 H52       -34.4252  -21.0339   -3.3256 H         1 CYS         0.0800
    132 H53       -34.1273  -21.8533   -5.6643 H         1 CYS         0.0315
    133 H54       -32.5890  -20.9272   -5.7158 H         1 CYS         0.0315
    134 H55       -33.9006  -18.8554   -5.0983 H         1 CYS         0.0298
    135 H56       -34.9736  -18.5272   -7.2753 H         1 CYS         0.0232
    136 H57       -34.8916  -20.2932   -7.5935 H         1 CYS         0.0232
    137 H58       -33.3792  -19.3329   -7.4627 H         1 CYS         0.0232
    138 H59       -35.7727  -20.0818   -4.0596 H         1 CYS         0.0232
    139 H60       -36.2266  -20.7342   -5.6705 H         1 CYS         0.0232
    140 H61       -36.3386  -18.9699   -5.3519 H         1 CYS         0.0232
    141 H62       -31.2100  -22.0350   -3.0077 H         1 CYS         0.1884
    142 H63       -32.1681  -24.8428   -2.7670 H         1 CYS         0.0815
    143 H64       -29.9319  -25.5613   -3.4677 H         1 CYS         0.0397
    144 H65       -29.3997  -23.8493   -3.5802 H         1 CYS         0.0397
    145 H66       -31.9930  -26.2726   -5.1982 H         1 CYS         0.0795
    146 H67       -32.5580  -25.4394   -7.5892 H         1 CYS         0.2216
    147 H68       -29.3576  -21.8814   -5.0926 H         1 CYS         0.0540
    148 H69       -31.9669  -23.1807   -9.1632 H         1 CYS         0.0541
    149 H70       -29.4184  -20.4203   -7.0920 H         1 CYS         0.0510
    150 H71       -30.7091  -21.0666   -9.0943 H         1 CYS         0.0530
    151 H72       -31.7890  -22.5059   -0.7621 H         1 CYS         0.1876
    152 H73       -29.9428  -23.5914    1.1898 H         1 CYS         0.0734
    153 H74       -31.1436  -22.0682    2.7672 H         1 CYS         0.0425
    154 H75       -32.3044  -21.6771    1.4533 H         1 CYS         0.0425
@<TRIPOS>BOND
     1    1    2 1  
     2    2    3 1  
     3    2    5 1  
     4    3    4 2  
     5    3    7 am 
     6    5    6 1  
     7    6   78 1  
     8    7    8 1  
     9    7   13 1  
    10    8    9 1  
    11    8   11 1  
    12    9   10 2  
    13    9   14 am 
    14   11   12 1  
    15   12   13 1  
    16   14   15 1  
    17   15   16 1  
    18   15   18 1  
    19   16   17 2  
    20   16   19 am 
    21   19   20 1  
    22   20   21 1  
    23   20   23 1  
    24   21   22 2  
    25   21   30 am 
    26   23   24 1  
    27   24   25 1  
    28   25   26 1  
    29   26   27 ar 
    30   27   28 ar 
    31   27   29 ar 
    32   30   31 1  
    33   31   32 1  
    34   31   34 1  
    35   32   33 2  
    36   32   41 am 
    37   34   35 1  
    38   35   36 ar 
    39   35   37 ar 
    40   36   38 ar 
    41   37   39 ar 
    42   38   40 ar 
    43   39   40 ar 
    44   41   42 1  
    45   42   43 1  
    46   42   45 1  
    47   43   44 2  
    48   43   46 am 
    49   46   47 1  
    50   47   48 1  
    51   47   50 1  
    52   48   49 2  
    53   48   51 am 
    54   51   52 1  
    55   52   53 1  
    56   52   55 1  
    57   53   54 2  
    58   53   59 am 
    59   55   56 1  
    60   56   57 1  
    61   56   58 1  
    62   59   60 1  
    63   60   61 1  
    64   60   63 1  
    65   61   62 2  
    66   61   73 am 
    67   63   64 1  
    68   64   65 2  
    69   64   66 1  
    70   65   67 1  
    71   66   68 ar 
    72   66   69 ar 
    73   67   68 1  
    74   68   70 ar 
    75   69   71 ar 
    76   70   72 ar 
    77   71   72 ar 
    78   73   74 1  
    79   74   75 1  
    80   74   77 1  
    81   75   76 ar 
    82   75   79 ar 
    83   77   78 1  
    84    1   80 1  
    85    1   81 1  
    86    1   82 1  
    87    2   83 1  
    88    5   84 1  
    89    5   85 1  
    90    8   86 1  
    91   11   87 1  
    92   11   88 1  
    93   12   89 1  
    94   12   90 1  
    95   13   91 1  
    96   13   92 1  
    97   14   93 1  
    98   15   94 1  
    99   18   95 1  
   100   18   96 1  
   101   18   97 1  
   102   19   98 1  
   103   20   99 1  
   104   23  100 1  
   105   23  101 1  
   106   24  102 1  
   107   24  103 1  
   108   25  104 1  
   109   25  105 1  
   110   26  106 1  
   111   28  107 1  
   112   28  108 1  
   113   29  109 1  
   114   29  110 1  
   115   30  111 1  
   116   31  112 1  
   117   34  113 1  
   118   34  114 1  
   119   36  115 1  
   120   37  116 1  
   121   38  117 1  
   122   39  118 1  
   123   40  119 1  
   124   41  120 1  
   125   42  121 1  
   126   45  122 1  
   127   45  123 1  
   128   45  124 1  
   129   46  125 1  
   130   47  126 1  
   131   50  127 1  
   132   50  128 1  
   133   50  129 1  
   134   51  130 1  
   135   52  131 1  
   136   55  132 1  
   137   55  133 1  
   138   56  134 1  
   139   57  135 1  
   140   57  136 1  
   141   57  137 1  
   142   58  138 1  
   143   58  139 1  
   144   58  140 1  
   145   59  141 1  
   146   60  142 1  
   147   63  143 1  
   148   63  144 1  
   149   65  145 1  
   150   67  146 1  
   151   69  147 1  
   152   70  148 1  
   153   71  149 1  
   154   72  150 1  
   155   73  151 1  
   156   74  152 1  
   157   77  153 1  
   158   77  154 1  
@<TRIPOS>SUBSTRUCTURE
     1 CYS         1

