### 
### Created by X-TOOL on Mon Sep 10 21:13:29 2018
### 

@<TRIPOS>MOLECULE
4zj8_ligand
   55    59     1     0     0
SMALL
GAST_HUCK


@<TRIPOS>ATOM
      1 C1         -8.0670   -1.5380  -55.0270 C.2       1 SUV         0.2791
      2 N1         -9.1820   -0.8810  -54.7610 N.pl3     1 SUV        -0.2482
      3 O1         -7.4280   -2.0600  -53.9480 O.3       1 SUV        -0.1972
      4 CL1        -3.0280   -4.3530  -56.9700 Cl        1 SUV        -0.0813
      5 N2         -7.5010   -1.7520  -56.1770 N.2       1 SUV        -0.2970
      6 O2         -7.7730    3.0020  -55.0760 O.2       1 SUV        -0.3882
      7 C3         -6.3620   -2.4940  -55.8530 C.ar      1 SUV         0.0274
      8 N3         -9.0870    1.6180  -53.9070 N.am      1 SUV        -0.2687
      9 C4         -5.3470   -3.0150  -56.6460 C.ar      1 SUV        -0.0522
     10 N4         -7.4890    2.7860  -51.2700 N.pl3     1 SUV        -0.0806
     11 C5         -4.3280   -3.7050  -56.0090 C.ar      1 SUV         0.0226
     12 N5         -7.9640    2.3380  -50.1040 N.2       1 SUV        -0.1627
     13 C6         -4.3010   -3.8890  -54.6310 C.ar      1 SUV        -0.0624
     14 N6         -8.0020    3.9510  -51.6840 N.2       1 SUV        -0.1627
     15 C7         -5.3200   -3.3660  -53.8500 C.ar      1 SUV        -0.0323
     16 C8         -6.3260   -2.6770  -54.4920 C.ar      1 SUV         0.1389
     17 C11        -9.6570   -0.7180  -53.3820 C.3       1 SUV         0.0586
     18 C12        -9.3210    0.6270  -52.8530 C.3       1 SUV         0.0546
     19 C14       -10.2460    2.0030  -54.7390 C.3       1 SUV         0.0435
     20 C15       -10.9600    0.7950  -55.3290 C.3       1 SUV        -0.0088
     21 C16        -9.9960   -0.2810  -55.8250 C.3       1 SUV         0.0405
     22 C17        -7.8930    2.1780  -54.1880 C.2       1 SUV         0.2046
     23 C19        -6.6950    1.7630  -53.3800 C.ar      1 SUV         0.0827
     24 C20        -6.5080    2.0750  -52.0250 C.ar      1 SUV         0.1480
     25 C21        -5.3440    1.6760  -51.3790 C.ar      1 SUV        -0.0224
     26 C22        -4.3780    0.9720  -52.0730 C.ar      1 SUV        -0.0586
     27 C23        -4.5380    0.6460  -53.4100 C.ar      1 SUV        -0.0461
     28 C24        -5.7010    1.0470  -54.0480 C.ar      1 SUV        -0.0433
     29 C27        -8.8430    3.2540  -49.7200 C.2       1 SUV         0.0358
     30 C28        -8.8670    4.2950  -50.7400 C.2       1 SUV         0.0358
     31 C29        -3.4750   -0.1270  -54.1530 C.3       1 SUV        -0.0329
     32 C30       -11.2080    2.9020  -53.9830 C.3       1 SUV        -0.0418
     33 H1         -5.3521   -2.8866  -57.7224 H         1 SUV         0.0529
     34 H2         -3.4879   -4.4382  -54.1701 H         1 SUV         0.0526
     35 H3         -5.3252   -3.4944  -52.7736 H         1 SUV         0.0551
     36 H4         -9.1838   -1.4815  -52.7471 H         1 SUV         0.0551
     37 H5        -10.7490   -0.8490  -53.3610 H         1 SUV         0.0551
     38 H6        -10.1546    0.9743  -52.2249 H         1 SUV         0.0542
     39 H7         -8.4104    0.5450  -52.2413 H         1 SUV         0.0542
     40 H8         -9.8533    2.5881  -55.5836 H         1 SUV         0.0555
     41 H9        -11.5770    1.1307  -56.1755 H         1 SUV         0.0308
     42 H10       -11.6069    0.3568  -54.5548 H         1 SUV         0.0308
     43 H11       -10.5828   -1.0783  -56.3046 H         1 SUV         0.0532
     44 H12        -9.3203    0.1728  -56.5649 H         1 SUV         0.0532
     45 H13        -5.1940    1.9165  -50.3327 H         1 SUV         0.0591
     46 H14        -3.4735    0.6676  -51.5589 H         1 SUV         0.0580
     47 H15        -5.8422    0.7979  -55.0935 H         1 SUV         0.0593
     48 H16        -9.4385    3.2323  -48.8085 H         1 SUV         0.0730
     49 H17        -9.4836    5.1925  -50.7287 H         1 SUV         0.0730
     50 H18        -2.6390   -0.3473  -53.4728 H         1 SUV         0.0381
     51 H19        -3.1102    0.4725  -55.0000 H         1 SUV         0.0381
     52 H20        -3.9012   -1.0694  -54.5274 H         1 SUV         0.0381
     53 H21       -12.0538    3.1648  -54.6354 H         1 SUV         0.0252
     54 H22       -10.6858    3.8190  -53.6725 H         1 SUV         0.0252
     55 H23       -11.5815    2.3736  -53.0935 H         1 SUV         0.0252
@<TRIPOS>BOND
     1    2    1 1  
     2    1    3 1  
     3    1    5 2  
     4   17    2 1  
     5   21    2 1  
     6    3   16 1  
     7   11    4 1  
     8    5    7 1  
     9   22    6 2  
    10    7    9 ar 
    11    7   16 ar 
    12    8   18 1  
    13    8   19 1  
    14   22    8 am 
    15    9   11 ar 
    16   10   12 1  
    17   10   14 1  
    18   24   10 1  
    19   11   13 ar 
    20   12   29 2  
    21   15   13 ar 
    22   14   30 2  
    23   16   15 ar 
    24   18   17 1  
    25   19   20 1  
    26   19   32 1  
    27   20   21 1  
    28   23   22 1  
    29   23   24 ar 
    30   23   28 ar 
    31   24   25 ar 
    32   25   26 ar 
    33   26   27 ar 
    34   27   28 ar 
    35   27   31 1  
    36   29   30 1  
    37    9   33 1  
    38   13   34 1  
    39   15   35 1  
    40   17   36 1  
    41   17   37 1  
    42   18   38 1  
    43   18   39 1  
    44   19   40 1  
    45   20   41 1  
    46   20   42 1  
    47   21   43 1  
    48   21   44 1  
    49   25   45 1  
    50   26   46 1  
    51   28   47 1  
    52   29   48 1  
    53   30   49 1  
    54   31   50 1  
    55   31   51 1  
    56   31   52 1  
    57   32   53 1  
    58   32   54 1  
    59   32   55 1  
@<TRIPOS>SUBSTRUCTURE
     1 SUV         1

