### 
### Created by X-TOOL on Mon Sep 10 21:13:29 2018
### 

@<TRIPOS>MOLECULE
4zjc_ligand
   53    57     1     0     0
SMALL
GAST_HUCK


@<TRIPOS>ATOM
      1 C1         -9.8830   -1.0560  -53.9950 C.3       1 4OT         0.0641
      2 C2         -8.9270   -1.3980  -55.0790 C.2       1 4OT         0.2025
      3 N3         -8.9500   -1.1590  -56.3390 N.2       1 4OT        -0.2473
      4 N4         -7.7850   -1.7290  -56.8710 N.2       1 4OT        -0.2460
      5 C5         -7.1570   -2.2650  -55.8810 C.2       1 4OT         0.2176
      6 O6         -7.8180   -2.1000  -54.7000 O.3       1 4OT        -0.1908
      7 C7         -5.8820   -2.9820  -55.8830 C.ar      1 4OT         0.0418
      8 C8         -9.6920    0.3780  -53.4980 C.3       1 4OT         0.0621
      9 C11        -8.5120    1.8230  -55.1180 C.2       1 4OT         0.2021
     10 C12        -7.1980    1.4560  -54.5090 C.2       1 4OT         0.0922
     11 N12        -9.6550    1.3340  -54.6110 N.am      1 4OT        -0.2691
     12 C13       -11.0150    1.7300  -54.9930 C.3       1 4OT         0.0335
     13 C14       -11.7850    1.6280  -53.6790 C.3       1 4OT        -0.0303
     14 O23        -8.5080    2.5710  -56.0890 O.2       1 4OT        -0.3928
     15 C24       -10.8650    0.8990  -52.6670 C.3       1 4OT        -0.0253
     16 C25        -3.9830   -0.2270  -54.8840 C.3       1 4OT         0.0075
     17 C26        -5.1780    0.5530  -54.4430 C.2       1 4OT         0.0937
     18 N27        -6.2630    0.6690  -55.1560 N.2       1 4OT        -0.3020
     19 C28        -6.8260    1.9450  -53.2800 C.2       1 4OT         0.0726
     20 S29        -5.2170    1.3940  -52.9200 S.3       1 4OT         0.0112
     21 C30        -7.5380    2.7930  -52.3010 C.ar      1 4OT         0.0301
     22 C34        -8.1160    3.9880  -52.7310 C.ar      1 4OT        -0.0551
     23 C35        -8.7900    4.8090  -51.8450 C.ar      1 4OT        -0.0659
     24 C36        -8.9020    4.4560  -50.5190 C.ar      1 4OT        -0.0642
     25 C37        -8.3410    3.2780  -50.0610 C.ar      1 4OT        -0.0277
     26 C38        -7.6770    2.4770  -50.9580 C.ar      1 4OT         0.1421
     27 F39        -7.1380    1.3240  -50.5020 F         1 4OT        -0.1814
     28 C44        -5.1680   -3.1570  -57.0630 C.ar      1 4OT        -0.0459
     29 C45        -3.9540   -3.8220  -57.0560 C.ar      1 4OT        -0.0587
     30 C46        -3.4420   -4.3210  -55.8770 C.ar      1 4OT        -0.0597
     31 C47        -4.1430   -4.1570  -54.7010 C.ar      1 4OT        -0.0587
     32 C48        -5.3570   -3.4930  -54.7000 C.ar      1 4OT        -0.0459
     33 H1         -9.7289   -1.7475  -53.1536 H         1 4OT         0.0558
     34 H2        -10.9085   -1.1663  -54.3772 H         1 4OT         0.0558
     35 H3         -8.7607    0.4235  -52.9143 H         1 4OT         0.0589
     36 H4        -11.4288    1.0451  -55.7477 H         1 4OT         0.0521
     37 H5        -11.0325    2.7586  -55.3824 H         1 4OT         0.0521
     38 H6        -12.7114    1.0539  -53.8281 H         1 4OT         0.0285
     39 H7        -12.0324    2.6334  -53.3076 H         1 4OT         0.0285
     40 H8        -10.5109    1.5975  -51.8946 H         1 4OT         0.0290
     41 H9        -11.4005    0.0651  -52.1896 H         1 4OT         0.0290
     42 H10        -4.1791   -0.6716  -55.8708 H         1 4OT         0.0490
     43 H11        -3.7775   -1.0259  -54.1563 H         1 4OT         0.0490
     44 H12        -3.1123    0.4420  -54.9498 H         1 4OT         0.0490
     45 H13        -8.0358    4.2767  -53.7728 H         1 4OT         0.0606
     46 H14        -9.2320    5.7344  -52.1963 H         1 4OT         0.0582
     47 H15        -9.4323    5.1044  -49.8309 H         1 4OT         0.0602
     48 H16        -8.4233    2.9932  -49.0183 H         1 4OT         0.0601
     49 H17        -5.5646   -2.7701  -57.9947 H         1 4OT         0.0647
     50 H18        -3.4037   -3.9510  -57.9810 H         1 4OT         0.0623
     51 H19        -2.4908   -4.8409  -55.8746 H         1 4OT         0.0635
     52 H20        -3.7416   -4.5497  -53.7738 H         1 4OT         0.0623
     53 H21        -5.9027   -3.3701  -53.7715 H         1 4OT         0.0647
@<TRIPOS>BOND
     1    1    2 1  
     2    8    1 1  
     3    2    3 2  
     4    2    6 1  
     5    3    4 1  
     6    5    4 2  
     7    6    5 1  
     8    5    7 1  
     9    7   28 ar 
    10    7   32 ar 
    11   11    8 1  
    12    8   15 1  
    13   10    9 1  
    14    9   11 am 
    15    9   14 2  
    16   18   10 1  
    17   10   19 2  
    18   11   12 1  
    19   12   13 1  
    20   13   15 1  
    21   17   16 1  
    22   17   18 2  
    23   17   20 1  
    24   19   20 1  
    25   19   21 1  
    26   21   22 ar 
    27   21   26 ar 
    28   22   23 ar 
    29   23   24 ar 
    30   24   25 ar 
    31   25   26 ar 
    32   26   27 1  
    33   28   29 ar 
    34   29   30 ar 
    35   30   31 ar 
    36   31   32 ar 
    37    1   33 1  
    38    1   34 1  
    39    8   35 1  
    40   12   36 1  
    41   12   37 1  
    42   13   38 1  
    43   13   39 1  
    44   15   40 1  
    45   15   41 1  
    46   16   42 1  
    47   16   43 1  
    48   16   44 1  
    49   22   45 1  
    50   23   46 1  
    51   24   47 1  
    52   25   48 1  
    53   28   49 1  
    54   29   50 1  
    55   30   51 1  
    56   31   52 1  
    57   32   53 1  
@<TRIPOS>SUBSTRUCTURE
     1 4OT         1

