### 
### Created by X-TOOL on Mon Sep 10 21:13:24 2018
### 

@<TRIPOS>MOLECULE
4zji_ligand
   49    52     1     0     0
SMALL
GAST_HUCK


@<TRIPOS>ATOM
      1 C1         13.0360   47.2140   46.8810 C.3       1 4OQ         0.0412
      2 C2         11.0250   45.9840   46.0370 C.ar      1 4OQ         0.0664
      3 C3         10.5110   45.8030   47.3270 C.ar      1 4OQ        -0.0471
      4 C11        10.7390   50.1360   43.4240 C.ar      1 4OQ         0.0352
      5 C12        11.1680   50.3800   44.7080 C.ar      1 4OQ        -0.0519
      6 C13        11.6340   49.3260   45.4760 C.ar      1 4OQ        -0.0302
      7 C14        11.6780   48.0270   44.9600 C.ar      1 4OQ         0.0836
      8 C15        12.9000   47.0450   41.2760 C.3       1 4OQ         0.0764
      9 C16        14.0830   46.1380   41.5550 C.3       1 4OQ        -0.0102
     10 C17        15.1060   44.0010   41.0960 C.3       1 4OQ        -0.0429
     11 C18        12.7040   44.2120   41.2090 C.3       1 4OQ        -0.0102
     12 C19        11.5070   45.1120   40.9400 C.3       1 4OQ         0.0764
     13 CL          9.9980   51.4150   42.5160 Cl        1 4OQ        -0.0805
     14 C10        10.7980   48.8770   42.8690 C.ar      1 4OQ        -0.0352
     15 N          12.0710   46.9360   45.7990 N.pl3     1 4OQ        -0.2587
     16 C          13.9170   46.0040   47.2680 C.3       1 4OQ        -0.0417
     17 C9         11.2610   47.8050   43.6330 C.ar      1 4OQ         0.0654
     18 C8         11.2470   46.4460   43.0290 C.2       1 4OQ         0.1235
     19 N2         11.6560   46.3760   41.6800 N.pl3     1 4OQ        -0.2692
     20 N3         13.9520   44.8740   40.8320 N.4       1 4OQ         0.2361
     21 N1         10.8940   45.3580   43.6200 N.2       1 4OQ        -0.3155
     22 C7         10.4410   45.2890   44.9550 C.ar      1 4OQ         0.0225
     23 C6          9.3590   44.4330   45.1920 C.ar      1 4OQ        -0.0321
     24 C5          8.9100   44.2790   46.4810 C.ar      1 4OQ         0.1122
     25 F           7.9070   43.3900   46.7040 F         1 4OQ        -0.1956
     26 C4          9.4520   44.9410   47.5540 C.ar      1 4OQ        -0.0463
     27 H1         12.4741   47.5310   47.7719 H         1 4OQ         0.0556
     28 H2         13.6959   48.0310   46.5538 H         1 4OQ         0.0556
     29 H3         10.9479   46.3447   48.1581 H         1 4OQ         0.0489
     30 H4         11.1416   51.3849   45.1137 H         1 4OQ         0.0651
     31 H5         11.9690   49.5103   46.4903 H         1 4OQ         0.0538
     32 H6         12.8598   47.2729   40.2006 H         1 4OQ         0.0588
     33 H7         13.0138   47.9795   41.8449 H         1 4OQ         0.0588
     34 H8         14.1326   45.9322   42.6344 H         1 4OQ         0.0835
     35 H9         15.0069   46.6420   41.2350 H         1 4OQ         0.0835
     36 H10        14.9862   43.0577   40.5430 H         1 4OQ         0.0778
     37 H11        15.1665   43.7890   42.1737 H         1 4OQ         0.0778
     38 H12        16.0283   44.5033   40.7687 H         1 4OQ         0.0778
     39 H13        12.5969   43.2864   40.6243 H         1 4OQ         0.0835
     40 H14        12.7363   43.9670   42.2809 H         1 4OQ         0.0835
     41 H15        10.5876   44.6040   41.2667 H         1 4OQ         0.0588
     42 H16        11.4452   45.3250   39.8626 H         1 4OQ         0.0588
     43 H17        10.4861   48.7194   41.8429 H         1 4OQ         0.0661
     44 H18        14.6041   46.2944   48.0764 H         1 4OQ         0.0252
     45 H19        14.4978   45.6783   46.3924 H         1 4OQ         0.0252
     46 H20        13.2760   45.1783   47.6106 H         1 4OQ         0.0252
     47 H21        13.9234   45.0718   39.8440 H         1 4OQ         0.2032
     48 H22         8.8848   43.9021   44.3744 H         1 4OQ         0.0505
     49 H23         9.0607   44.7926   48.5540 H         1 4OQ         0.0513
@<TRIPOS>BOND
     1   15    1 1  
     2    1   16 1  
     3    2    3 ar 
     4   15    2 1  
     5    2   22 ar 
     6    3   26 ar 
     7    4    5 ar 
     8    4   13 1  
     9   14    4 ar 
    10    6    5 ar 
    11    7    6 ar 
    12    7   15 1  
    13   17    7 ar 
    14    8    9 1  
    15   19    8 1  
    16    9   20 1  
    17   20   10 1  
    18   12   11 1  
    19   11   20 1  
    20   19   12 1  
    21   17   14 ar 
    22   18   17 1  
    23   18   19 1  
    24   18   21 2  
    25   21   22 1  
    26   22   23 ar 
    27   23   24 ar 
    28   24   25 1  
    29   24   26 ar 
    30    1   27 1  
    31    1   28 1  
    32    3   29 1  
    33    5   30 1  
    34    6   31 1  
    35    8   32 1  
    36    8   33 1  
    37    9   34 1  
    38    9   35 1  
    39   10   36 1  
    40   10   37 1  
    41   10   38 1  
    42   11   39 1  
    43   11   40 1  
    44   12   41 1  
    45   12   42 1  
    46   14   43 1  
    47   16   44 1  
    48   16   45 1  
    49   16   46 1  
    50   20   47 1  
    51   23   48 1  
    52   26   49 1  
@<TRIPOS>SUBSTRUCTURE
     1 4OQ         1

