### 
### Created by X-TOOL on Mon Sep 10 21:13:24 2018
### 

@<TRIPOS>MOLECULE
4zjj_ligand
   61    64     1     0     0
SMALL
GAST_HUCK


@<TRIPOS>ATOM
      1 C1         13.4030   46.4810   47.1040 C.3       1 4OR         0.0412
      2 C2         11.3400   45.3200   46.2940 C.ar      1 4OR         0.0664
      3 C3         10.8480   45.1040   47.5840 C.ar      1 4OR        -0.0471
      4 C11        14.1050   44.7730   39.7490 C.3       1 4OR         0.0366
      5 C12        13.1240   43.5600   41.6050 C.3       1 4OR         0.0582
      6 C13        15.6010   43.5640   41.3550 C.2       1 4OR         0.2604
      7 C14        18.1490   43.6830   40.8100 C.3       1 4OR         0.0450
      8 C15        18.5370   44.2620   42.1630 C.3       1 4OR        -0.0399
      9 C16        18.9780   44.3300   39.7120 C.3       1 4OR        -0.0399
     10 C17        18.3940   42.1860   40.8030 C.3       1 4OR        -0.0399
     11 C18        11.6070   47.2040   43.9070 C.ar      1 4OR         0.0652
     12 C19        11.1130   48.2910   43.1820 C.ar      1 4OR        -0.0352
     13 C20        11.0480   49.5370   43.7690 C.ar      1 4OR         0.0352
     14 C21        11.4700   49.7460   45.0650 C.ar      1 4OR        -0.0519
     15 C22        11.9720   48.6760   45.7940 C.ar      1 4OR        -0.0302
     16 C23        12.0290   47.3930   45.2420 C.ar      1 4OR         0.0836
     17 CL         10.3850   50.8690   42.8560 Cl        1 4OR        -0.0805
     18 N          12.3870   46.2770   46.0620 N.pl3     1 4OR        -0.2587
     19 C          14.3330   45.3000   47.2820 C.3       1 4OR        -0.0417
     20 C8         11.6120   45.8510   43.2950 C.2       1 4OR         0.1210
     21 N1         11.2130   44.7280   43.8860 N.2       1 4OR        -0.3156
     22 C7         10.7180   44.6800   45.2030 C.ar      1 4OR         0.0225
     23 C6          9.5810   43.8940   45.4180 C.ar      1 4OR        -0.0321
     24 C5          9.1300   43.7340   46.7040 C.ar      1 4OR         0.1122
     25 F           8.0380   42.9410   46.9090 F         1 4OR        -0.1956
     26 C4          9.7380   44.3070   47.7940 C.ar      1 4OR        -0.0463
     27 N2         12.0710   45.8040   42.0110 N.pl3     1 4OR        -0.2881
     28 C9         12.1370   44.6310   41.1370 C.3       1 4OR         0.0663
     29 N3         14.3600   43.9270   40.9250 N.am      1 4OR        -0.2571
     30 C10        12.5900   44.9570   39.7510 C.3       1 4OR        -0.0068
     31 O          15.7630   42.9370   42.3970 O.2       1 4OR        -0.4006
     32 N4         16.7150   43.9430   40.5510 N.am      1 4OR        -0.2678
     33 H1         12.8896   46.6665   48.0590 H         1 4OR         0.0556
     34 H2         14.0057   47.3609   46.8347 H         1 4OR         0.0556
     35 H3         11.3426   45.5669   48.4302 H         1 4OR         0.0489
     36 H4         14.4372   44.2727   38.8274 H         1 4OR         0.0520
     37 H5         14.6170   45.7418   39.8453 H         1 4OR         0.0520
     38 H6         12.7902   42.5565   41.3023 H         1 4OR         0.0543
     39 H7         13.2506   43.5904   42.6973 H         1 4OR         0.0543
     40 H8         19.6029   44.0675   42.3530 H         1 4OR         0.0254
     41 H9         17.9320   43.7899   42.9510 H         1 4OR         0.0254
     42 H10        18.3567   45.3471   42.1628 H         1 4OR         0.0254
     43 H11        18.6914   43.9061   38.7382 H         1 4OR         0.0254
     44 H12        20.0451   44.1369   39.8962 H         1 4OR         0.0254
     45 H13        18.7972   45.4150   39.7071 H         1 4OR         0.0254
     46 H14        17.7962   41.7129   41.5960 H         1 4OR         0.0254
     47 H15        19.4613   41.9883   40.9811 H         1 4OR         0.0254
     48 H16        18.1021   41.7712   39.8269 H         1 4OR         0.0254
     49 H17        10.7811   48.1551   42.1590 H         1 4OR         0.0661
     50 H18        11.4106   50.7331   45.5091 H         1 4OR         0.0651
     51 H19        12.3249   48.8381   46.8061 H         1 4OR         0.0538
     52 H20        15.0626   45.5240   48.0742 H         1 4OR         0.0252
     53 H21        14.8642   45.1061   46.3385 H         1 4OR         0.0252
     54 H22        13.7481   44.4117   47.5627 H         1 4OR         0.0252
     55 H23         9.0680   43.4222   44.5878 H         1 4OR         0.0505
     56 H24         9.3568   44.1385   48.7947 H         1 4OR         0.0513
     57 H25        12.4084   46.6918   41.6124 H         1 4OR         0.1917
     58 H26        11.1274   44.1963   41.0960 H         1 4OR         0.0589
     59 H27        12.1213   44.2757   39.0257 H         1 4OR         0.0308
     60 H28        12.3309   45.9958   39.4987 H         1 4OR         0.0308
     61 H29        16.5026   44.4442   39.7121 H         1 4OR         0.1851
@<TRIPOS>BOND
     1   18    1 1  
     2    1   19 1  
     3    2    3 ar 
     4    2   18 1  
     5   22    2 ar 
     6    3   26 ar 
     7   29    4 1  
     8    4   30 1  
     9   28    5 1  
    10    5   29 1  
    11   29    6 am 
    12    6   31 2  
    13    6   32 am 
    14    7    8 1  
    15    7    9 1  
    16    7   10 1  
    17   32    7 1  
    18   11   12 ar 
    19   11   16 ar 
    20   20   11 1  
    21   12   13 ar 
    22   13   14 ar 
    23   13   17 1  
    24   15   14 ar 
    25   16   15 ar 
    26   16   18 1  
    27   20   21 2  
    28   27   20 1  
    29   21   22 1  
    30   22   23 ar 
    31   23   24 ar 
    32   24   25 1  
    33   24   26 ar 
    34   27   28 1  
    35   28   30 1  
    36    1   33 1  
    37    1   34 1  
    38    3   35 1  
    39    4   36 1  
    40    4   37 1  
    41    5   38 1  
    42    5   39 1  
    43    8   40 1  
    44    8   41 1  
    45    8   42 1  
    46    9   43 1  
    47    9   44 1  
    48    9   45 1  
    49   10   46 1  
    50   10   47 1  
    51   10   48 1  
    52   12   49 1  
    53   14   50 1  
    54   15   51 1  
    55   19   52 1  
    56   19   53 1  
    57   19   54 1  
    58   23   55 1  
    59   26   56 1  
    60   27   57 1  
    61   28   58 1  
    62   30   59 1  
    63   30   60 1  
    64   32   61 1  
@<TRIPOS>SUBSTRUCTURE
     1 4OR         1

