### 
### Created by X-TOOL on Mon Sep 10 21:13:23 2018
### 

@<TRIPOS>MOLECULE
4zjr_ligand
   50    52     1     0     0
SMALL
GAST_HUCK


@<TRIPOS>ATOM
      1 O2         -7.8050   32.6800    6.3080 O.2       1 4P3        -0.3849
      2 C20        -9.0470   32.7460    6.3530 C.2       1 4P3         0.2020
      3 N1         -9.6940   33.9170    6.3410 N.am      1 4P3        -0.3001
      4 C19        -9.8250   31.4770    6.4010 C.ar      1 4P3         0.0478
      5 C21       -11.2250   31.4510    6.4980 C.ar      1 4P3        -0.0439
      6 C22       -11.9380   30.2510    6.5230 C.ar      1 4P3        -0.0444
      7 C         -11.2400   29.0700    6.4410 C.ar      1 4P3         0.0485
      8 CL        -12.0860   27.4990    6.4940 Cl        1 4P3        -0.0678
      9 C18        -9.1170   30.2940    6.2790 C.ar      1 4P3        -0.0378
     10 C1         -9.7720   29.0990    6.2910 C.ar      1 4P3        -0.0109
     11 C2         -8.9790   27.8710    6.1860 C.ar      1 4P3        -0.0398
     12 C17        -8.3100   27.5440    5.0140 C.ar      1 4P3        -0.0373
     13 C14        -7.5370   26.3700    4.9750 C.ar      1 4P3         0.1152
     14 O1         -6.8280   25.9100    3.9250 O.3       1 4P3        -0.3148
     15 C15        -6.7230   26.5590    2.6840 C.3       1 4P3         0.1621
     16 C16        -6.0530   25.5400    1.7660 C.3       1 4P3         0.4167
     17 F3         -6.4870   25.9210    0.6020 F         1 4P3        -0.1678
     18 F2         -4.7270   25.6140    1.7450 F         1 4P3        -0.1678
     19 F1         -6.4200   24.2970    2.1260 F         1 4P3        -0.1678
     20 C5         -7.4970   25.5120    6.1470 C.ar      1 4P3         0.1015
     21 C4         -8.1910   25.8820    7.2780 C.ar      1 4P3        -0.0460
     22 C3         -8.9190   27.0500    7.2980 C.ar      1 4P3        -0.0770
     23 N          -6.7430   24.3710    6.1250 N.am      1 4P3        -0.2237
     24 C6         -5.2870   24.4560    5.8620 C.3       1 4P3         0.0428
     25 C7         -7.3540   23.2560    6.4140 C.2       1 4P3         0.2326
     26 O          -8.5640   23.2030    6.3920 O.2       1 4P3        -0.3760
     27 C8         -6.4310   22.1170    6.7240 C.ar      1 4P3         0.1029
     28 C13        -5.9100   21.8370    8.0830 C.ar      1 4P3         0.0593
     29 CL1        -6.3610   22.7620    9.5380 Cl        1 4P3        -0.0658
     30 C12        -5.0370   20.7960    8.2990 C.ar      1 4P3        -0.0463
     31 C11        -4.6160   20.0390    7.2330 C.ar      1 4P3        -0.0589
     32 C10        -5.0490   20.2600    5.9170 C.ar      1 4P3        -0.0222
     33 C9         -5.9300   21.2770    5.6030 C.ar      1 4P3         0.1541
     34 F          -6.3250   21.4670    4.3110 F         1 4P3        -0.1774
     35 H1        -10.6931   33.9366    6.3782 H         1 4P3         0.1808
     36 H2         -9.1785   34.7726    6.2948 H         1 4P3         0.1808
     37 H3        -11.7672   32.3879    6.5550 H         1 4P3         0.0649
     38 H4        -13.0189   30.2508    6.6053 H         1 4P3         0.0628
     39 H5         -8.0384   30.3181    6.1736 H         1 4P3         0.0655
     40 H6         -8.3825   28.1841    4.1422 H         1 4P3         0.0501
     41 H7         -6.1063   27.4656    2.7719 H         1 4P3         0.0699
     42 H8         -7.7188   26.8285    2.3022 H         1 4P3         0.0699
     43 H9         -8.1636   25.2493    8.1578 H         1 4P3         0.0477
     44 H10        -9.4533   27.3308    8.1984 H         1 4P3         0.0502
     45 H11        -5.0143   25.4989    5.6428 H         1 4P3         0.0548
     46 H12        -5.0324   23.8216    5.0002 H         1 4P3         0.0548
     47 H13        -4.7336   24.1108    6.7477 H         1 4P3         0.0548
     48 H14        -4.6850   20.5754    9.3002 H         1 4P3         0.0600
     49 H15        -3.9158   19.2323    7.4174 H         1 4P3         0.0642
     50 H16        -4.6828   19.6159    5.1257 H         1 4P3         0.0617
@<TRIPOS>BOND
     1    1    2 2  
     2    2    3 am 
     3    2    4 1  
     4    4    5 ar 
     5    4    9 ar 
     6    5    6 ar 
     7    6    7 ar 
     8    7    8 1  
     9    7   10 ar 
    10    9   10 ar 
    11   10   11 1  
    12   11   12 ar 
    13   11   22 ar 
    14   12   13 ar 
    15   13   14 1  
    16   13   20 ar 
    17   14   15 1  
    18   15   16 1  
    19   16   17 1  
    20   16   18 1  
    21   16   19 1  
    22   20   21 ar 
    23   20   23 1  
    24   21   22 ar 
    25   23   24 1  
    26   23   25 am 
    27   25   26 2  
    28   25   27 1  
    29   27   28 ar 
    30   27   33 ar 
    31   28   29 1  
    32   28   30 ar 
    33   30   31 ar 
    34   31   32 ar 
    35   32   33 ar 
    36   33   34 1  
    37    3   35 1  
    38    3   36 1  
    39    5   37 1  
    40    6   38 1  
    41    9   39 1  
    42   12   40 1  
    43   15   41 1  
    44   15   42 1  
    45   21   43 1  
    46   22   44 1  
    47   24   45 1  
    48   24   46 1  
    49   24   47 1  
    50   30   48 1  
    51   31   49 1  
    52   32   50 1  
@<TRIPOS>SUBSTRUCTURE
     1 4P3         1

