### 
### Created by X-TOOL on Mon Sep 10 21:13:24 2018
### 

@<TRIPOS>MOLECULE
4zjw_ligand
   52    55     1     0     0
SMALL
GAST_HUCK


@<TRIPOS>ATOM
      1 C1        -22.9070   10.6370   50.6060 C.2       1 4P1         0.2262
      2 C2        -21.9240   11.7680   50.9430 C.3       1 4P1         0.1356
      3 C3        -22.6610   12.9400   51.5820 C.2       1 4P1         0.1259
      4 C7        -20.7490   11.3270   51.7720 C.2       1 4P1         0.0377
      5 C10       -24.4780    7.5290   49.4520 C.3       1 4P1        -0.0203
      6 C11       -22.7890    9.3740   48.7500 C.ar      1 4P1         0.0746
      7 C12       -23.8660    8.4240   48.3810 C.ar      1 4P1        -0.0186
      8 C13       -24.2570    8.3930   47.0450 C.ar      1 4P1        -0.0645
      9 C14       -22.2060   10.2350   47.8300 C.ar      1 4P1        -0.0445
     10 C15       -22.6210   10.1590   46.5190 C.ar      1 4P1        -0.0729
     11 C16       -23.6140    9.2450   46.1260 C.ar      1 4P1        -0.0376
     12 C19       -25.1810   10.6430   42.9840 C.ar      1 4P1        -0.0444
     13 C20       -25.0440    9.5760   42.0860 C.ar      1 4P1        -0.0439
     14 C21       -24.4290    8.3750   42.4690 C.ar      1 4P1         0.0479
     15 C22       -24.3380    7.2460   41.4930 C.2       1 4P1         0.2042
     16 C24       -23.9430    8.2120   43.7810 C.ar      1 4P1        -0.0377
     17 C4        -22.2570   13.5130   52.7870 C.2       1 4P1        -0.0578
     18 C5        -21.1550   13.0170   53.4730 C.3       1 4P1        -0.0203
     19 C6        -20.4080   11.9520   52.9700 C.2       1 4P1        -0.0719
     20 O2        -24.1870    6.1500   41.9720 O.2       1 4P1        -0.3847
     21 N2        -24.4810    7.3920   40.1710 N.am      1 4P1        -0.2892
     22 C23       -24.4340    6.3760   39.1230 C.3       1 4P1         0.0191
     23 C18       -24.7140   10.5400   44.2860 C.ar      1 4P1         0.0485
     24 CL2       -24.9200   11.9290   45.4250 Cl        1 4P1        -0.0678
     25 C17       -24.0530    9.2610   44.7020 C.ar      1 4P1        -0.0099
     26 C9        -23.6750    7.4920   50.7730 C.3       1 4P1        -0.0196
     27 C8        -22.2780    8.1380   50.7350 C.3       1 4P1         0.0567
     28 N1        -22.5470    9.4150   50.0980 N.am      1 4P1        -0.2186
     29 O1        -24.1180   10.8910   50.7050 O.2       1 4P1        -0.3806
     30 F         -23.7550   13.5040   51.0190 F         1 4P1        -0.1916
     31 CL1       -19.6690    9.9880   51.2720 Cl        1 4P1        -0.0820
     32 H1        -21.5137   12.1258   49.9872 H         1 4P1         0.0792
     33 H2        -24.5380    6.5050   49.0546 H         1 4P1         0.0398
     34 H3        -25.4910    7.8965   49.6729 H         1 4P1         0.0398
     35 H4        -25.0441    7.7235   46.7172 H         1 4P1         0.0521
     36 H5        -21.4466   10.9461   48.1346 H         1 4P1         0.0489
     37 H6        -22.1752   10.8139   45.7791 H         1 4P1         0.0536
     38 H7        -25.6577   11.5600   42.6572 H         1 4P1         0.0628
     39 H8        -25.4209    9.6809   41.0751 H         1 4P1         0.0649
     40 H9        -23.4844    7.2756   44.0773 H         1 4P1         0.0655
     41 H10       -22.8105   14.3576   53.1947 H         1 4P1         0.0394
     42 H11       -21.5197   12.7019   54.4618 H         1 4P1         0.0479
     43 H12       -20.4568   13.8588   53.5908 H         1 4P1         0.0479
     44 H13       -19.5395   11.6012   53.5254 H         1 4P1         0.0517
     45 H14       -24.6426    8.3274   39.8565 H         1 4P1         0.1841
     46 H15       -24.5920    6.8517   38.1438 H         1 4P1         0.0483
     47 H16       -25.2229    5.6301   39.2998 H         1 4P1         0.0483
     48 H17       -23.4518    5.8810   39.1359 H         1 4P1         0.0483
     49 H18       -23.5499    6.4377   51.0608 H         1 4P1         0.0308
     50 H19       -24.2658    8.0140   51.5401 H         1 4P1         0.0308
     51 H20       -21.5762    7.5355   50.1397 H         1 4P1         0.0587
     52 H21       -21.8746    8.2755   51.7491 H         1 4P1         0.0587
@<TRIPOS>BOND
     1    1    2 1  
     2   28    1 am 
     3    1   29 2  
     4    2    3 1  
     5    2    4 1  
     6    3   17 2  
     7    3   30 1  
     8    4   19 2  
     9    4   31 1  
    10    7    5 1  
    11    5   26 1  
    12    7    6 ar 
    13    9    6 ar 
    14    6   28 1  
    15    8    7 ar 
    16   11    8 ar 
    17   10    9 ar 
    18   11   10 ar 
    19   25   11 1  
    20   13   12 ar 
    21   12   23 ar 
    22   14   13 ar 
    23   14   15 1  
    24   16   14 ar 
    25   15   20 2  
    26   15   21 am 
    27   16   25 ar 
    28   17   18 1  
    29   18   19 1  
    30   21   22 1  
    31   23   24 1  
    32   23   25 ar 
    33   26   27 1  
    34   27   28 1  
    35    2   32 1  
    36    5   33 1  
    37    5   34 1  
    38    8   35 1  
    39    9   36 1  
    40   10   37 1  
    41   12   38 1  
    42   13   39 1  
    43   16   40 1  
    44   17   41 1  
    45   18   42 1  
    46   18   43 1  
    47   19   44 1  
    48   21   45 1  
    49   22   46 1  
    50   22   47 1  
    51   22   48 1  
    52   26   49 1  
    53   26   50 1  
    54   27   51 1  
    55   27   52 1  
@<TRIPOS>SUBSTRUCTURE
     1 4P1         1

