### 
### Created by X-TOOL on Mon Sep 10 21:13:25 2018
### 

@<TRIPOS>MOLECULE
4zk5_ligand
   48    52     1     0     0
SMALL
GAST_HUCK


@<TRIPOS>ATOM
      1 C4        -21.7100    8.4090  -15.8860 C.ar      1 4P4        -0.0164
      2 C5        -20.7060    9.3200  -16.0990 C.ar      1 4P4         0.1353
      3 C6        -20.0920    9.4870  -17.3110 C.ar      1 4P4        -0.0259
      4 C11       -24.9430    4.4810  -16.1380 C.ar      1 4P4         0.0277
      5 C8        -23.1000    6.4980  -16.6950 C.ar      1 4P4         0.0548
      6 C9        -23.3130    5.4830  -17.6280 C.ar      1 4P4        -0.0227
      7 C10       -24.2070    4.4860  -17.3520 C.ar      1 4P4        -0.0310
      8 C12       -25.8990    3.4760  -15.7720 C.ar      1 4P4         0.0675
      9 C13       -26.5560    3.6950  -14.5570 C.ar      1 4P4         0.0126
     10 C3        -22.1380    7.6010  -16.9410 C.ar      1 4P4        -0.0000
     11 C1        -20.5210    8.7000  -18.3680 C.ar      1 4P4        -0.0605
     12 C2        -21.5320    7.7690  -18.1870 C.ar      1 4P4        -0.0538
     13 F7        -20.3080   10.0960  -15.0520 F         1 4P4        -0.1829
     14 N14       -26.3880    4.7300  -13.7260 N.ar      1 4P4        -0.2760
     15 C15       -25.4800    5.6920  -14.0470 C.ar      1 4P4         0.1442
     16 C16       -24.7030    5.5830  -15.2620 C.ar      1 4P4         0.1026
     17 N17       -23.7800    6.5490  -15.5530 N.ar      1 4P4        -0.2799
     18 N18       -25.3560    6.7730  -13.2560 N.pl3     1 4P4        -0.3105
     19 C19       -26.1850    2.2600  -16.6130 C.2       1 4P4         0.2007
     20 O20       -25.5500    2.0090  -17.6350 O.2       1 4P4        -0.3897
     21 N21       -27.1840    1.4770  -16.1690 N.am      1 4P4        -0.2808
     22 C22       -27.7190    0.3520  -16.9340 C.3       1 4P4         0.0816
     23 C23       -26.9030   -0.9720  -16.7770 C.3       1 4P4         0.0584
     24 N24       -28.0040   -1.5260  -15.9420 N.am      1 4P4        -0.2689
     25 C25       -28.9160   -0.3810  -16.1950 C.3       1 4P4         0.0584
     26 C26       -27.9290   -2.5430  -15.0550 C.2       1 4P4         0.1871
     27 O27       -26.8600   -3.0490  -14.7500 O.2       1 4P4        -0.4001
     28 C28       -29.2410   -3.0430  -14.4680 C.3       1 4P4         0.0862
     29 C29       -29.2490   -4.2300  -13.5380 C.2       1 4P4        -0.0573
     30 C30       -29.3920   -2.8700  -12.9780 C.2       1 4P4        -0.0573
     31 H1        -22.1667    8.3176  -14.9072 H         1 4P4         0.0629
     32 H2        -19.2960   10.2114  -17.4398 H         1 4P4         0.0623
     33 H3        -22.7722    5.4847  -18.5675 H         1 4P4         0.0737
     34 H4        -24.3559    3.6880  -18.0704 H         1 4P4         0.0755
     35 H5        -27.2791    2.9456  -14.2562 H         1 4P4         0.0816
     36 H6        -20.0625    8.8133  -19.3437 H         1 4P4         0.0614
     37 H7        -21.8565    7.1629  -19.0251 H         1 4P4         0.0611
     38 H8        -24.6720    7.5066  -13.4900 H         1 4P4         0.1848
     39 H9        -25.9451    6.8671  -12.4163 H         1 4P4         0.1848
     40 H10       -27.5801    1.6738  -15.2721 H         1 4P4         0.1844
     41 H11       -27.9199    0.6571  -17.9716 H         1 4P4         0.0595
     42 H12       -25.9474   -0.8540  -16.2451 H         1 4P4         0.0545
     43 H13       -26.7337   -1.5135  -17.7194 H         1 4P4         0.0545
     44 H14       -29.7741   -0.6168  -16.8415 H         1 4P4         0.0545
     45 H15       -29.2703    0.1281  -15.2866 H         1 4P4         0.0545
     46 H16       -30.0743   -2.8707  -15.1650 H         1 4P4         0.0640
     47 H17       -29.1913   -5.3071  -13.3880 H         1 4P4         0.0613
     48 H18       -29.5162   -2.2170  -12.1154 H         1 4P4         0.0613
@<TRIPOS>BOND
     1    1    2 ar 
     2   10    1 ar 
     3    2    3 ar 
     4    2   13 1  
     5    3   11 ar 
     6    7    4 ar 
     7    4    8 ar 
     8    4   16 ar 
     9    6    5 ar 
    10    5   10 1  
    11    5   17 ar 
    12    6    7 ar 
    13    8    9 ar 
    14    8   19 1  
    15    9   14 ar 
    16   10   12 ar 
    17   11   12 ar 
    18   14   15 ar 
    19   15   16 ar 
    20   15   18 1  
    21   16   17 ar 
    22   19   20 2  
    23   19   21 am 
    24   21   22 1  
    25   22   23 1  
    26   22   25 1  
    27   23   24 1  
    28   24   25 1  
    29   24   26 am 
    30   26   27 2  
    31   26   28 1  
    32   28   29 1  
    33   28   30 1  
    34   29   30 2  
    35    1   31 1  
    36    3   32 1  
    37    6   33 1  
    38    7   34 1  
    39    9   35 1  
    40   11   36 1  
    41   12   37 1  
    42   18   38 1  
    43   18   39 1  
    44   21   40 1  
    45   22   41 1  
    46   23   42 1  
    47   23   43 1  
    48   25   44 1  
    49   25   45 1  
    50   28   46 1  
    51   29   47 1  
    52   30   48 1  
@<TRIPOS>SUBSTRUCTURE
     1 4P4         1

