### 
### Created by X-TOOL on Mon Sep 10 21:13:23 2018
### 

@<TRIPOS>MOLECULE
4zl4_ligand
  100   101     1     0     0
SMALL
GAST_HUCK


@<TRIPOS>ATOM
      1 C10         0.5020  107.3970   39.2230 C.ar      1 4PK        -0.0578
      2 C02        -1.5940  104.1680   40.9690 C.2       1 4PK         0.3239
      3 O03        -0.9180  105.3330   41.0340 O.3       1 4PK        -0.2506
      4 C04        -1.5560  106.3500   40.2500 C.3       1 4PK         0.1113
      5 C05        -0.7000  106.6940   39.0480 C.ar      1 4PK        -0.0130
      6 C06        -1.1080  106.3070   37.7570 C.ar      1 4PK        -0.0578
      7 C07        -0.3160  106.6280   36.6440 C.ar      1 4PK        -0.0685
      8 C08         0.8850  107.3330   36.8240 C.ar      1 4PK        -0.0687
      9 C09         1.2960  107.7180   38.1110 C.ar      1 4PK        -0.0685
     10 O11        -2.8240  104.1470   40.9980 O.2       1 4PK        -0.3773
     11 N01        -0.8960  102.9900   40.8630 N.am      1 4PK        -0.2409
     12 C12        -1.6350  101.7240   40.8130 C.3       1 4PK         0.1365
     13 C13        -0.8570  100.6740   40.0130 C.3       1 4PK         0.0318
     14 C14        -0.3900  101.2040   38.6590 C.3       1 4PK         0.1678
     15 C20        -1.7470  101.0840   42.2230 C.2       1 4PK         0.2040
     16 O15        -1.5470  101.5320   37.9050 O.3       1 4PK        -0.0919
     17 N16        -2.4750  100.4880   37.8700 N.pl3     1 4PK        -0.0565
     18 C17        -2.6660   99.8710   36.6860 C.cat     1 4PK         0.2785
     19 N18        -1.9660  100.2500   35.6040 N.pl3     1 4PK        -0.3215
     20 N19        -3.5590   98.8760   36.5760 N.pl3     1 4PK        -0.3215
     21 O21        -0.9720  101.3290   43.1480 O.2       1 4PK        -0.3944
     22 N22        -2.7640  100.1870   42.4370 N.am      1 4PK        -0.2635
     23 C23        -2.9280   99.4850   43.7040 C.3       1 4PK         0.1331
     24 C27        -3.4310   98.0880   43.2350 C.2       1 4PK         0.2022
     25 O28        -4.6250   97.8800   42.9900 O.2       1 4PK        -0.3945
     26 C24        -3.9450  100.1490   44.6340 C.3       1 4PK        -0.0063
     27 C26        -3.7500   99.4340   45.9920 C.3       1 4PK        -0.0584
     28 C25        -3.6520  101.6620   44.7740 C.3       1 4PK        -0.0584
     29 N29        -2.5120   97.0820   43.0550 N.am      1 4PK        -0.2793
     30 C30        -2.9400   95.7660   42.5640 C.3       1 4PK         0.0703
     31 C31        -2.2220   95.4950   41.2210 C.3       1 4PK        -0.0250
     32 C32        -2.4610   96.6040   40.1770 C.3       1 4PK        -0.0446
     33 C33        -1.5460   96.3720   38.9600 C.3       1 4PK        -0.0626
     34 C34        -3.9290   96.6230   39.7060 C.3       1 4PK        -0.0626
     35 C35        -2.5290   94.6740   43.5630 C.3       1 4PK         0.0946
     36 O36        -1.1600   94.8820   43.9100 O.3       1 4PK        -0.3872
     37 C37        -3.4250   94.7120   44.8140 C.3       1 4PK         0.0654
     38 C38        -4.7930   94.0410   44.5080 C.2       1 4PK         0.1787
     39 O39        -5.7970   94.7280   44.3070 O.2       1 4PK        -0.3970
     40 C43        -6.2320   91.5420   46.6010 C.ar      1 4PK        -0.0411
     41 C44        -7.3760   92.1860   47.0820 C.ar      1 4PK        -0.0603
     42 C45        -7.3230   92.8510   48.3150 C.ar      1 4PK        -0.0686
     43 C46        -6.1280   92.8730   49.0520 C.ar      1 4PK        -0.0687
     44 C47        -4.9820   92.2340   48.5620 C.ar      1 4PK        -0.0686
     45 C48        -5.0370   91.5680   47.3320 C.ar      1 4PK        -0.0603
     46 C42        -6.2870   90.8410   45.2460 C.3       1 4PK         0.0011
     47 C41        -6.1430   91.9710   44.2110 C.3       1 4PK         0.0404
     48 N40        -4.8740   92.6610   44.4750 N.am      1 4PK        -0.2849
     49 H1          0.8173  107.6922   40.2173 H         1 4PK         0.0557
     50 H2         -1.6963  107.2502   40.8664 H         1 4PK         0.0776
     51 H3         -2.5350  105.9843   39.9068 H         1 4PK         0.0776
     52 H4         -2.0346  105.7607   37.6229 H         1 4PK         0.0557
     53 H5         -0.6300  106.3329   35.6493 H         1 4PK         0.0599
     54 H6          1.4982  107.5815   35.9653 H         1 4PK         0.0559
     55 H7          2.2242  108.2617   38.2450 H         1 4PK         0.0599
     56 H8          0.1031  102.9953   40.8205 H         1 4PK         0.1899
     57 H9         -2.6305  101.8962   40.3778 H         1 4PK         0.0800
     58 H10        -1.5078   99.8030   39.8463 H         1 4PK         0.0352
     59 H11         0.0242  100.3672   40.5955 H         1 4PK         0.0352
     60 H12         0.1931  100.4325   38.1349 H         1 4PK         0.0814
     61 H13         0.2318  102.1002   38.8010 H         1 4PK         0.0814
     62 H14        -2.9919  100.2014   38.7136 H         1 4PK         0.3886
     63 H15        -2.1153   99.7758   34.7019 H         1 4PK         0.1855
     64 H16        -1.2799  101.0148   35.6764 H         1 4PK         0.1855
     65 H17        -4.1012   98.5773   37.3992 H         1 4PK         0.1855
     66 H18        -3.7024   98.4107   35.6683 H         1 4PK         0.1855
     67 H19        -3.4145  100.0091   41.6986 H         1 4PK         0.1883
     68 H20        -1.9652   99.4035   44.2296 H         1 4PK         0.0802
     69 H21        -4.9690  100.0047   44.2592 H         1 4PK         0.0343
     70 H22        -4.4494   99.8528   46.7306 H         1 4PK         0.0234
     71 H23        -2.7171   99.5827   46.3397 H         1 4PK         0.0234
     72 H24        -3.9450   98.3582   45.8713 H         1 4PK         0.0234
     73 H25        -3.7951  102.1547   43.8010 H         1 4PK         0.0234
     74 H26        -2.6138  101.8051   45.1083 H         1 4PK         0.0234
     75 H27        -4.3388  102.1018   45.5122 H         1 4PK         0.0234
     76 H28        -1.5471   97.2471   43.2594 H         1 4PK         0.1856
     77 H29        -4.0308   95.7539   42.4229 H         1 4PK         0.0583
     78 H30        -2.5909   94.5429   40.8119 H         1 4PK         0.0291
     79 H31        -1.1411   95.4186   41.4103 H         1 4PK         0.0291
     80 H32        -2.2202   97.5763   40.6315 H         1 4PK         0.0296
     81 H33        -1.7176   97.1639   38.2160 H         1 4PK         0.0232
     82 H34        -1.7724   95.3931   38.5123 H         1 4PK         0.0232
     83 H35        -0.4945   96.3934   39.2824 H         1 4PK         0.0232
     84 H36        -4.5892   96.7884   40.5702 H         1 4PK         0.0232
     85 H37        -4.1756   95.6599   39.2353 H         1 4PK         0.0232
     86 H38        -4.0696   97.4343   38.9766 H         1 4PK         0.0232
     87 H39        -2.6346   93.6889   43.0852 H         1 4PK         0.0642
     88 H40        -0.8864   94.2150   44.5286 H         1 4PK         0.2101
     89 H41        -3.5907   95.7578   45.1119 H         1 4PK         0.0529
     90 H42        -2.9293   94.1714   45.6338 H         1 4PK         0.0529
     91 H43        -8.2949   92.1712   46.5072 H         1 4PK         0.0557
     92 H44        -8.2056   93.3488   48.6999 H         1 4PK         0.0599
     93 H45        -6.0922   93.3874   50.0055 H         1 4PK         0.0559
     94 H46        -4.0595   92.2550   49.1309 H         1 4PK         0.0599
     95 H47        -4.1543   91.0720   46.9448 H         1 4PK         0.0557
     96 H48        -7.2470   90.3192   45.1186 H         1 4PK         0.0446
     97 H49        -5.4620   90.1199   45.1493 H         1 4PK         0.0446
     98 H50        -6.9806   92.6773   44.3088 H         1 4PK         0.0542
     99 H51        -6.1356   91.5495   43.1950 H         1 4PK         0.0542
    100 H52        -4.0484   92.1198   44.6348 H         1 4PK         0.1852
@<TRIPOS>BOND
     1    5    1 ar 
     2    1    9 ar 
     3    2    3 1  
     4    2   10 2  
     5   11    2 am 
     6    3    4 1  
     7    4    5 1  
     8    5    6 ar 
     9    6    7 ar 
    10    7    8 ar 
    11    9    8 ar 
    12   12   11 1  
    13   12   13 1  
    14   15   12 1  
    15   13   14 1  
    16   14   16 1  
    17   15   21 2  
    18   22   15 am 
    19   16   17 1  
    20   17   18 ar 
    21   18   19 ar 
    22   18   20 ar 
    23   23   22 1  
    24   24   23 1  
    25   23   26 1  
    26   24   25 2  
    27   29   24 am 
    28   26   27 1  
    29   26   28 1  
    30   30   29 1  
    31   30   31 1  
    32   35   30 1  
    33   31   32 1  
    34   32   33 1  
    35   32   34 1  
    36   35   36 1  
    37   37   35 1  
    38   38   37 1  
    39   38   39 2  
    40   48   38 am 
    41   40   41 ar 
    42   40   45 ar 
    43   46   40 1  
    44   41   42 ar 
    45   42   43 ar 
    46   44   43 ar 
    47   45   44 ar 
    48   47   46 1  
    49   47   48 1  
    50    1   49 1  
    51    4   50 1  
    52    4   51 1  
    53    6   52 1  
    54    7   53 1  
    55    8   54 1  
    56    9   55 1  
    57   11   56 1  
    58   12   57 1  
    59   13   58 1  
    60   13   59 1  
    61   14   60 1  
    62   14   61 1  
    63   17   62 1  
    64   19   63 1  
    65   19   64 1  
    66   20   65 1  
    67   20   66 1  
    68   22   67 1  
    69   23   68 1  
    70   26   69 1  
    71   27   70 1  
    72   27   71 1  
    73   27   72 1  
    74   28   73 1  
    75   28   74 1  
    76   28   75 1  
    77   29   76 1  
    78   30   77 1  
    79   31   78 1  
    80   31   79 1  
    81   32   80 1  
    82   33   81 1  
    83   33   82 1  
    84   33   83 1  
    85   34   84 1  
    86   34   85 1  
    87   34   86 1  
    88   35   87 1  
    89   36   88 1  
    90   37   89 1  
    91   37   90 1  
    92   41   91 1  
    93   42   92 1  
    94   43   93 1  
    95   44   94 1  
    96   45   95 1  
    97   46   96 1  
    98   46   97 1  
    99   47   98 1  
   100   47   99 1  
   101   48  100 1  
@<TRIPOS>SUBSTRUCTURE
     1 4PK         1

