### 
### Created by X-TOOL on Mon Sep 10 21:13:23 2018
### 

@<TRIPOS>MOLECULE
4zla_ligand
   46    46     1     0     0
SMALL
GAST_HUCK


@<TRIPOS>ATOM
      1 N2         39.3680   15.4580  -14.7910 N.4       1 BES         0.2258
      2 C1         38.7840   16.6770  -15.1710 C.3       1 BES         0.0291
      3 C6         39.1510   17.0150  -16.6200 C.3       1 BES         0.0287
      4 C7         38.2630   16.3430  -17.7960 C.ar      1 BES        -0.0374
      5 C8         37.1140   16.9880  -18.2670 C.ar      1 BES        -0.0601
      6 C12        38.6540   15.1460  -18.3710 C.ar      1 BES        -0.0601
      7 C9         36.3530   16.4250  -19.2980 C.ar      1 BES        -0.0686
      8 C11        37.8870   14.5780  -19.4050 C.ar      1 BES        -0.0686
      9 C10        36.7410   15.2280  -19.8660 C.ar      1 BES        -0.0687
     10 C2         39.3640   17.8320  -14.3230 C.3       1 BES         0.1881
     11 O2         39.7030   17.4900  -13.0300 O.3       1 BES        -0.3664
     12 C3         38.2780   18.9340  -14.2940 C.2       1 BES         0.2125
     13 O3         37.1600   18.6610  -13.8220 O.2       1 BES        -0.3939
     14 N1         38.5830   20.2740  -14.8690 N.am      1 BES        -0.2691
     15 C4         37.6360   21.3550  -14.8890 C.3       1 BES         0.0946
     16 C13        38.3830   22.6300  -14.3390 C.3       1 BES        -0.0156
     17 C14        37.3940   23.7110  -13.9090 C.3       1 BES        -0.0431
     18 C15        36.6630   23.3040  -12.6660 C.3       1 BES        -0.0625
     19 C16        38.1870   25.0000  -13.6240 C.3       1 BES        -0.0625
     20 C5         37.1340   21.5810  -16.2290 C.2       1 BES         0.0601
     21 O1         35.9120   21.5760  -16.4460 O.co2     1 BES        -0.5666
     22 O4         37.8850   21.7750  -17.1600 O.co2     1 BES        -0.5666
     23 H1         38.9831   14.7125  -15.3496 H         1 BES         0.2001
     24 H2         39.1753   15.2822  -13.8173 H         1 BES         0.2001
     25 H3         40.3648   15.5042  -14.9333 H         1 BES         0.2001
     26 H4         37.6921   16.6178  -15.0514 H         1 BES         0.0926
     27 H5         40.1941   16.7029  -16.7764 H         1 BES         0.0484
     28 H6         39.0740   18.1065  -16.7327 H         1 BES         0.0484
     29 H7         36.8105   17.9322  -17.8294 H         1 BES         0.0557
     30 H8         39.5513   14.6461  -18.0246 H         1 BES         0.0557
     31 H9         35.4599   16.9283  -19.6502 H         1 BES         0.0599
     32 H10        38.1868   13.6335  -19.8445 H         1 BES         0.0599
     33 H11        36.1565   14.7935  -20.6689 H         1 BES         0.0559
     34 H12        40.2672   18.2138  -14.8214 H         1 BES         0.0898
     35 H13        38.9309   17.1767  -12.5737 H         1 BES         0.2136
     36 H14        39.4903   20.4288  -15.2599 H         1 BES         0.1875
     37 H15        36.7883   21.1136  -14.2309 H         1 BES         0.0726
     38 H16        39.0329   23.0332  -15.1296 H         1 BES         0.0308
     39 H17        38.9958   22.3402  -13.4727 H         1 BES         0.0308
     40 H18        36.6688   23.8881  -14.7169 H         1 BES         0.0297
     41 H19        35.9585   24.0983  -12.3783 H         1 BES         0.0232
     42 H20        37.3852   23.1421  -11.8523 H         1 BES         0.0232
     43 H21        36.1086   22.3729  -12.8549 H         1 BES         0.0232
     44 H22        38.7273   25.3064  -14.5319 H         1 BES         0.0232
     45 H23        38.9073   24.8157  -12.8133 H         1 BES         0.0232
     46 H24        37.4929   25.7986  -13.3233 H         1 BES         0.0232
@<TRIPOS>BOND
     1    1    2 1  
     2    2    3 1  
     3    2   10 1  
     4    3    4 1  
     5    4    5 ar 
     6    4    6 ar 
     7    5    7 ar 
     8    6    8 ar 
     9    7    9 ar 
    10    8    9 ar 
    11   10   11 1  
    12   10   12 1  
    13   12   13 2  
    14   12   14 am 
    15   14   15 1  
    16   15   16 1  
    17   15   20 1  
    18   16   17 1  
    19   17   18 1  
    20   17   19 1  
    21   20   21 ar 
    22   20   22 ar 
    23    1   23 1  
    24    1   24 1  
    25    1   25 1  
    26    2   26 1  
    27    3   27 1  
    28    3   28 1  
    29    5   29 1  
    30    6   30 1  
    31    7   31 1  
    32    8   32 1  
    33    9   33 1  
    34   10   34 1  
    35   11   35 1  
    36   14   36 1  
    37   15   37 1  
    38   16   38 1  
    39   16   39 1  
    40   17   40 1  
    41   18   41 1  
    42   18   42 1  
    43   18   43 1  
    44   19   44 1  
    45   19   45 1  
    46   19   46 1  
@<TRIPOS>SUBSTRUCTURE
     1 BES         1

