### 
### Created by X-TOOL on Mon Sep 10 21:13:24 2018
### 

@<TRIPOS>MOLECULE
4zlo_ligand
   43    46     1     0     0
SMALL
GAST_HUCK


@<TRIPOS>ATOM
      1 C1         43.0550    6.1570  -20.7940 C.3       1 4PV        -0.0102
      2 C2         42.4410    5.1790  -19.8020 C.3       1 4PV         0.0764
      3 C3         44.6400    4.8180  -18.8320 C.3       1 4PV         0.0764
      4 C11        41.1140    3.4270  -15.1810 C.ar      1 4PV         0.0629
      5 C12        43.3850    4.1640  -15.0990 C.ar      1 4PV         0.0770
      6 C13        44.2240    4.2830  -13.9870 C.ar      1 4PV        -0.0324
      7 C14        45.0820    5.3620  -13.8610 C.ar      1 4PV        -0.0320
      8 C15        45.0730    6.3140  -14.8440 C.ar      1 4PV         0.1269
      9 C16        44.2710    6.2500  -15.9600 C.ar      1 4PV        -0.0155
     10 C17        43.4220    5.1470  -16.1110 C.ar      1 4PV         0.0630
     11 F1         45.8930    7.3900  -14.7120 F         1 4PV        -0.1921
     12 C5         42.5730    4.9940  -17.3300 C.2       1 4PV         0.1225
     13 N1         43.2320    5.1550  -18.5600 N.pl3     1 4PV        -0.2692
     14 C4         45.2230    5.8050  -19.8380 C.3       1 4PV        -0.0102
     15 N          44.4470    5.8090  -21.0780 N.4       1 4PV         0.2361
     16 C          45.0250    6.7390  -22.0510 C.3       1 4PV        -0.0429
     17 N3         42.4850    3.0750  -15.1640 N.pl3     1 4PV        -0.2750
     18 C6         40.6040    4.2410  -16.2120 C.ar      1 4PV         0.0222
     19 N2         41.3330    4.6440  -17.3480 N.2       1 4PV        -0.3156
     20 C10        40.2750    2.9850  -14.1550 C.ar      1 4PV        -0.0475
     21 C9         38.9420    3.3580  -14.1340 C.ar      1 4PV        -0.0464
     22 C8         38.4770    4.1690  -15.1370 C.ar      1 4PV         0.1121
     23 F          37.1840    4.5730  -15.0910 F         1 4PV        -0.1957
     24 C7         39.2570    4.6210  -16.1730 C.ar      1 4PV        -0.0322
     25 H1         43.0169    7.1713  -20.3700 H         1 4PV         0.0835
     26 H2         42.4788    6.1291  -21.7306 H         1 4PV         0.0835
     27 H3         42.4278    4.1720  -20.2445 H         1 4PV         0.0588
     28 H4         41.4119    5.4920  -19.5719 H         1 4PV         0.0588
     29 H5         44.6987    3.7997  -19.2437 H         1 4PV         0.0588
     30 H6         45.2150    4.8687  -17.8956 H         1 4PV         0.0588
     31 H7         44.2024    3.5222  -13.2152 H         1 4PV         0.0529
     32 H8         45.7432    5.4504  -13.0066 H         1 4PV         0.0633
     33 H9         44.2959    7.0362  -16.7059 H         1 4PV         0.0642
     34 H10        46.2606    5.5179  -20.0639 H         1 4PV         0.0835
     35 H11        45.2086    6.8145  -19.4014 H         1 4PV         0.0835
     36 H12        44.4709    4.8819  -21.4729 H         1 4PV         0.2032
     37 H13        44.4254    6.7244  -22.9731 H         1 4PV         0.0778
     38 H14        46.0572    6.4355  -22.2800 H         1 4PV         0.0778
     39 H15        45.0264    7.7555  -21.6307 H         1 4PV         0.0778
     40 H16        42.8041    2.0962  -15.1966 H         1 4PV         0.2048
     41 H17        40.6695    2.3473  -13.3721 H         1 4PV         0.0487
     42 H18        38.2822    3.0174  -13.3442 H         1 4PV         0.0513
     43 H19        38.8389    5.2582  -16.9439 H         1 4PV         0.0505
@<TRIPOS>BOND
     1    2    1 1  
     2    1   15 1  
     3   13    2 1  
     4   13    3 1  
     5    3   14 1  
     6   17    4 1  
     7    4   18 ar 
     8    4   20 ar 
     9    5    6 ar 
    10   10    5 ar 
    11    5   17 1  
    12    6    7 ar 
    13    8    7 ar 
    14    9    8 ar 
    15    8   11 1  
    16   10    9 ar 
    17   12   10 1  
    18   12   13 1  
    19   12   19 2  
    20   14   15 1  
    21   15   16 1  
    22   18   19 1  
    23   18   24 ar 
    24   20   21 ar 
    25   21   22 ar 
    26   22   23 1  
    27   22   24 ar 
    28    1   25 1  
    29    1   26 1  
    30    2   27 1  
    31    2   28 1  
    32    3   29 1  
    33    3   30 1  
    34    6   31 1  
    35    7   32 1  
    36    9   33 1  
    37   14   34 1  
    38   14   35 1  
    39   15   36 1  
    40   16   37 1  
    41   16   38 1  
    42   16   39 1  
    43   17   40 1  
    44   20   41 1  
    45   21   42 1  
    46   24   43 1  
@<TRIPOS>SUBSTRUCTURE
     1 4PV         1

