### 
### Created by X-TOOL on Mon Sep 10 21:13:24 2018
### 

@<TRIPOS>MOLECULE
4zls_ligand
   91    93     1     0     0
SMALL
GAST_HUCK


@<TRIPOS>ATOM
      1 O39        10.9090   17.7640   20.8110 O.3       1 G61        -0.3212
      2 C40        10.1950   17.1420   19.7360 C.3       1 G61         0.0594
      3 C2         12.0050   18.4170   20.3460 C.ar      1 G61         0.0908
      4 C3         12.4990   18.1290   19.0740 C.ar      1 G61        -0.0313
      5 C4         13.6590   18.7650   18.6310 C.ar      1 G61        -0.0440
      6 C5         14.2730   19.7400   19.4000 C.ar      1 G61         0.0971
      7 C6         13.7610   20.0260   20.6510 C.ar      1 G61        -0.0440
      8 C7         12.6730   19.3190   21.1620 C.ar      1 G61        -0.0313
      9 S8         15.5860   20.7100   18.7530 S.o2      1 G61         0.0657
     10 O9         16.5140   21.0930   19.8450 O.2       1 G61        -0.1515
     11 O10        16.2280   19.9870   17.6150 O.2       1 G61        -0.1515
     12 N11        15.0120   22.0890   18.1010 N.am      1 G61        -0.2325
     13 C12        13.9010   21.9910   17.1940 C.3       1 G61         0.0319
     14 C13        14.1110   22.9590   16.0120 C.3       1 G61        -0.0296
     15 C14        15.5540   22.8430   15.5100 C.3       1 G61        -0.0612
     16 C15        13.1450   22.6230   14.8650 C.3       1 G61        -0.0612
     17 C16        14.9740   23.1970   19.0500 C.3       1 G61         0.0578
     18 C17        15.8520   24.3170   18.4630 C.3       1 G61         0.0967
     19 O18        15.3480   25.5510   18.9660 O.3       1 G61        -0.3877
     20 C19        17.3190   24.1050   18.8550 C.3       1 G61         0.0807
     21 N20        18.1730   25.1400   18.2570 N.am      1 G61        -0.2550
     22 C21        18.6310   25.0530   16.9980 C.2       1 G61         0.3204
     23 O22        18.4700   24.0130   16.3450 O.2       1 G61        -0.3775
     24 O23        19.2590   26.1440   16.5110 O.3       1 G61        -0.2581
     25 C24        19.7180   26.2270   15.1780 C.3       1 G61         0.0905
     26 C25        20.2150   27.6640   14.8550 C.3       1 G61        -0.0320
     27 C26        20.8990   25.2670   15.0340 C.3       1 G61        -0.0320
     28 C27        18.6460   25.9080   14.1420 C.3       1 G61        -0.0320
     29 C32        17.5300   24.0960   20.3700 C.3       1 G61         0.0064
     30 C33        19.8610   23.0510   20.4120 C.ar      1 G61        -0.0531
     31 C34        21.2330   23.1610   20.6250 C.ar      1 G61        -0.0299
     32 C35        21.7560   24.2500   21.3260 C.ar      1 G61        -0.0612
     33 C36        20.8950   25.2770   21.6920 C.ar      1 G61        -0.0677
     34 C37        19.5380   25.2220   21.3820 C.ar      1 G61        -0.0600
     35 C38        19.0230   24.1160   20.7230 C.ar      1 G61        -0.0402
     36 C51        22.1020   22.0880   20.3950 C.ar      1 G61        -0.0371
     37 C52        23.3910   22.3220   19.9150 C.ar      1 G61        -0.0369
     38 C53        24.2420   21.2440   19.6940 C.ar      1 G61         0.0827
     39 C54        23.7970   19.9400   19.9540 C.ar      1 G61        -0.0051
     40 C55        22.5140   19.7080   20.4310 C.ar      1 G61         0.0827
     41 C56        21.6640   20.7960   20.6520 C.ar      1 G61        -0.0369
     42 O61        25.5030   21.4390   19.2270 O.3       1 G61        -0.3241
     43 C62        25.7820   22.7900   18.8670 C.3       1 G61         0.0591
     44 O63        22.0360   18.4680   20.6980 O.3       1 G61        -0.3241
     45 C64        22.9870   17.4350   20.3910 C.3       1 G61         0.0591
     46 H1          9.3129   16.6200   20.1353 H         1 G61         0.0577
     47 H2         10.8512   16.4186   19.2300 H         1 G61         0.0577
     48 H3          9.8725   17.9097   19.0173 H         1 G61         0.0577
     49 H4         11.9868   17.4180   18.4359 H         1 G61         0.0542
     50 H5         14.0855   18.4926   17.6724 H         1 G61         0.0608
     51 H6         14.2123   20.8126   21.2448 H         1 G61         0.0608
     52 H7         12.3524   19.4725   22.1861 H         1 G61         0.0542
     53 H8         12.9728   22.2543   17.7223 H         1 G61         0.0480
     54 H9         13.8276   20.9610   16.8150 H         1 G61         0.0480
     55 H10        13.9243   23.9886   16.3512 H         1 G61         0.0311
     56 H11        15.7054   23.5329   14.6668 H         1 G61         0.0233
     57 H12        15.7452   21.8117   15.1787 H         1 G61         0.0233
     58 H13        16.2473   23.1012   16.3240 H         1 G61         0.0233
     59 H14        12.1081   22.7056   15.2229 H         1 G61         0.0233
     60 H15        13.3321   21.5965   14.5169 H         1 G61         0.0233
     61 H16        13.3033   23.3265   14.0343 H         1 G61         0.0233
     62 H17        15.3719   22.8752   20.0237 H         1 G61         0.0504
     63 H18        13.9407   23.5526   19.1755 H         1 G61         0.0504
     64 H19        15.7748   24.3109   17.3657 H         1 G61         0.0634
     65 H20        15.3970   25.5486   19.9148 H         1 G61         0.2100
     66 H21        17.6321   23.1265   18.4620 H         1 G61         0.0604
     67 H22        18.4219   25.9372   18.8070 H         1 G61         0.1873
     68 H23        20.5670   27.7048   13.8136 H         1 G61         0.0260
     69 H24        21.0412   27.9271   15.5319 H         1 G61         0.0260
     70 H25        19.3885   28.3770   14.9908 H         1 G61         0.0260
     71 H26        21.2811   25.3079   14.0033 H         1 G61         0.0260
     72 H27        20.5690   24.2428   15.2623 H         1 G61         0.0260
     73 H28        21.6967   25.5596   15.7326 H         1 G61         0.0260
     74 H29        19.0749   25.9927   13.1326 H         1 G61         0.0260
     75 H30        17.8121   26.6177   14.2467 H         1 G61         0.0260
     76 H31        18.2776   24.8835   14.2990 H         1 G61         0.0260
     77 H32        17.0742   23.1873   20.7903 H         1 G61         0.0449
     78 H33        17.0468   24.9834   20.8048 H         1 G61         0.0449
     79 H34        19.4469   22.1360   20.0042 H         1 G61         0.0561
     80 H35        22.8093   24.2928   21.5786 H         1 G61         0.0568
     81 H36        21.2854   26.1349   22.2274 H         1 G61         0.0601
     82 H37        18.8853   26.0430   21.6557 H         1 G61         0.0559
     83 H38        23.7259   23.3336   19.7163 H         1 G61         0.0456
     84 H39        24.4631   19.1026   19.7804 H         1 G61         0.0467
     85 H40        20.6599   20.6301   21.0252 H         1 G61         0.0456
     86 H41        26.8164   22.8656   18.5005 H         1 G61         0.0577
     87 H42        25.6567   23.4374   19.7474 H         1 G61         0.0577
     88 H43        25.0883   23.1093   18.0753 H         1 G61         0.0577
     89 H44        22.5501   16.4530   20.6253 H         1 G61         0.0577
     90 H45        23.8968   17.5841   20.9910 H         1 G61         0.0577
     91 H46        23.2418   17.4772   19.3218 H         1 G61         0.0577
@<TRIPOS>BOND
     1    1    2 1  
     2    3    1 1  
     3    4    3 ar 
     4    8    3 ar 
     5    5    4 ar 
     6    6    5 ar 
     7    6    7 ar 
     8    9    6 1  
     9    7    8 ar 
    10    9   10 2  
    11    9   11 2  
    12   12    9 am 
    13   12   13 1  
    14   17   12 1  
    15   13   14 1  
    16   14   15 1  
    17   14   16 1  
    18   18   17 1  
    19   18   19 1  
    20   20   18 1  
    21   20   21 1  
    22   29   20 1  
    23   21   22 am 
    24   22   23 2  
    25   22   24 1  
    26   24   25 1  
    27   25   26 1  
    28   25   27 1  
    29   25   28 1  
    30   35   29 1  
    31   30   31 ar 
    32   30   35 ar 
    33   31   32 ar 
    34   31   36 1  
    35   32   33 ar 
    36   33   34 ar 
    37   34   35 ar 
    38   36   37 ar 
    39   36   41 ar 
    40   37   38 ar 
    41   38   39 ar 
    42   38   42 1  
    43   39   40 ar 
    44   40   41 ar 
    45   40   44 1  
    46   42   43 1  
    47   44   45 1  
    48    2   46 1  
    49    2   47 1  
    50    2   48 1  
    51    4   49 1  
    52    5   50 1  
    53    7   51 1  
    54    8   52 1  
    55   13   53 1  
    56   13   54 1  
    57   14   55 1  
    58   15   56 1  
    59   15   57 1  
    60   15   58 1  
    61   16   59 1  
    62   16   60 1  
    63   16   61 1  
    64   17   62 1  
    65   17   63 1  
    66   18   64 1  
    67   19   65 1  
    68   20   66 1  
    69   21   67 1  
    70   26   68 1  
    71   26   69 1  
    72   26   70 1  
    73   27   71 1  
    74   27   72 1  
    75   27   73 1  
    76   28   74 1  
    77   28   75 1  
    78   28   76 1  
    79   29   77 1  
    80   29   78 1  
    81   30   79 1  
    82   32   80 1  
    83   33   81 1  
    84   34   82 1  
    85   37   83 1  
    86   39   84 1  
    87   41   85 1  
    88   43   86 1  
    89   43   87 1  
    90   43   88 1  
    91   45   89 1  
    92   45   90 1  
    93   45   91 1  
@<TRIPOS>SUBSTRUCTURE
     1 G61         1

