### 
### Created by X-TOOL on Mon Sep 10 21:13:21 2018
### 

@<TRIPOS>MOLECULE
4zly_ligand
   22    23     1     0     0
SMALL
GAST_HUCK


@<TRIPOS>ATOM
      1 N1         17.1950    4.9150    2.1170 N.am      1 4RU        -0.2945
      2 C4         19.4020    5.4900    1.2470 C.ar      1 4RU         0.2119
      3 C7         21.7980    6.6420    1.8130 C.ar      1 4RU         0.0102
      4 C8         23.0440    7.2380    2.1150 C.ar      1 4RU        -0.0515
      5 C10        23.6730    7.1930   -0.2320 C.ar      1 4RU        -0.0589
      6 C13        20.2620    5.7160    0.1480 C.ar      1 4RU         0.1569
      7 C2         18.0770    4.8470    1.0930 C.2       1 4RU         0.2490
      8 O3         17.8040    4.2140    0.0700 O.2       1 4RU        -0.3691
      9 N5         19.7640    5.8240    2.5000 N.ar      1 4RU        -0.2201
     10 N6         20.9060    6.3600    2.7900 N.ar      1 4RU        -0.3135
     11 C9         23.9380    7.4970    1.1070 C.ar      1 4RU        -0.0620
     12 C11        22.4640    6.6220   -0.5540 C.ar      1 4RU        -0.0431
     13 C12        21.5210    6.3250    0.4510 C.ar      1 4RU         0.0558
     14 N14        19.9030    5.3930   -1.1530 N.pl3     1 4RU        -0.2907
     15 H1         16.2954    4.4868    2.0313 H         1 4RU         0.1816
     16 H2         17.4428    5.3935    2.9594 H         1 4RU         0.1816
     17 H3         23.2922    7.4895    3.1398 H         1 4RU         0.0532
     18 H4         24.4067    7.4035   -1.0017 H         1 4RU         0.0554
     19 H5         24.8875    7.9555    1.3585 H         1 4RU         0.0697
     20 H6         22.2342    6.3984   -1.5895 H         1 4RU         0.0704
     21 H7         18.9900    4.9552   -1.3417 H         1 4RU         0.2038
     22 H8         20.5496    5.5911   -1.9299 H         1 4RU         0.2038
@<TRIPOS>BOND
     1    7    1 am 
     2    6    2 ar 
     3    2    7 1  
     4    2    9 ar 
     5    3    4 ar 
     6    3   10 ar 
     7   13    3 ar 
     8    4   11 ar 
     9   11    5 ar 
    10    5   12 ar 
    11    6   13 ar 
    12    6   14 1  
    13    7    8 2  
    14    9   10 ar 
    15   12   13 ar 
    16    1   15 1  
    17    1   16 1  
    18    4   17 1  
    19    5   18 1  
    20   11   19 1  
    21   12   20 1  
    22   14   21 1  
    23   14   22 1  
@<TRIPOS>SUBSTRUCTURE
     1 4RU         1

