### 
### Created by X-TOOL on Mon Sep 10 21:13:23 2018
### 

@<TRIPOS>MOLECULE
4zlz_ligand
   34    36     1     0     0
SMALL
GAST_HUCK


@<TRIPOS>ATOM
      1 C4        -22.5830    9.3550   -6.7420 C.ar      1 4RV         0.0003
      2 C6        -23.2120    7.9630   -4.9900 C.ar      1 4RV         0.0076
      3 C7        -22.2320    8.5140   -4.1430 C.ar      1 4RV         0.0066
      4 C8        -22.1080    8.0350   -2.7350 C.ar      1 4RV        -0.0017
      5 C10       -22.9880    8.0250   -0.4820 C.ar      1 4RV        -0.0585
      6 C13       -19.8600    6.0020   -0.5610 C.ar      1 4RV         0.1561
      7 C15       -18.9190    5.6570   -1.5550 C.ar      1 4RV         0.2111
      8 C1        -20.3380   10.2270   -3.8050 C.3       1 4RV        -0.0237
      9 C2        -21.4080    9.5540   -4.6480 C.ar      1 4RV        -0.0211
     10 C3        -21.6020    9.9700   -5.9680 C.ar      1 4RV        -0.0349
     11 N5        -23.3410    8.3880   -6.2370 N.ar      1 4RV        -0.3090
     12 C9        -23.0690    8.4210   -1.8010 C.ar      1 4RV        -0.0535
     13 C11       -21.9540    7.2300   -0.0600 C.ar      1 4RV        -0.0430
     14 C12       -20.9580    6.8180   -0.9600 C.ar      1 4RV         0.0574
     15 N14       -19.7460    5.6110    0.7560 N.pl3     1 4RV        -0.2913
     16 N16       -19.0890    6.0950   -2.8100 N.ar      1 4RV        -0.2175
     17 N17       -20.0760    6.8260   -3.1700 N.ar      1 4RV        -0.3047
     18 C18       -21.0340    7.2180   -2.3180 C.ar      1 4RV         0.0239
     19 C19       -17.7130    4.8590   -1.2960 C.2       1 4RV         0.2486
     20 N20       -16.7710    4.7780   -2.2590 N.am      1 4RV        -0.2945
     21 O21       -17.5250    4.3260   -0.2190 O.2       1 4RV        -0.3692
     22 H1        -22.7298    9.6692   -7.7690 H         1 4RV         0.0778
     23 H2        -23.8670    7.1836   -4.6177 H         1 4RV         0.0785
     24 H3        -23.7458    8.3441    0.2243 H         1 4RV         0.0559
     25 H4        -19.8304   10.9977   -4.4037 H         1 4RV         0.0419
     26 H5        -19.6045    9.4763   -3.4758 H         1 4RV         0.0419
     27 H6        -20.8044   10.6944   -2.9252 H         1 4RV         0.0419
     28 H7        -20.9942   10.7644   -6.3858 H         1 4RV         0.0639
     29 H8        -23.8967    9.0451   -2.1180 H         1 4RV         0.0693
     30 H9        -21.9049    6.9169    0.9767 H         1 4RV         0.0699
     31 H10       -18.9550    5.0212    1.0515 H         1 4RV         0.2034
     32 H11       -20.4519    5.9087    1.4445 H         1 4RV         0.2034
     33 H12       -15.9423    4.2403   -2.1038 H         1 4RV         0.1816
     34 H13       -16.9017    5.2557   -3.1277 H         1 4RV         0.1816
@<TRIPOS>BOND
     1   10    1 ar 
     2   11    1 ar 
     3    3    2 ar 
     4    2   11 ar 
     5    4    3 1  
     6    3    9 ar 
     7   12    4 ar 
     8    4   18 ar 
     9    5   12 ar 
    10   13    5 ar 
    11    6    7 ar 
    12   14    6 ar 
    13    6   15 1  
    14    7   16 ar 
    15    7   19 1  
    16    9    8 1  
    17    9   10 ar 
    18   13   14 ar 
    19   14   18 ar 
    20   16   17 ar 
    21   17   18 ar 
    22   19   20 am 
    23   19   21 2  
    24    1   22 1  
    25    2   23 1  
    26    5   24 1  
    27    8   25 1  
    28    8   26 1  
    29    8   27 1  
    30   10   28 1  
    31   12   29 1  
    32   13   30 1  
    33   15   31 1  
    34   15   32 1  
    35   20   33 1  
    36   20   34 1  
@<TRIPOS>SUBSTRUCTURE
     1 4RV         1

