### 
### Created by X-TOOL on Mon Sep 10 21:13:25 2018
### 

@<TRIPOS>MOLECULE
4zme_ligand
   32    34     1     0     0
SMALL
GAST_HUCK


@<TRIPOS>ATOM
      1 O5'        13.9680  -14.8590    7.9420 O.3       1 ADN        -0.3924
      2 C5'        14.5180  -14.1610    6.8270 C.3       1 ADN         0.0730
      3 C4'        15.0250  -12.8510    7.3700 C.3       1 ADN         0.1135
      4 O4'        16.4580  -12.7460    7.3270 O.3       1 ADN        -0.3368
      5 C3'        14.4520  -11.7030    6.5740 C.3       1 ADN         0.1146
      6 O3'        13.2030  -11.2660    7.1010 O.3       1 ADN        -0.3864
      7 C2'        15.5100  -10.6460    6.7110 C.3       1 ADN         0.1385
      8 O2'        15.2650   -9.8690    7.8930 O.3       1 ADN        -0.3836
      9 C1'        16.7940  -11.4440    6.8250 C.3       1 ADN         0.2010
     10 N9         17.5050  -11.5910    5.5300 N.pl3     1 ADN        -0.1919
     11 C8         17.4540  -12.6320    4.6610 C.2       1 ADN         0.1123
     12 N7         18.2960  -12.4180    3.5980 N.2       1 ADN        -0.2958
     13 C5         18.9040  -11.2360    3.8100 C.ar      1 ADN         0.1045
     14 C6         19.9070  -10.3980    3.1250 C.ar      1 ADN         0.1298
     15 N6         20.4580  -10.7800    1.9500 N.pl3     1 ADN        -0.3152
     16 N1         20.2650   -9.2290    3.6960 N.ar      1 ADN        -0.2698
     17 C2         19.7240   -8.8020    4.8690 C.ar      1 ADN         0.0533
     18 N3         18.8060   -9.5100    5.5310 N.ar      1 ADN        -0.2714
     19 C4         18.3670  -10.6980    5.0680 C.ar      1 ADN         0.1613
     20 H1         14.6452  -14.9953    8.5942 H         1 ADN         0.2095
     21 H2         13.7438  -13.9856    6.0655 H         1 ADN         0.0584
     22 H3         15.3439  -14.7371    6.3844 H         1 ADN         0.0584
     23 H4         14.6978  -12.7636    8.4166 H         1 ADN         0.0647
     24 H5         14.3172  -11.9873    5.5200 H         1 ADN         0.0648
     25 H6         12.5822  -11.9847    7.0785 H         1 ADN         0.2100
     26 H7         15.5337   -9.9864    5.8310 H         1 ADN         0.0676
     27 H8         14.4120   -9.4558    7.8278 H         1 ADN         0.2101
     28 H9         17.4637  -10.9370    7.5352 H         1 ADN         0.0996
     29 H10        16.8308  -13.5158    4.7892 H         1 ADN         0.1349
     30 H11        21.1564  -10.1793    1.4893 H         1 ADN         0.1820
     31 H12        20.1791  -11.6715    1.5161 H         1 ADN         0.1820
     32 H13        20.0498   -7.8536    5.2805 H         1 ADN         0.0996
@<TRIPOS>BOND
     1    1    2 1  
     2    2    3 1  
     3    3    4 1  
     4    3    5 1  
     5    4    9 1  
     6    5    6 1  
     7    5    7 1  
     8    7    8 1  
     9    7    9 1  
    10    9   10 1  
    11   10   11 1  
    12   10   19 1  
    13   11   12 2  
    14   12   13 1  
    15   13   14 ar 
    16   13   19 ar 
    17   14   15 1  
    18   14   16 ar 
    19   16   17 ar 
    20   17   18 ar 
    21   18   19 ar 
    22    1   20 1  
    23    2   21 1  
    24    2   22 1  
    25    3   23 1  
    26    5   24 1  
    27    6   25 1  
    28    7   26 1  
    29    8   27 1  
    30    9   28 1  
    31   11   29 1  
    32   15   30 1  
    33   15   31 1  
    34   17   32 1  
@<TRIPOS>SUBSTRUCTURE
     1 ADN         1

