### 
### Created by X-TOOL on Mon Sep 10 21:13:24 2018
### 

@<TRIPOS>MOLECULE
4zom_ligand
   65    69     1     0     0
SMALL
GAST_HUCK


@<TRIPOS>ATOM
      1 C15        45.7510  169.7330   -0.0140 C.ar      1 4Q3        -0.0459
      2 C17        44.1660  171.2850    1.0590 C.2       1 4Q3         0.0694
      3 O1         45.0540  175.5440    1.3240 O.2       1 4Q3        -0.3873
      4 C20        43.8680  175.6190    1.3190 C.2       1 4Q3         0.1967
      5 C21        43.3020  177.0740    1.3520 C.3       1 4Q3         0.0307
      6 N2         42.9860  174.5910    1.2500 N.am      1 4Q3        -0.2350
      7 C19        43.2940  173.2520    1.1270 C.2       1 4Q3         0.1083
      8 C18        44.4670  172.5720    1.1630 C.2       1 4Q3        -0.0217
      9 N3         42.2430  172.4410    0.9090 N.2       1 4Q3        -0.2226
     10 N4         42.8960  171.2220    0.8410 N.pl3     1 4Q3        -0.2212
     11 C22        42.0850  170.0280    0.5950 C.3       1 4Q3         0.0676
     12 C24        41.6390  170.2380   -0.7620 C.3       1 4Q3        -0.0344
     13 C23        40.8630  170.0450    1.5410 C.3       1 4Q3        -0.0344
     14 C16        45.0980  170.0870    1.0860 C.ar      1 4Q3        -0.0182
     15 C9         46.6190  168.6390   -0.0900 C.ar      1 4Q3         0.0664
     16 N1         47.1440  168.3170   -1.3010 N.pl3     1 4Q3        -0.3129
     17 C14        47.3720  166.9080   -1.7410 C.3       1 4Q3         0.0274
     18 C13        48.0670  167.1650   -3.1370 C.3       1 4Q3        -0.0169
     19 C12        49.3610  167.9930   -2.9640 C.3       1 4Q3        -0.0432
     20 C11        48.0660  168.6340   -3.4630 C.3       1 4Q3        -0.0169
     21 C10        47.2250  169.3310   -2.4010 C.3       1 4Q3         0.0274
     22 C25        45.2280  169.4000    2.2600 C.ar      1 4Q3        -0.0761
     23 C26        46.0360  168.2430    2.2610 C.ar      1 4Q3        -0.0479
     24 C8         46.7540  167.8320    1.1040 C.ar      1 4Q3         0.0919
     25 N          47.6460  166.8320    1.2360 N.am      1 4Q3        -0.2247
     26 C7         49.0340  167.1640    1.0260 C.3       1 4Q3         0.0428
     27 C          47.1840  165.6640    1.5740 C.2       1 4Q3         0.2326
     28 O          45.9640  165.3900    1.4460 O.2       1 4Q3        -0.3760
     29 C1         48.1790  164.6800    2.1380 C.ar      1 4Q3         0.1029
     30 C6         48.6030  164.6310    3.5550 C.ar      1 4Q3         0.1541
     31 F          48.0040  165.4570    4.4060 F         1 4Q3        -0.1774
     32 C5         49.5260  163.7000    3.9790 C.ar      1 4Q3        -0.0222
     33 C4         50.1440  162.8440    3.0520 C.ar      1 4Q3        -0.0590
     34 C3         49.7940  162.8460    1.7310 C.ar      1 4Q3        -0.0463
     35 C2         48.8230  163.7360    1.2950 C.ar      1 4Q3         0.0593
     36 CL         48.3350  163.9100   -0.3760 Cl        1 4Q3        -0.0658
     37 H1         45.6025  170.3280   -0.9078 H         1 4Q3         0.0471
     38 H2         42.2026  177.0400    1.3448 H         1 4Q3         0.0471
     39 H3         43.6575  177.6259    0.4694 H         1 4Q3         0.0471
     40 H4         43.6471  177.5811    2.2651 H         1 4Q3         0.0471
     41 H5         42.0153  174.8274    1.2925 H         1 4Q3         0.2204
     42 H6         45.4636  173.0004    1.2588 H         1 4Q3         0.0294
     43 H7         42.6604  169.0975    0.7089 H         1 4Q3         0.0648
     44 H8         41.0071  169.3938   -1.0750 H         1 4Q3         0.0259
     45 H9         42.5116  170.3095   -1.4279 H         1 4Q3         0.0259
     46 H10        41.0584  171.1707   -0.8170 H         1 4Q3         0.0259
     47 H11        40.2484  169.1505    1.3621 H         1 4Q3         0.0259
     48 H12        40.2629  170.9466    1.3487 H         1 4Q3         0.0259
     49 H13        41.2079  170.0499    2.5855 H         1 4Q3         0.0259
     50 H14        46.4265  166.3567   -1.8512 H         1 4Q3         0.0511
     51 H15        48.0338  166.3664   -1.0492 H         1 4Q3         0.0511
     52 H16        47.9371  166.3617   -3.8771 H         1 4Q3         0.0323
     53 H17        50.2076  167.8476   -3.6512 H         1 4Q3         0.0272
     54 H18        49.7409  168.2231   -1.9577 H         1 4Q3         0.0272
     55 H19        47.9685  169.0596   -4.4726 H         1 4Q3         0.0323
     56 H20        47.7156  170.2517   -2.0522 H         1 4Q3         0.0511
     57 H21        46.2241  169.5728   -2.7879 H         1 4Q3         0.0511
     58 H22        44.7266  169.7330    3.1615 H         1 4Q3         0.0490
     59 H23        46.1114  167.6523    3.1668 H         1 4Q3         0.0473
     60 H24        49.1193  168.2252    0.7492 H         1 4Q3         0.0549
     61 H25        49.4419  166.5402    0.2170 H         1 4Q3         0.0549
     62 H26        49.5992  166.9799    1.9516 H         1 4Q3         0.0549
     63 H27        49.7762  163.6277    5.0313 H         1 4Q3         0.0617
     64 H28        50.9174  162.1653    3.3930 H         1 4Q3         0.0642
     65 H29        50.2675  162.1631    1.0349 H         1 4Q3         0.0600
@<TRIPOS>BOND
     1   14    1 ar 
     2    1   15 ar 
     3    8    2 2  
     4    2   10 1  
     5    2   14 1  
     6    4    3 2  
     7    4    5 1  
     8    6    4 am 
     9    7    6 1  
    10    7    8 1  
    11    7    9 2  
    12    9   10 1  
    13   10   11 1  
    14   11   12 1  
    15   11   13 1  
    16   14   22 ar 
    17   15   16 1  
    18   15   24 ar 
    19   16   17 1  
    20   16   21 1  
    21   17   18 1  
    22   18   19 1  
    23   18   20 1  
    24   19   20 1  
    25   20   21 1  
    26   22   23 ar 
    27   23   24 ar 
    28   24   25 1  
    29   25   26 1  
    30   25   27 am 
    31   27   28 2  
    32   27   29 1  
    33   29   30 ar 
    34   29   35 ar 
    35   30   31 1  
    36   30   32 ar 
    37   32   33 ar 
    38   33   34 ar 
    39   34   35 ar 
    40   35   36 1  
    41    1   37 1  
    42    5   38 1  
    43    5   39 1  
    44    5   40 1  
    45    6   41 1  
    46    8   42 1  
    47   11   43 1  
    48   12   44 1  
    49   12   45 1  
    50   12   46 1  
    51   13   47 1  
    52   13   48 1  
    53   13   49 1  
    54   17   50 1  
    55   17   51 1  
    56   18   52 1  
    57   19   53 1  
    58   19   54 1  
    59   20   55 1  
    60   21   56 1  
    61   21   57 1  
    62   22   58 1  
    63   23   59 1  
    64   26   60 1  
    65   26   61 1  
    66   26   62 1  
    67   32   63 1  
    68   33   64 1  
    69   34   65 1  
@<TRIPOS>SUBSTRUCTURE
     1 4Q3         1

