### 
### Created by X-TOOL on Mon Sep 10 21:13:24 2018
### 

@<TRIPOS>MOLECULE
4zow_ligand
   32    32     1     0     0
SMALL
GAST_HUCK


@<TRIPOS>ATOM
      1 C1        -17.5680   10.0890   24.5440 C.3       1 CLM         0.1958
      2 CL1       -18.6100    9.9190   23.1360 Cl        1 CLM        -0.0800
      3 CL2       -15.8740    9.7580   24.1820 Cl        1 CLM        -0.0800
      4 C2        -17.7580   11.4690   25.1950 C.2       1 CLM         0.2096
      5 O2        -17.0470   11.8100   26.1070 O.2       1 CLM        -0.3941
      6 N2        -18.7840   12.3380   24.7190 N.am      1 CLM        -0.2748
      7 C3        -18.9840   13.6370   25.3390 C.3       1 CLM         0.1014
      8 C4        -20.3480   13.6530   25.9080 C.3       1 CLM         0.0715
      9 O4        -21.2490   13.1750   24.9220 O.3       1 CLM        -0.3925
     10 C5        -18.8380   14.7740   24.3260 C.3       1 CLM         0.1167
     11 O5        -18.7590   14.2480   23.0160 O.3       1 CLM        -0.3758
     12 C6        -17.5900   15.5610   24.6540 C.ar      1 CLM        -0.0065
     13 C7        -16.6350   15.7850   23.6990 C.ar      1 CLM        -0.0492
     14 C8        -15.4810   16.5190   24.0270 C.ar      1 CLM        -0.0252
     15 C9        -15.3090   17.0310   25.3620 C.ar      1 CLM         0.1925
     16 N9        -14.1830   17.7460   25.6890 N.2       1 CLM         0.3095
     17 O9A       -13.8920   17.9880   26.9960 O.2       1 CLM         0.1751
     18 O9B       -13.3630   18.2130   24.7100 O.2       1 CLM         0.1751
     19 C10       -16.2710   16.8000   26.3190 C.ar      1 CLM        -0.0252
     20 C11       -17.4100   16.0750   25.9950 C.ar      1 CLM        -0.0492
     21 H1        -17.8901    9.3353   25.2776 H         1 CLM         0.0879
     22 H2        -19.3664   12.0530   23.9577 H         1 CLM         0.1858
     23 H3        -18.2443   13.7760   26.1412 H         1 CLM         0.0629
     24 H4        -20.6198   14.6800   26.1932 H         1 CLM         0.0583
     25 H5        -20.3885   13.0033   26.7947 H         1 CLM         0.0583
     26 H6        -21.2081   13.7379   24.1577 H         1 CLM         0.2095
     27 H7        -19.7132   15.4369   24.3939 H         1 CLM         0.0795
     28 H8        -19.5499   13.7580   22.8245 H         1 CLM         0.2133
     29 H9        -16.7676   15.3985   22.6949 H         1 CLM         0.0575
     30 H10       -14.7212   16.6993   23.2751 H         1 CLM         0.0676
     31 H11       -16.1396   17.1836   27.3243 H         1 CLM         0.0676
     32 H12       -18.1672   15.8933   26.7491 H         1 CLM         0.0575
@<TRIPOS>BOND
     1    1    2 1  
     2    1    3 1  
     3    1    4 1  
     4    4    5 2  
     5    4    6 am 
     6    6    7 1  
     7    7    8 1  
     8    7   10 1  
     9    8    9 1  
    10   10   11 1  
    11   10   12 1  
    12   12   13 ar 
    13   12   20 ar 
    14   13   14 ar 
    15   14   15 ar 
    16   15   16 1  
    17   15   19 ar 
    18   16   17 2  
    19   16   18 2  
    20   19   20 ar 
    21    1   21 1  
    22    6   22 1  
    23    7   23 1  
    24    8   24 1  
    25    8   25 1  
    26    9   26 1  
    27   10   27 1  
    28   11   28 1  
    29   13   29 1  
    30   14   30 1  
    31   19   31 1  
    32   20   32 1  
@<TRIPOS>SUBSTRUCTURE
     1 CLM         1

