### 
### Created by X-TOOL on Mon Sep 10 21:13:23 2018
### 

@<TRIPOS>MOLECULE
4zpe_ligand
   74    78     1     0     0
SMALL
GAST_HUCK


@<TRIPOS>ATOM
      1 C1         29.5280   38.6570    0.5040 C.3       1 4QA         0.1403
      2 C3         28.6250   39.0090   -1.6560 C.2       1 4QA         0.3120
      3 C5         28.2340   37.9350    0.1560 C.2       1 4QA         0.1593
      4 C6         30.6660   37.6710    0.7530 C.3       1 4QA         0.0126
      5 N2         29.6140   39.3700   -0.7550 N.am      1 4QA        -0.2121
      6 N4         27.7340   38.1870   -1.0260 N.2       1 4QA        -0.1590
      7 C7         31.9600   38.2980    1.2680 C.3       1 4QA        -0.0323
      8 N8         31.6940   39.2300    2.3830 N.4       1 4QA         0.2464
      9 C9         30.5300   40.1860    2.2820 C.3       1 4QA        -0.0323
     10 C10        29.2640   39.5690    1.6970 C.3       1 4QA         0.0126
     11 O11        28.6080   39.2810   -2.8510 O.2       1 4QA        -0.3523
     12 N12        27.6430   37.1260    1.1120 N.pl3     1 4QA        -0.2866
     13 C13        30.5830   40.3360   -1.0990 C.ar      1 4QA         0.0634
     14 C14        26.4460   36.3600    0.7970 C.3       1 4QA         0.0447
     15 C15        26.8560   34.9320    0.4710 C.3       1 4QA        -0.0289
     16 C16        25.6250   34.0660    0.2170 C.3       1 4QA        -0.0509
     17 C17        24.6450   34.1180    1.3770 C.3       1 4QA        -0.0529
     18 C18        24.2530   35.5420    1.7350 C.3       1 4QA        -0.0509
     19 C19        25.4970   36.3920    1.9860 C.3       1 4QA        -0.0289
     20 C20        30.3650   41.6710   -0.8090 C.ar      1 4QA        -0.0453
     21 C21        31.2870   42.6330   -1.1680 C.ar      1 4QA        -0.0770
     22 C22        32.3970   42.2700   -1.8970 C.ar      1 4QA        -0.0435
     23 C23        32.5800   40.9400   -2.2260 C.ar      1 4QA         0.1193
     24 C24        31.6880   39.9630   -1.8370 C.ar      1 4QA        -0.0084
     25 F25        33.6250   40.5910   -2.9600 F         1 4QA        -0.1876
     26 C26        32.9320   39.7690    3.0510 C.3       1 4QA        -0.0006
     27 C27        33.6230   40.8050    2.2150 C.ar      1 4QA        -0.0075
     28 C28        34.5700   40.4720    1.2740 C.ar      1 4QA        -0.0664
     29 C29        35.1610   41.4490    0.4930 C.ar      1 4QA        -0.0770
     30 C30        34.8010   42.7730    0.6640 C.ar      1 4QA        -0.0401
     31 C31        33.8560   43.1110    1.6130 C.ar      1 4QA         0.0849
     32 C32        33.2740   42.1230    2.3860 C.ar      1 4QA        -0.0272
     33 O33        33.5060   44.4510    1.7320 O.3       1 4QA        -0.3171
     34 C34        32.3450   44.6200    2.5680 C.3       1 4QA         0.0755
     35 C35        32.8260   45.1600    3.8860 C.3       1 4QA        -0.0345
     36 C36        31.4100   45.6000    1.8740 C.3       1 4QA        -0.0345
     37 H1         30.8882   37.1593   -0.1950 H         1 4QA         0.0287
     38 H2         30.3240   36.9351    1.4956 H         1 4QA         0.0287
     39 H3         32.4435   38.8485    0.4476 H         1 4QA         0.0810
     40 H4         32.6306   37.5000    1.6194 H         1 4QA         0.0810
     41 H5         31.3491   38.5931    3.0841 H         1 4QA         0.2048
     42 H6         30.8303   41.0290    1.6424 H         1 4QA         0.0810
     43 H7         30.2987   40.5560    3.2917 H         1 4QA         0.0810
     44 H8         28.7684   38.9800    2.4828 H         1 4QA         0.0287
     45 H9         28.5978   40.3822    1.3731 H         1 4QA         0.0287
     46 H10        28.0541   37.0658    2.0545 H         1 4QA         0.1918
     47 H11        25.9445   36.8025   -0.0763 H         1 4QA         0.0568
     48 H12        27.4225   34.5161    1.3172 H         1 4QA         0.0288
     49 H13        27.4890   34.9337   -0.4286 H         1 4QA         0.0288
     50 H14        25.9472   33.0245    0.0705 H         1 4QA         0.0266
     51 H15        25.1194   34.4247   -0.6917 H         1 4QA         0.0266
     52 H16        25.1108   33.6475    2.2554 H         1 4QA         0.0265
     53 H17        23.7383   33.5602    1.0999 H         1 4QA         0.0265
     54 H18        23.6337   35.5294    2.6440 H         1 4QA         0.0266
     55 H19        23.6776   35.9786    0.9054 H         1 4QA         0.0266
     56 H20        25.1880   37.4318    2.1684 H         1 4QA         0.0288
     57 H21        26.0214   36.0045    2.8719 H         1 4QA         0.0288
     58 H22        29.4582   41.9652   -0.2931 H         1 4QA         0.0471
     59 H23        31.1383   43.6669   -0.8781 H         1 4QA         0.0568
     60 H24        33.1178   43.0172   -2.2088 H         1 4QA         0.0477
     61 H25        31.8510   38.9253   -2.1048 H         1 4QA         0.0487
     62 H26        33.6285   38.9367    3.2302 H         1 4QA         0.0979
     63 H27        32.6470   40.2221    4.0120 H         1 4QA         0.0979
     64 H28        34.8556   39.4345    1.1434 H         1 4QA         0.0466
     65 H29        35.9028   41.1779   -0.2495 H         1 4QA         0.0572
     66 H30        35.2592   43.5437    0.0549 H         1 4QA         0.0486
     67 H31        32.5359   42.3907    3.1334 H         1 4QA         0.0480
     68 H32        31.8319   43.6590    2.7202 H         1 4QA         0.0644
     69 H33        31.9674   45.3048    4.5582 H         1 4QA         0.0258
     70 H34        33.3320   46.1233    3.7249 H         1 4QA         0.0258
     71 H35        33.5304   44.4470    4.3393 H         1 4QA         0.0258
     72 H36        30.5116   45.7492    2.4910 H         1 4QA         0.0258
     73 H37        31.1182   45.1965    0.8932 H         1 4QA         0.0258
     74 H38        31.9242   46.5626    1.7363 H         1 4QA         0.0258
@<TRIPOS>BOND
     1    1    3 1  
     2    1    4 1  
     3    1    5 1  
     4    1   10 1  
     5    5    2 am 
     6    2    6 1  
     7    2   11 2  
     8    3    6 2  
     9    3   12 1  
    10    4    7 1  
    11    5   13 1  
    12    7    8 1  
    13    8    9 1  
    14    8   26 1  
    15    9   10 1  
    16   12   14 1  
    17   13   20 ar 
    18   13   24 ar 
    19   14   15 1  
    20   14   19 1  
    21   15   16 1  
    22   16   17 1  
    23   17   18 1  
    24   18   19 1  
    25   20   21 ar 
    26   21   22 ar 
    27   22   23 ar 
    28   23   24 ar 
    29   23   25 1  
    30   26   27 1  
    31   27   28 ar 
    32   27   32 ar 
    33   28   29 ar 
    34   29   30 ar 
    35   30   31 ar 
    36   31   32 ar 
    37   31   33 1  
    38   33   34 1  
    39   34   35 1  
    40   34   36 1  
    41    4   37 1  
    42    4   38 1  
    43    7   39 1  
    44    7   40 1  
    45    8   41 1  
    46    9   42 1  
    47    9   43 1  
    48   10   44 1  
    49   10   45 1  
    50   12   46 1  
    51   14   47 1  
    52   15   48 1  
    53   15   49 1  
    54   16   50 1  
    55   16   51 1  
    56   17   52 1  
    57   17   53 1  
    58   18   54 1  
    59   18   55 1  
    60   19   56 1  
    61   19   57 1  
    62   20   58 1  
    63   21   59 1  
    64   22   60 1  
    65   24   61 1  
    66   26   62 1  
    67   26   63 1  
    68   28   64 1  
    69   29   65 1  
    70   30   66 1  
    71   32   67 1  
    72   34   68 1  
    73   35   69 1  
    74   35   70 1  
    75   35   71 1  
    76   36   72 1  
    77   36   73 1  
    78   36   74 1  
@<TRIPOS>SUBSTRUCTURE
     1 4QA         1

