### 
### Created by X-TOOL on Mon Sep 10 21:13:23 2018
### 

@<TRIPOS>MOLECULE
4zpf_ligand
   77    81     1     0     0
SMALL
GAST_HUCK


@<TRIPOS>ATOM
      1 C1         29.3880   38.3760    0.4510 C.3       1 4QD         0.1403
      2 N2         29.4820   39.0890   -0.8100 N.am      1 4QD        -0.2121
      3 C3         28.4990   38.7390   -1.7080 C.2       1 4QD         0.3120
      4 N4         27.6520   37.8660   -1.1020 N.2       1 4QD        -0.1590
      5 C5         28.1100   37.6410    0.0940 C.2       1 4QD         0.1593
      6 C6         30.5040   37.3570    0.7180 C.3       1 4QD         0.0126
      7 C7         31.7970   37.9900    1.2240 C.3       1 4QD        -0.0323
      8 N8         31.5170   38.8690    2.4040 N.4       1 4QD         0.2464
      9 C9         30.4060   39.8730    2.2400 C.3       1 4QD        -0.0323
     10 C10        29.1240   39.2720    1.6580 C.3       1 4QD         0.0126
     11 O11        28.4100   39.1170   -2.8650 O.2       1 4QD        -0.3523
     12 N12        27.5260   36.8070    1.0300 N.pl3     1 4QD        -0.2866
     13 C13        30.4590   40.0380   -1.1720 C.ar      1 4QD         0.0634
     14 C14        26.2570   36.1490    0.7600 C.3       1 4QD         0.0447
     15 C15        26.4940   34.6900    0.4050 C.3       1 4QD        -0.0289
     16 C16        25.1650   33.9790    0.1260 C.3       1 4QD        -0.0509
     17 C17        24.2340   34.1000    1.3280 C.3       1 4QD        -0.0529
     18 C18        24.0080   35.5640    1.6780 C.3       1 4QD        -0.0509
     19 C19        25.3390   36.2500    1.9670 C.3       1 4QD        -0.0289
     20 C20        30.2510   41.3720   -0.8800 C.ar      1 4QD        -0.0453
     21 C21        31.1900   42.3170   -1.2340 C.ar      1 4QD        -0.0770
     22 C22        32.3140   41.9380   -1.9350 C.ar      1 4QD        -0.0435
     23 C23        32.4980   40.6070   -2.2460 C.ar      1 4QD         0.1193
     24 C24        31.5760   39.6470   -1.8870 C.ar      1 4QD        -0.0084
     25 F25        33.5810   40.2490   -2.9350 F         1 4QD        -0.1876
     26 C26        32.7650   39.4110    3.0430 C.3       1 4QD        -0.0006
     27 C27        33.4470   40.4730    2.2280 C.ar      1 4QD        -0.0075
     28 C28        34.4030   40.1510    1.2770 C.ar      1 4QD        -0.0664
     29 C29        35.0070   41.1390    0.5170 C.ar      1 4QD        -0.0770
     30 C30        34.6360   42.4570    0.7070 C.ar      1 4QD        -0.0401
     31 C31        33.6780   42.7840    1.6530 C.ar      1 4QD         0.0852
     32 C32        33.0910   41.7940    2.4200 C.ar      1 4QD        -0.0272
     33 O33        33.3600   44.1370    1.7710 O.3       1 4QD        -0.3116
     34 C34        32.4870   44.4780    2.8650 C.3       1 4QD         0.1176
     35 C35        31.9640   45.8730    2.5670 C.3       1 4QD        -0.0043
     36 C36        33.3070   44.5620    4.1480 C.3       1 4QD        -0.0292
     37 N37        31.1010   45.8060    1.3640 N.4       1 4QD         0.2206
     38 H1         30.7208   36.8242   -0.2196 H         1 4QD         0.0287
     39 H2         30.1482   36.6406    1.4731 H         1 4QD         0.0287
     40 H3         32.2449   38.5929    0.4203 H         1 4QD         0.0810
     41 H4         32.4980   37.1960    1.5210 H         1 4QD         0.0810
     42 H5         31.1510   38.2304    3.0927 H         1 4QD         0.2048
     43 H6         30.7536   40.6708    1.5673 H         1 4QD         0.0810
     44 H7         30.1739   40.3004    3.2266 H         1 4QD         0.0810
     45 H8         28.6298   38.6746    2.4383 H         1 4QD         0.0287
     46 H9         28.4598   40.0924    1.3486 H         1 4QD         0.0287
     47 H10        27.9969   36.6493    1.9324 H         1 4QD         0.1918
     48 H11        25.7745   36.6480   -0.0933 H         1 4QD         0.0568
     49 H12        27.0011   34.1916    1.2443 H         1 4QD         0.0288
     50 H13        27.1285   34.6348   -0.4918 H         1 4QD         0.0288
     51 H14        25.3587   32.9153   -0.0766 H         1 4QD         0.0266
     52 H15        24.6856   34.4380   -0.7512 H         1 4QD         0.0266
     53 H16        24.6858   33.5868    2.1897 H         1 4QD         0.0265
     54 H17        23.2683   33.6316    1.0873 H         1 4QD         0.0265
     55 H18        23.3652   35.6294    2.5682 H         1 4QD         0.0266
     56 H19        23.5161   36.0676    0.8327 H         1 4QD         0.0266
     57 H20        25.1582   37.3102    2.1978 H         1 4QD         0.0288
     58 H21        25.8183   35.7635    2.8293 H         1 4QD         0.0288
     59 H22        29.3446   41.6773   -0.3698 H         1 4QD         0.0471
     60 H23        31.0445   43.3560   -0.9615 H         1 4QD         0.0568
     61 H24        33.0457   42.6779   -2.2388 H         1 4QD         0.0477
     62 H25        31.7235   38.6082   -2.1593 H         1 4QD         0.0487
     63 H26        33.4698   38.5793    3.1895 H         1 4QD         0.0979
     64 H27        32.4970   39.8409    4.0194 H         1 4QD         0.0979
     65 H28        34.6810   39.1141    1.1265 H         1 4QD         0.0466
     66 H29        35.7614   40.8818   -0.2178 H         1 4QD         0.0572
     67 H30        35.0967   43.2382    0.1132 H         1 4QD         0.0486
     68 H31        32.3531   42.0541    3.1703 H         1 4QD         0.0480
     69 H32        31.6684   43.7502    2.9658 H         1 4QD         0.0701
     70 H33        32.8079   46.5534    2.3805 H         1 4QD         0.0843
     71 H34        31.3790   46.2404    3.4230 H         1 4QD         0.0843
     72 H35        32.6469   44.8222    4.9886 H         1 4QD         0.0260
     73 H36        34.0822   45.3346    4.0378 H         1 4QD         0.0260
     74 H37        33.7833   43.5898    4.3431 H         1 4QD         0.0260
     75 H38        30.7460   46.7256    1.1535 H         1 4QD         0.1995
     76 H39        30.3303   45.1800    1.5378 H         1 4QD         0.1995
     77 H40        31.6397   45.4669    0.5825 H         1 4QD         0.1995
@<TRIPOS>BOND
     1    1    2 1  
     2    1    5 1  
     3    1    6 1  
     4    1   10 1  
     5    2    3 am 
     6    2   13 1  
     7    3    4 1  
     8    3   11 2  
     9    4    5 2  
    10    5   12 1  
    11    6    7 1  
    12    7    8 1  
    13    8    9 1  
    14    8   26 1  
    15    9   10 1  
    16   12   14 1  
    17   13   20 ar 
    18   13   24 ar 
    19   14   15 1  
    20   14   19 1  
    21   15   16 1  
    22   16   17 1  
    23   17   18 1  
    24   18   19 1  
    25   20   21 ar 
    26   21   22 ar 
    27   22   23 ar 
    28   23   24 ar 
    29   23   25 1  
    30   26   27 1  
    31   27   28 ar 
    32   27   32 ar 
    33   28   29 ar 
    34   29   30 ar 
    35   30   31 ar 
    36   31   32 ar 
    37   31   33 1  
    38   33   34 1  
    39   34   35 1  
    40   34   36 1  
    41   35   37 1  
    42    6   38 1  
    43    6   39 1  
    44    7   40 1  
    45    7   41 1  
    46    8   42 1  
    47    9   43 1  
    48    9   44 1  
    49   10   45 1  
    50   10   46 1  
    51   12   47 1  
    52   14   48 1  
    53   15   49 1  
    54   15   50 1  
    55   16   51 1  
    56   16   52 1  
    57   17   53 1  
    58   17   54 1  
    59   18   55 1  
    60   18   56 1  
    61   19   57 1  
    62   19   58 1  
    63   20   59 1  
    64   21   60 1  
    65   22   61 1  
    66   24   62 1  
    67   26   63 1  
    68   26   64 1  
    69   28   65 1  
    70   29   66 1  
    71   30   67 1  
    72   32   68 1  
    73   34   69 1  
    74   35   70 1  
    75   35   71 1  
    76   36   72 1  
    77   36   73 1  
    78   36   74 1  
    79   37   75 1  
    80   37   76 1  
    81   37   77 1  
@<TRIPOS>SUBSTRUCTURE
     1 4QD         1

