### 
### Created by X-TOOL on Mon Sep 10 21:13:22 2018
### 

@<TRIPOS>MOLECULE
4zpg_ligand
   67    71     1     0     0
SMALL
GAST_HUCK


@<TRIPOS>ATOM
      1 C1         29.2290   39.6190    1.5660 C.3       1 4QF         0.0126
      2 C2         30.5060   40.2140    2.1450 C.3       1 4QF        -0.0320
      3 C4         31.8630   38.2230    1.3030 C.3       1 4QF        -0.0241
      4 C5         30.5700   37.5900    0.8120 C.3       1 4QF         0.0152
      5 C6         29.4990   38.6220    0.4450 C.3       1 4QF         0.1406
      6 C7         28.2100   37.8830    0.1150 C.2       1 4QF         0.1593
      7 C9         28.6520   38.8630   -1.7530 C.2       1 4QF         0.3120
      8 C12        30.6880   40.1050   -1.3000 C.ar      1 4QF         0.0634
      9 C13        30.6030   41.4730   -1.1000 C.ar      1 4QF        -0.0453
     10 C14        31.6100   42.3040   -1.5480 C.ar      1 4QF        -0.0770
     11 C15        32.6970   41.7880   -2.2360 C.ar      1 4QF        -0.0435
     12 C16        32.7630   40.4290   -2.4520 C.ar      1 4QF         0.1193
     13 C17        31.7650   39.5910   -1.9990 C.ar      1 4QF        -0.0084
     14 C20        26.3330   36.4040    0.8130 C.3       1 4QF         0.0447
     15 C21        25.4020   36.4510    2.0200 C.3       1 4QF        -0.0289
     16 C22        24.1000   35.6870    1.7430 C.3       1 4QF        -0.0509
     17 N3         31.5970   39.2010    2.4100 N.4       1 4QF         0.2485
     18 N8         27.7800   38.0510   -1.1010 N.2       1 4QF        -0.1590
     19 N10        29.6520   39.2390   -0.8700 N.am      1 4QF        -0.2121
     20 O11        28.5370   39.1760   -2.9320 O.2       1 4QF        -0.3523
     21 F18        33.7960   39.9040   -3.1380 F         1 4QF        -0.1876
     22 N19        27.5740   37.1230    1.0860 N.pl3     1 4QF        -0.2866
     23 C23        24.3810   34.2480    1.3240 C.3       1 4QF        -0.0529
     24 C24        25.3280   34.2070    0.1310 C.3       1 4QF        -0.0509
     25 C25        26.6310   34.9630    0.4220 C.3       1 4QF        -0.0289
     26 C26        32.8280   39.8400    3.0120 C.3       1 4QF         0.0022
     27 C27        33.5130   40.8770    2.1580 C.ar      1 4QF         0.0014
     28 C28        34.4640   40.5010    1.2250 C.ar      1 4QF        -0.0553
     29 C29        35.0920   41.4450    0.4280 C.ar      1 4QF        -0.0684
     30 C30        34.7430   42.7750    0.5560 C.ar      1 4QF        -0.0687
     31 C31        33.7980   43.1710    1.4910 C.ar      1 4QF        -0.0684
     32 C32        33.1950   42.2210    2.2960 C.ar      1 4QF        -0.0553
     33 C33        32.8450   37.1520    1.7360 C.3       1 4QF        -0.0220
     34 H1         28.6091   40.4360    1.1683 H         1 4QF         0.0287
     35 H2         28.6844   39.1040    2.3711 H         1 4QF         0.0287
     36 H3         30.2562   40.7085    3.0953 H         1 4QF         0.0810
     37 H4         30.8925   40.9593    1.4343 H         1 4QF         0.0810
     38 H5         32.3116   38.7761    0.4647 H         1 4QF         0.0844
     39 H6         30.1735   36.9412    1.6069 H         1 4QF         0.0289
     40 H7         30.7926   36.9842   -0.0788 H         1 4QF         0.0289
     41 H8         29.7431   41.8922   -0.5902 H         1 4QF         0.0471
     42 H9         31.5502   43.3699   -1.3600 H         1 4QF         0.0568
     43 H10        33.4817   42.4425   -2.5979 H         1 4QF         0.0477
     44 H11        31.8252   38.5260   -2.1916 H         1 4QF         0.0487
     45 H12        25.8276   36.8949   -0.0317 H         1 4QF         0.0568
     46 H13        25.1616   37.4999    2.2478 H         1 4QF         0.0288
     47 H14        25.9093   35.9953    2.8831 H         1 4QF         0.0288
     48 H15        23.5513   36.1946    0.9360 H         1 4QF         0.0266
     49 H16        23.4867   35.6811    2.6561 H         1 4QF         0.0266
     50 H17        31.2266   38.6261    3.1505 H         1 4QF         0.2050
     51 H18        27.9894   37.0643    2.0267 H         1 4QF         0.1918
     52 H19        23.4338   33.7608    1.0494 H         1 4QF         0.0265
     53 H20        24.8393   33.7099    2.1668 H         1 4QF         0.0265
     54 H21        24.8322   34.6694   -0.7352 H         1 4QF         0.0266
     55 H22        25.5670   33.1584   -0.0999 H         1 4QF         0.0266
     56 H23        27.1617   34.4659    1.2473 H         1 4QF         0.0288
     57 H24        27.2633   34.9551   -0.4781 H         1 4QF         0.0288
     58 H25        33.5549   39.0414    3.2212 H         1 4QF         0.0980
     59 H26        32.5312   40.3220    3.9552 H         1 4QF         0.0980
     60 H27        34.7211   39.4536    1.1163 H         1 4QF         0.0558
     61 H28        35.8483   41.1429   -0.2875 H         1 4QF         0.0599
     62 H29        35.2121   43.5167   -0.0804 H         1 4QF         0.0559
     63 H30        33.5338   44.2176    1.5903 H         1 4QF         0.0599
     64 H31        32.4690   42.5285    3.0399 H         1 4QF         0.0558
     65 H32        33.0170   36.4540    0.9034 H         1 4QF         0.0284
     66 H33        32.4333   36.6029    2.5956 H         1 4QF         0.0284
     67 H34        33.7972   37.6220    2.0230 H         1 4QF         0.0284
@<TRIPOS>BOND
     1    1    2 1  
     2    5    1 1  
     3    2   17 1  
     4    4    3 1  
     5    3   17 1  
     6    3   33 1  
     7    5    4 1  
     8    6    5 1  
     9    5   19 1  
    10    6   18 2  
    11   22    6 1  
    12   18    7 1  
    13    7   19 am 
    14    7   20 2  
    15    8    9 ar 
    16    8   13 ar 
    17   19    8 1  
    18    9   10 ar 
    19   10   11 ar 
    20   12   11 ar 
    21   13   12 ar 
    22   12   21 1  
    23   14   15 1  
    24   14   22 1  
    25   14   25 1  
    26   15   16 1  
    27   16   23 1  
    28   17   26 1  
    29   23   24 1  
    30   24   25 1  
    31   26   27 1  
    32   27   28 ar 
    33   27   32 ar 
    34   28   29 ar 
    35   29   30 ar 
    36   30   31 ar 
    37   31   32 ar 
    38    1   34 1  
    39    1   35 1  
    40    2   36 1  
    41    2   37 1  
    42    3   38 1  
    43    4   39 1  
    44    4   40 1  
    45    9   41 1  
    46   10   42 1  
    47   11   43 1  
    48   13   44 1  
    49   14   45 1  
    50   15   46 1  
    51   15   47 1  
    52   16   48 1  
    53   16   49 1  
    54   17   50 1  
    55   22   51 1  
    56   23   52 1  
    57   23   53 1  
    58   24   54 1  
    59   24   55 1  
    60   25   56 1  
    61   25   57 1  
    62   26   58 1  
    63   26   59 1  
    64   28   60 1  
    65   29   61 1  
    66   30   62 1  
    67   31   63 1  
    68   32   64 1  
    69   33   65 1  
    70   33   66 1  
    71   33   67 1  
@<TRIPOS>SUBSTRUCTURE
     1 4QF         1

