### 
### Created by X-TOOL on Mon Sep 10 21:13:23 2018
### 

@<TRIPOS>MOLECULE
4zph_ligand
   27    29     1     0     0
SMALL
GAST_HUCK


@<TRIPOS>ATOM
      1 C1        169.9000 -110.3160 -113.5030 C.ar      1 PRL        -0.0483
      2 C2        168.9990 -111.3080 -113.8620 C.ar      1 PRL        -0.0317
      3 C3        168.9840 -112.5160 -113.1650 C.ar      1 PRL         0.0415
      4 C4        169.8650 -112.7300 -112.1130 C.ar      1 PRL        -0.0313
      5 C5        173.3650 -111.2110 -109.3470 C.ar      1 PRL        -0.0313
      6 C6        174.2600 -110.2240 -108.9800 C.ar      1 PRL         0.0415
      7 C7        174.2930 -109.0180 -109.6580 C.ar      1 PRL        -0.0317
      8 C8        173.4200 -108.7890 -110.7070 C.ar      1 PRL        -0.0483
      9 C9        171.6600 -109.5560 -112.0940 C.ar      1 PRL        -0.0279
     10 N10       171.6150 -111.9500 -110.7440 N.ar      1 PRL        -0.3286
     11 C11       170.7560 -111.7350 -111.7620 C.ar      1 PRL         0.0162
     12 C12       172.5170 -109.7770 -111.0700 C.ar      1 PRL         0.0016
     13 C13       170.7780 -110.5310 -112.4490 C.ar      1 PRL         0.0016
     14 C14       172.4930 -110.9820 -110.3930 C.ar      1 PRL         0.0162
     15 N15       168.0660 -113.5430 -113.5290 N.pl3     1 PRL        -0.3324
     16 N16       175.1610 -110.4530 -107.9160 N.pl3     1 PRL        -0.3324
     17 H1        169.9185 -109.3765 -114.0434 H         1 PRL         0.0666
     18 H2        168.3088 -111.1447 -114.6817 H         1 PRL         0.0587
     19 H3        169.8534 -113.6695 -111.5723 H         1 PRL         0.0438
     20 H4        173.3476 -112.1571 -108.8182 H         1 PRL         0.0438
     21 H5        175.0031 -108.2523 -109.3672 H         1 PRL         0.0587
     22 H6        173.4418 -107.8455 -111.2404 H         1 PRL         0.0666
     23 H7        171.6755 -108.6119 -112.6265 H         1 PRL         0.0848
     24 H8        167.4086 -113.3938 -114.3078 H         1 PRL         0.1756
     25 H9        168.0597 -114.4346 -113.0133 H         1 PRL         0.1756
     26 H10       175.1409 -111.3487 -107.4079 H         1 PRL         0.1756
     27 H11       175.8379 -109.7242 -107.6485 H         1 PRL         0.1756
@<TRIPOS>BOND
     1    1    2 ar 
     2   13    1 ar 
     3    2    3 ar 
     4    3    4 ar 
     5    3   15 1  
     6    4   11 ar 
     7    6    5 ar 
     8    5   14 ar 
     9    7    6 ar 
    10    6   16 1  
    11    8    7 ar 
    12   12    8 ar 
    13    9   12 ar 
    14    9   13 ar 
    15   11   10 ar 
    16   10   14 ar 
    17   11   13 ar 
    18   12   14 ar 
    19    1   17 1  
    20    2   18 1  
    21    4   19 1  
    22    5   20 1  
    23    7   21 1  
    24    8   22 1  
    25    9   23 1  
    26   15   24 1  
    27   15   25 1  
    28   16   26 1  
    29   16   27 1  
@<TRIPOS>SUBSTRUCTURE
     1 PRL         1

