### 
### Created by X-TOOL on Mon Sep 10 21:13:22 2018
### 

@<TRIPOS>MOLECULE
4zro_ligand
   97    97     1     0     0
SMALL
GAST_HUCK


@<TRIPOS>ATOM
      1 O1         46.3520   -8.4620   26.4790 O.2       1 BOC        -0.3774
      2 C          45.8190   -9.3170   27.1360 C.2       1 BOC         0.3224
      3 O2         46.2820  -10.6720   27.1770 O.3       1 BOC        -0.2580
      4 CT         47.5920  -10.9870   26.7090 C.3       1 BOC         0.0905
      5 C1         47.6530  -10.8970   25.1990 C.3       1 BOC        -0.0320
      6 C2         47.8320  -12.4660   27.1190 C.3       1 BOC        -0.0320
      7 C3         48.7090  -10.1040   27.3450 C.3       1 BOC        -0.0320
      8 N          44.6140   -8.9840   27.9380 N.am      1 SER        -0.2389
      9 CA         44.2330   -7.5840   28.0260 C.3       1 SER         0.1556
     10 C          45.2150   -6.8660   28.9420 C.2       1 SER         0.2061
     11 O          45.7290   -7.4360   29.8620 O.2       1 SER        -0.3943
     12 CB         42.8890   -7.4250   28.6100 C.3       1 SER         0.0843
     13 OG         42.0210   -8.3630   28.0040 O.3       1 SER        -0.3903
     14 N          45.5270   -5.4490   28.6530 N.am      1 VAL        -0.2634
     15 CA         46.4070   -4.7340   29.4750 C.3       1 VAL         0.1332
     16 C          45.5930   -3.5500   30.0280 C.2       1 VAL         0.2041
     17 O          45.0690   -2.7380   29.2920 O.2       1 VAL        -0.3944
     18 CB         47.5930   -4.2180   28.6700 C.3       1 VAL        -0.0063
     19 CG1        48.4910   -3.3440   29.5670 C.3       1 VAL        -0.0584
     20 CG2        48.3930   -5.4030   28.0670 C.3       1 VAL        -0.0584
     21 N          45.4530   -3.4180   31.4680 N.am      1 LEU        -0.2637
     22 CA         44.6950   -2.3100   32.0110 C.3       1 LEU         0.1311
     23 C          45.5660   -1.1040   31.7140 C.2       1 LEU         0.2019
     24 O          46.7680   -1.1830   31.8690 O.2       1 LEU        -0.3945
     25 CB         44.4970   -2.5300   33.5000 C.3       1 LEU        -0.0101
     26 CG         43.2050   -3.3170   33.8250 C.3       1 LEU        -0.0425
     27 CD1        43.0330   -4.6040   32.9790 C.3       1 LEU        -0.0625
     28 CD2        43.1580   -3.7010   35.3300 C.3       1 LEU        -0.0625
     29 O1         48.4370    1.1890   33.9990 O.3       1 CEV        -0.2771
     30 C3         48.3880    1.1640   35.4220 C.3       1 CEV         0.0740
     31 C5         49.6530    0.4960   35.9980 C.3       1 CEV        -0.0371
     32 N49        44.9780    0.1050   31.2180 N.am      1 CEV        -0.2817
     33 C57        45.8040    1.2430   30.8960 C.3       1 CEV         0.0466
     34 C59        45.5080    1.6040   29.4270 C.3       1 CEV        -0.0099
     35 C61        46.0920    0.5200   28.4950 C.3       1 CEV         0.0525
     36 C63        45.5430    2.3580   31.8840 C.3       1 CEV        -0.0115
     37 C65        45.8790    0.7870   27.0870 C.2       1 CEV         0.1792
     38 O66        44.8400    1.1500   26.5650 O.2       1 CEV        -0.3968
     39 N69        47.1330    0.5090   26.3480 N.am      1 CEV        -0.2866
     40 C71        48.1030    0.1100   27.2360 C.3       1 CEV         0.0332
     41 C73        47.5740    0.5060   28.6350 C.3       1 CEV        -0.0129
     42 C82        46.0950    2.0010   33.3070 C.3       1 CEV         0.0508
     43 C84        47.6150    2.1590   33.3710 C.2       1 CEV         0.2338
     44 O88        48.1490    3.1400   32.8600 O.2       1 CEV        -0.3704
     45 H1         48.6694  -11.1429   24.8578 H         1 BOC         0.0260
     46 H2         47.3970   -9.8753   24.8819 H         1 BOC         0.0260
     47 H3         46.9370  -11.6074   24.7601 H         1 BOC         0.0260
     48 H4         48.8325  -12.7807   26.7874 H         1 BOC         0.0260
     49 H5         47.0714  -13.1054   26.6471 H         1 BOC         0.0260
     50 H6         47.7621  -12.5593   28.2128 H         1 BOC         0.0260
     51 H7         49.6872  -10.4017   26.9394 H         1 BOC         0.0260
     52 H8         48.7077  -10.2408   28.4364 H         1 BOC         0.0260
     53 H9         48.5202   -9.0466   27.1078 H         1 BOC         0.0260
     54 H10        44.0849   -9.6959   28.3999 H         1 SER         0.1900
     55 H11        44.2544   -7.1366   27.0214 H         1 SER         0.0823
     56 H12        42.5217   -6.4052   28.4229 H         1 SER         0.0606
     57 H13        42.9320   -7.6061   29.6941 H         1 SER         0.0606
     58 H14        42.3432   -9.2419   28.1663 H         1 SER         0.2097
     59 H15        45.1066   -4.9987   27.8653 H         1 VAL         0.1883
     60 H16        46.7681   -5.3710   30.2959 H         1 VAL         0.0802
     61 H17        47.2148   -3.5980   27.8438 H         1 VAL         0.0343
     62 H18        49.3454   -2.9742   28.9812 H         1 VAL         0.0234
     63 H19        48.8585   -3.9433   30.4130 H         1 VAL         0.0234
     64 H20        47.9102   -2.4907   29.9470 H         1 VAL         0.0234
     65 H21        47.7290   -6.0086   27.4327 H         1 VAL         0.0234
     66 H22        48.7929   -6.0269   28.8799 H         1 VAL         0.0234
     67 H23        49.2242   -5.0136   27.4608 H         1 VAL         0.0234
     68 H24        45.8765   -4.0867   32.0791 H         1 LEU         0.1883
     69 H25        43.7162   -2.2132   31.5185 H         1 LEU         0.0800
     70 H26        44.4450   -1.5496   33.9960 H         1 LEU         0.0315
     71 H27        45.3582   -3.0927   33.8894 H         1 LEU         0.0315
     72 H28        42.3532   -2.6555   33.6087 H         1 LEU         0.0298
     73 H29        42.0976   -5.1078   33.2640 H         1 LEU         0.0232
     74 H30        43.8827   -5.2785   33.1606 H         1 LEU         0.0232
     75 H31        42.9965   -4.3393   31.9120 H         1 LEU         0.0232
     76 H32        43.2790   -2.7959   35.9433 H         1 LEU         0.0232
     77 H33        43.9713   -4.4070   35.5539 H         1 LEU         0.0232
     78 H34        42.1904   -4.1719   35.5583 H         1 LEU         0.0232
     79 H35        47.5019    0.5969   35.7431 H         1 CEV         0.0610
     80 H36        48.3202    2.1950   35.7994 H         1 CEV         0.0610
     81 H37        49.5951    0.4870   37.0964 H         1 CEV         0.0255
     82 H38        50.5423    1.0613   35.6824 H         1 CEV         0.0255
     83 H39        49.7240   -0.5368   35.6261 H         1 CEV         0.0255
     84 H40        43.9872    0.1603   31.0941 H         1 CEV         0.1855
     85 H41        46.8640    0.9609   30.9781 H         1 CEV         0.0559
     86 H42        45.9666    2.5753   29.1899 H         1 CEV         0.0315
     87 H43        44.4199    1.6661   29.2782 H         1 CEV         0.0315
     88 H44        45.6607   -0.4556   28.7638 H         1 CEV         0.0539
     89 H45        44.4585    2.5286   31.9531 H         1 CEV         0.0313
     90 H46        46.0364    3.2745   31.5282 H         1 CEV         0.0313
     91 H47        47.2543    0.5977   25.3593 H         1 CEV         0.1851
     92 H48        49.0521    0.6242   27.0247 H         1 CEV         0.0521
     93 H49        48.2542   -0.9779   27.1764 H         1 CEV         0.0521
     94 H50        47.8844   -0.2321   29.3892 H         1 CEV         0.0312
     95 H51        47.9450    1.5011   28.9214 H         1 CEV         0.0312
     96 H52        45.8333    0.9586   33.5414 H         1 CEV         0.0519
     97 H53        45.6340    2.6704   34.0482 H         1 CEV         0.0519
@<TRIPOS>BOND
     1    2    1 2  
     2    2    3 1  
     3    8    2 am 
     4    3    4 1  
     5    4    5 1  
     6    4    6 1  
     7    4    7 1  
     8    9    8 1  
     9   10    9 1  
    10    9   12 1  
    11   10   11 2  
    12   14   10 am 
    13   12   13 1  
    14   15   14 1  
    15   16   15 1  
    16   15   18 1  
    17   16   17 2  
    18   21   16 am 
    19   18   19 1  
    20   18   20 1  
    21   22   21 1  
    22   23   22 1  
    23   22   25 1  
    24   23   24 2  
    25   32   23 am 
    26   25   26 1  
    27   26   27 1  
    28   26   28 1  
    29   29   30 1  
    30   43   29 1  
    31   30   31 1  
    32   33   32 1  
    33   33   34 1  
    34   36   33 1  
    35   34   35 1  
    36   35   37 1  
    37   35   41 1  
    38   42   36 1  
    39   37   38 2  
    40   37   39 am 
    41   40   39 1  
    42   41   40 1  
    43   42   43 1  
    44   43   44 2  
    45    5   45 1  
    46    5   46 1  
    47    5   47 1  
    48    6   48 1  
    49    6   49 1  
    50    6   50 1  
    51    7   51 1  
    52    7   52 1  
    53    7   53 1  
    54    8   54 1  
    55    9   55 1  
    56   12   56 1  
    57   12   57 1  
    58   13   58 1  
    59   14   59 1  
    60   15   60 1  
    61   18   61 1  
    62   19   62 1  
    63   19   63 1  
    64   19   64 1  
    65   20   65 1  
    66   20   66 1  
    67   20   67 1  
    68   21   68 1  
    69   22   69 1  
    70   25   70 1  
    71   25   71 1  
    72   26   72 1  
    73   27   73 1  
    74   27   74 1  
    75   27   75 1  
    76   28   76 1  
    77   28   77 1  
    78   28   78 1  
    79   30   79 1  
    80   30   80 1  
    81   31   81 1  
    82   31   82 1  
    83   31   83 1  
    84   32   84 1  
    85   33   85 1  
    86   34   86 1  
    87   34   87 1  
    88   35   88 1  
    89   36   89 1  
    90   36   90 1  
    91   39   91 1  
    92   40   92 1  
    93   40   93 1  
    94   41   94 1  
    95   41   95 1  
    96   42   96 1  
    97   42   97 1  
@<TRIPOS>SUBSTRUCTURE
     1 BOC         1

