### 
### Created by X-TOOL on Mon Sep 10 21:13:29 2018
### 

@<TRIPOS>MOLECULE
4zs0_ligand
   30    33     1     0     0
SMALL
GAST_HUCK


@<TRIPOS>ATOM
      1 OAA        -3.7530   32.4580   -9.2080 O.2       1 4QV        -0.3813
      2 CAB        -4.6100   31.6520   -8.8330 C.2       1 4QV         0.3449
      3 NAK        -5.2980   30.8480   -9.6280 N.am      1 4QV        -0.2146
      4 CAJ        -6.1240   30.1310   -8.8640 C.ar      1 4QV         0.0912
      5 CAI        -7.0260   29.1790   -9.1920 C.ar      1 4QV        -0.0222
      6 CAG        -7.7980   28.5530   -8.2060 C.ar      1 4QV         0.0622
      7 OAH        -8.7240   27.5910   -8.5120 O.3       1 4QV        -0.3446
      8 CAF        -7.5970   28.9450   -6.8840 C.ar      1 4QV        -0.0577
      9 CAE        -6.6490   29.9340   -6.6010 C.ar      1 4QV        -0.0529
     10 CAD        -5.9300   30.5130   -7.5840 C.ar      1 4QV         0.1170
     11 NAC        -4.9870   31.4760   -7.5720 N.am      1 4QV        -0.1120
     12 CAL        -4.4640   32.1400   -6.5170 C.2       1 4QV         0.2626
     13 NAM        -4.6440   31.8220   -5.2300 N.2       1 4QV        -0.3078
     14 CAN        -3.9630   32.7020   -4.5020 C.ar      1 4QV         0.0110
     15 CAT        -3.8290   32.8080   -3.1800 C.ar      1 4QV        -0.0698
     16 CAS        -3.0410   33.8240   -2.6420 C.ar      1 4QV        -0.0814
     17 CAR        -2.4080   34.7120   -3.5050 C.ar      1 4QV        -0.0792
     18 CAQ        -2.5870   34.5500   -4.8780 C.ar      1 4QV        -0.0453
     19 CAO        -3.3540   33.5590   -5.3450 C.ar      1 4QV         0.0745
     20 NAP        -3.6660   33.2130   -6.5960 N.pl3     1 4QV        -0.2252
     21 H1         -5.2138   30.7886  -10.6227 H         1 4QV         0.2259
     22 H2         -7.1531   28.8969  -10.2309 H         1 4QV         0.0391
     23 H3         -9.1417   27.2898   -7.7137 H         1 4QV         0.2439
     24 H4         -8.1687   28.4888   -6.0840 H         1 4QV         0.0392
     25 H5         -6.4896   30.2403   -5.5735 H         1 4QV         0.0467
     26 H6         -4.3317   32.1057   -2.5249 H         1 4QV         0.0512
     27 H7         -2.9235   33.9204   -1.5687 H         1 4QV         0.0507
     28 H8         -1.7886   35.5131   -3.1183 H         1 4QV         0.0510
     29 H9         -2.1027   35.2298   -5.5696 H         1 4QV         0.0530
     30 H10        -3.3527   33.6819   -7.4579 H         1 4QV         0.2301
@<TRIPOS>BOND
     1    1    2 2  
     2    2    3 am 
     3    2   11 am 
     4    3    4 1  
     5    4    5 ar 
     6    4   10 ar 
     7    5    6 ar 
     8    6    7 1  
     9    6    8 ar 
    10    8    9 ar 
    11    9   10 ar 
    12   10   11 1  
    13   11   12 1  
    14   12   13 2  
    15   12   20 1  
    16   13   14 1  
    17   14   15 ar 
    18   14   19 ar 
    19   15   16 ar 
    20   16   17 ar 
    21   17   18 ar 
    22   18   19 ar 
    23   19   20 1  
    24    3   21 1  
    25    5   22 1  
    26    7   23 1  
    27    8   24 1  
    28    9   25 1  
    29   15   26 1  
    30   16   27 1  
    31   17   28 1  
    32   18   29 1  
    33   20   30 1  
@<TRIPOS>SUBSTRUCTURE
     1 4QV         1

