### 
### Created by X-TOOL on Mon Sep 10 21:13:24 2018
### 

@<TRIPOS>MOLECULE
4zs2_ligand
   38    41     1     0     0
SMALL
GAST_HUCK


@<TRIPOS>ATOM
      1 C1        173.7030    3.0190   33.9270 C.ar      1 FLU         0.0733
      2 O1        173.3580    1.8090   34.3550 O.3       1 FLU        -0.3398
      3 C2        173.1920    3.4900   32.7350 C.ar      1 FLU        -0.0061
      4 C3        173.5450    4.7440   32.2740 C.ar      1 FLU         0.1126
      5 O2        173.0070    5.1480   31.0700 O.3       1 FLU        -0.2683
      6 C4        173.3200    6.3840   30.5820 C.ar      1 FLU         0.1126
      7 C5        172.7400    6.7220   29.3790 C.ar      1 FLU        -0.0061
      8 C6        173.0120    7.9550   28.8110 C.ar      1 FLU         0.0733
      9 O3        172.4420    8.2720   27.6420 O.3       1 FLU        -0.3398
     10 C7        173.8700    8.8360   29.4710 C.ar      1 FLU        -0.0500
     11 C8        174.4580    8.4870   30.6880 C.ar      1 FLU        -0.0722
     12 C9        174.1860    7.2460   31.2760 C.ar      1 FLU         0.0030
     13 C10       174.7540    6.8510   32.5130 C.3       1 FLU         0.0490
     14 C11       174.4120    5.5710   33.0000 C.ar      1 FLU         0.0030
     15 C12       174.9090    5.0830   34.2090 C.ar      1 FLU        -0.0722
     16 C13       174.5620    3.8160   34.6630 C.ar      1 FLU        -0.0500
     17 C14       175.4050    7.7410   33.3720 C.ar      1 FLU        -0.0104
     18 C15       174.6830    8.7660   33.9940 C.ar      1 FLU        -0.0538
     19 C16       175.2950    9.6640   34.8780 C.ar      1 FLU        -0.0658
     20 C17       176.6520    9.5490   35.1790 C.ar      1 FLU        -0.0651
     21 C18       177.3860    8.5340   34.5760 C.ar      1 FLU        -0.0541
     22 C19       176.7710    7.6420   33.6840 C.ar      1 FLU         0.0143
     23 C20       177.6210    6.5890   33.0790 C.2       1 FLU         0.0588
     24 O4        177.5100    6.3060   31.8750 O.co2     1 FLU        -0.5629
     25 O5        178.4510    5.9850   33.7820 O.co2     1 FLU        -0.5629
     26 H1        173.7892    1.6323   35.1828 H         1 FLU         0.2459
     27 H2        172.5114    2.8743   32.1582 H         1 FLU         0.0455
     28 H3        172.0746    6.0267   28.8801 H         1 FLU         0.0455
     29 H4        171.4969    8.2566   27.7373 H         1 FLU         0.2459
     30 H5        174.0827    9.8043   29.0326 H         1 FLU         0.0437
     31 H6        175.1292    9.1811   31.1807 H         1 FLU         0.0506
     32 H7        175.6936    6.5154   32.0499 H         1 FLU         0.0698
     33 H8        175.5744    5.7001   34.8019 H         1 FLU         0.0506
     34 H9        174.9668    3.4499   35.5996 H         1 FLU         0.0437
     35 H10       173.6239    8.8675   33.7865 H         1 FLU         0.0567
     36 H11       174.7090   10.4549   35.3319 H         1 FLU         0.0620
     37 H12       177.1251   10.2376   35.8697 H         1 FLU         0.0566
     38 H13       178.4423    8.4307   34.7967 H         1 FLU         0.0633
@<TRIPOS>BOND
     1    1    2 1  
     2    1    3 ar 
     3    1   16 ar 
     4    3    4 ar 
     5    4    5 1  
     6    4   14 ar 
     7    5    6 1  
     8    6    7 ar 
     9    6   12 ar 
    10    7    8 ar 
    11    8    9 1  
    12    8   10 ar 
    13   10   11 ar 
    14   11   12 ar 
    15   12   13 1  
    16   13   14 1  
    17   13   17 1  
    18   14   15 ar 
    19   15   16 ar 
    20   17   18 ar 
    21   17   22 ar 
    22   18   19 ar 
    23   19   20 ar 
    24   20   21 ar 
    25   21   22 ar 
    26   22   23 1  
    27   23   24 ar 
    28   23   25 ar 
    29    2   26 1  
    30    3   27 1  
    31    7   28 1  
    32    9   29 1  
    33   10   30 1  
    34   11   31 1  
    35   13   32 1  
    36   15   33 1  
    37   16   34 1  
    38   18   35 1  
    39   19   36 1  
    40   20   37 1  
    41   21   38 1  
@<TRIPOS>SUBSTRUCTURE
     1 FLU         1

