### 
### Created by X-TOOL on Mon Sep 10 21:13:24 2018
### 

@<TRIPOS>MOLECULE
4zs3_ligand
   40    43     1     0     0
SMALL
GAST_HUCK


@<TRIPOS>ATOM
      1 O5        177.8390    5.5480   33.8720 O.co2     1 A4F        -0.5630
      2 C17       177.2190    6.3640   33.1490 C.2       1 A4F         0.0560
      3 O4        177.2260    6.2820   31.9040 O.co2     1 A4F        -0.5630
      4 C18       176.4360    7.4450   33.7720 C.ar      1 A4F         0.0032
      5 C19       177.0850    8.2870   34.6740 C.ar      1 A4F        -0.0366
      6 C20       176.3830    9.3150   35.2900 C.ar      1 A4F         0.0321
      7 N1        176.9830   10.1230   36.1490 N.pl3     1 A4F        -0.3401
      8 C16       175.0360    9.4890   34.9920 C.ar      1 A4F        -0.0479
      9 C15       174.3900    8.6400   34.0910 C.ar      1 A4F        -0.0648
     10 C14       175.0780    7.6100   33.4540 C.ar      1 A4F        -0.0230
     11 C1        174.4070    6.7600   32.5830 C.3       1 A4F         0.0433
     12 C13       173.8070    7.2100   31.3760 C.ar      1 A4F         0.0011
     13 C12       174.1110    8.4450   30.7920 C.ar      1 A4F        -0.0726
     14 C11       173.4880    8.8470   29.6040 C.ar      1 A4F        -0.0501
     15 C10       172.5480    8.0250   28.9810 C.ar      1 A4F         0.0732
     16 O3        171.9300    8.3900   27.8510 O.3       1 A4F        -0.3398
     17 C9        172.2440    6.8020   29.5520 C.ar      1 A4F        -0.0062
     18 C8        172.8650    6.4060   30.7230 C.ar      1 A4F         0.1122
     19 O2        172.5080    5.1810   31.2360 O.3       1 A4F        -0.2684
     20 C2        174.0300    5.4940   33.0870 C.ar      1 A4F         0.0011
     21 C7        173.0830    4.7170   32.4100 C.ar      1 A4F         0.1122
     22 C6        172.7000    3.4690   32.9010 C.ar      1 A4F        -0.0062
     23 C3        174.5760    4.9780   34.2760 C.ar      1 A4F        -0.0726
     24 C4        174.2000    3.7280   34.7530 C.ar      1 A4F        -0.0501
     25 C5        173.2600    2.9730   34.0740 C.ar      1 A4F         0.0732
     26 O1        172.9050    1.7820   34.5540 O.3       1 A4F        -0.3398
     27 H1        178.1361    8.1395   34.8943 H         1 A4F         0.0530
     28 H2        176.4518   10.8818   36.5995 H         1 A4F         0.1699
     29 H3        177.9812    9.9931   36.3672 H         1 A4F         0.1699
     30 H4        174.4816   10.2921   35.4640 H         1 A4F         0.0521
     31 H5        173.3359    8.7849   33.8839 H         1 A4F         0.0536
     32 H6        175.3232    6.4044   32.0889 H         1 A4F         0.0674
     33 H7        174.8365    9.0974   31.2643 H         1 A4F         0.0505
     34 H8        173.7383    9.8057   29.1642 H         1 A4F         0.0436
     35 H9        171.3307    7.7033   27.5831 H         1 A4F         0.2458
     36 H10       171.5165    6.1516   29.0800 H         1 A4F         0.0454
     37 H11       171.9621    2.8824   32.3658 H         1 A4F         0.0454
     38 H12       175.3012    5.5642   34.8288 H         1 A4F         0.0505
     39 H13       174.6459    3.3421   35.6626 H         1 A4F         0.0436
     40 H14       172.2567    1.3910   33.9802 H         1 A4F         0.2458
@<TRIPOS>BOND
     1    1    2 ar 
     2    2    3 ar 
     3    2    4 1  
     4    4    5 ar 
     5    4   10 ar 
     6    5    6 ar 
     7    6    7 1  
     8    6    8 ar 
     9    8    9 ar 
    10    9   10 ar 
    11   10   11 1  
    12   11   12 1  
    13   11   20 1  
    14   12   13 ar 
    15   12   18 ar 
    16   13   14 ar 
    17   14   15 ar 
    18   15   16 1  
    19   15   17 ar 
    20   17   18 ar 
    21   18   19 1  
    22   19   21 1  
    23   20   21 ar 
    24   20   23 ar 
    25   21   22 ar 
    26   22   25 ar 
    27   23   24 ar 
    28   24   25 ar 
    29   25   26 1  
    30    5   27 1  
    31    7   28 1  
    32    7   29 1  
    33    8   30 1  
    34    9   31 1  
    35   11   32 1  
    36   13   33 1  
    37   14   34 1  
    38   16   35 1  
    39   17   36 1  
    40   22   37 1  
    41   23   38 1  
    42   24   39 1  
    43   26   40 1  
@<TRIPOS>SUBSTRUCTURE
     1 A4F         1

