### 
### Created by X-TOOL on Mon Sep 10 21:13:25 2018
### 

@<TRIPOS>MOLECULE
4zs9_ligand
   66    68     1     0     0
SMALL
GAST_HUCK


@<TRIPOS>ATOM
      1 O6'        -4.1720   27.0870   51.1970 O.3       1 RAF        -0.3924
      2 C6'        -3.8230   28.3890   51.7660 C.3       1 RAF         0.0730
      3 C5'        -5.0990   29.0080   52.2830 C.3       1 RAF         0.1134
      4 C4'        -4.9660   30.2780   52.7880 C.3       1 RAF         0.1145
      5 O4'        -5.2130   31.2850   51.7960 O.3       1 RAF        -0.3864
      6 C3'        -6.0910   30.3140   53.9410 C.3       1 RAF         0.1395
      7 O3'        -5.9160   31.3920   54.8370 O.3       1 RAF        -0.3837
      8 O2'        -5.6500   28.1230   53.4780 O.3       1 RAF        -0.3362
      9 C2'        -6.0410   29.0470   54.5040 C.3       1 RAF         0.2252
     10 C1'        -7.0750   28.4860   55.4030 C.3       1 RAF         0.1009
     11 O1'        -8.2510   28.5650   54.5920 O.3       1 RAF        -0.3896
     12 O1         -4.7800   29.1010   55.3140 O.3       1 RAF        -0.3125
     13 C1         -4.2410   27.9280   55.9480 C.3       1 RAF         0.1912
     14 C2         -3.8730   28.2500   57.3750 C.3       1 RAF         0.1342
     15 O2         -5.0890   28.6100   58.1020 O.3       1 RAF        -0.3841
     16 C3         -2.8940   29.3570   57.3720 C.3       1 RAF         0.1141
     17 O3         -2.5220   29.7520   58.7420 O.3       1 RAF        -0.3864
     18 C4         -1.6390   28.9300   56.6900 C.3       1 RAF         0.1119
     19 O4         -0.7940   30.0690   56.5170 O.3       1 RAF        -0.3865
     20 C5         -1.8890   28.3800   55.3060 C.3       1 RAF         0.1134
     21 O5         -3.0210   27.4830   55.2840 O.3       1 RAF        -0.3404
     22 C6         -0.7020   27.5430   54.8820 C.3       1 RAF         0.0796
     23 O6         -0.7010   27.3160   53.4690 O.3       1 RAF        -0.3460
     24 C1X         0.1540   26.2560   53.0840 C.3       1 RAF         0.1880
     25 O5X        -0.3790   24.9780   53.5380 O.3       1 RAF        -0.3405
     26 C5X        -1.6480   24.6100   52.8900 C.3       1 RAF         0.1130
     27 C6X        -2.0230   23.2790   53.4650 C.3       1 RAF         0.0730
     28 O6X        -1.0460   22.2960   53.2240 O.3       1 RAF        -0.3924
     29 C4X        -1.5470   24.6660   51.3760 C.3       1 RAF         0.1119
     30 O4X        -0.7220   23.5690   50.9720 O.3       1 RAF        -0.3865
     31 C3X        -0.9690   25.9710   50.9280 C.3       1 RAF         0.1141
     32 O3X        -0.7470   25.9580   49.4980 O.3       1 RAF        -0.3864
     33 C2X         0.3510   26.2300   51.5960 C.3       1 RAF         0.1341
     34 O2X         0.8860   27.4900   51.1650 O.3       1 RAF        -0.3841
     35 H1         -4.7951   27.2083   50.4902 H         1 RAF         0.2095
     36 H2         -3.3794   29.0319   50.9915 H         1 RAF         0.0584
     37 H3         -3.1061   28.2599   52.5902 H         1 RAF         0.0584
     38 H4         -5.8292   29.0283   51.4606 H         1 RAF         0.0647
     39 H5         -3.9616   30.4272   53.2110 H         1 RAF         0.0648
     40 H6         -6.0980   31.1903   51.4638 H         1 RAF         0.2100
     41 H7         -7.0782   30.4469   53.4744 H         1 RAF         0.0675
     42 H8         -5.9621   32.2111   54.3580 H         1 RAF         0.2101
     43 H9         -7.1791   29.0888   56.3172 H         1 RAF         0.0612
     44 H10        -6.8462   27.4448   55.6743 H         1 RAF         0.0612
     45 H11        -8.9929   28.2247   55.0780 H         1 RAF         0.2096
     46 H12        -4.9921   27.1247   55.9233 H         1 RAF         0.0939
     47 H13        -3.4178   27.3678   57.8488 H         1 RAF         0.0671
     48 H14        -4.8689   28.8150   59.0031 H         1 RAF         0.2101
     49 H15        -3.3308   30.2185   56.8456 H         1 RAF         0.0648
     50 H16        -3.2980   30.0372   59.2099 H         1 RAF         0.2100
     51 H17        -1.1360   28.1693   57.3051 H         1 RAF         0.0647
     52 H18         0.0081   29.8038   56.0826 H         1 RAF         0.2100
     53 H19        -2.0495   29.2116   54.6042 H         1 RAF         0.0647
     54 H20        -0.7443   26.5736   55.4001 H         1 RAF         0.0587
     55 H21         0.2237   28.0677   55.1608 H         1 RAF         0.0587
     56 H22         1.1331   26.4139   53.5598 H         1 RAF         0.0937
     57 H23        -2.4194   25.3369   53.1842 H         1 RAF         0.0647
     58 H24        -2.9711   22.9531   53.0123 H         1 RAF         0.0584
     59 H25        -2.1539   23.3879   54.5517 H         1 RAF         0.0584
     60 H26        -0.2241   22.5649   53.6172 H         1 RAF         0.2095
     61 H27        -2.5487   24.5538   50.9356 H         1 RAF         0.0647
     62 H28        -0.6352   23.5711   50.0259 H         1 RAF         0.2100
     63 H29        -1.6717   26.7780   51.1831 H         1 RAF         0.0648
     64 H30        -0.1422   25.2589   49.2789 H         1 RAF         0.2100
     65 H31         1.0556   25.4273   51.3331 H         1 RAF         0.0671
     66 H32         1.0113   27.4742   50.2234 H         1 RAF         0.2101
@<TRIPOS>BOND
     1    1    2 1  
     2    2    3 1  
     3    3    4 1  
     4    3    8 1  
     5    4    5 1  
     6    4    6 1  
     7    6    7 1  
     8    6    9 1  
     9    8    9 1  
    10    9   10 1  
    11    9   12 1  
    12   10   11 1  
    13   12   13 1  
    14   13   14 1  
    15   13   21 1  
    16   14   15 1  
    17   14   16 1  
    18   16   17 1  
    19   16   18 1  
    20   18   19 1  
    21   18   20 1  
    22   20   21 1  
    23   20   22 1  
    24   22   23 1  
    25   23   24 1  
    26   24   25 1  
    27   24   33 1  
    28   25   26 1  
    29   26   27 1  
    30   26   29 1  
    31   27   28 1  
    32   29   30 1  
    33   29   31 1  
    34   31   32 1  
    35   31   33 1  
    36   33   34 1  
    37    1   35 1  
    38    2   36 1  
    39    2   37 1  
    40    3   38 1  
    41    4   39 1  
    42    5   40 1  
    43    6   41 1  
    44    7   42 1  
    45   10   43 1  
    46   10   44 1  
    47   11   45 1  
    48   13   46 1  
    49   14   47 1  
    50   15   48 1  
    51   16   49 1  
    52   17   50 1  
    53   18   51 1  
    54   19   52 1  
    55   20   53 1  
    56   22   54 1  
    57   22   55 1  
    58   24   56 1  
    59   26   57 1  
    60   27   58 1  
    61   27   59 1  
    62   28   60 1  
    63   29   61 1  
    64   30   62 1  
    65   31   63 1  
    66   32   64 1  
    67   33   65 1  
    68   34   66 1  
@<TRIPOS>SUBSTRUCTURE
     1 RAF         1

