### 
### Created by X-TOOL on Mon Sep 10 21:13:24 2018
### 

@<TRIPOS>MOLECULE
4zsa_ligand
   64    68     1     0     0
SMALL
GAST_HUCK


@<TRIPOS>ATOM
      1 C10       199.8480    4.3480   87.0970 C.ar      1 4UT         0.0418
      2 C17       196.1450    3.8100   82.3560 C.ar      1 4UT         0.0812
      3 C20       195.9400    6.0690   79.3930 C.ar      1 4UT        -0.0301
      4 C21       196.9200    6.4340   78.4720 C.ar      1 4UT        -0.0654
      5 C22       196.5890    6.9290   77.2220 C.ar      1 4UT        -0.0699
      6 C24       194.2620    6.6800   77.7780 C.ar      1 4UT         0.0909
      7 C26       192.5990    7.1940   76.1270 C.3       1 4UT         0.0593
      8 C28       197.3150    6.1700   81.4470 C.ar      1 4UT        -0.0653
      9 C01       205.3230    1.7370   93.9690 C.3       1 4UT        -0.0245
     10 C02       204.8880    3.0590   93.3670 C.3       1 4UT        -0.0347
     11 N03       204.2300    2.9280   92.3140 N.4       1 4UT         0.2379
     12 C04       202.8850    2.7480   92.6160 C.3       1 4UT        -0.0115
     13 C05       201.9950    2.7650   91.3810 C.3       1 4UT         0.0680
     14 N06       202.1760    3.8650   90.5750 N.pl3     1 4UT        -0.2958
     15 C07       201.3690    4.0050   89.4190 C.ar      1 4UT         0.0460
     16 C08       201.7410    4.9330   88.4590 C.ar      1 4UT        -0.0381
     17 C09       200.9910    5.1100   87.3060 C.ar      1 4UT        -0.0530
     18 C11       199.0440    4.5250   85.8210 C.2       1 4UT         0.2212
     19 O12       199.2680    5.4690   85.1050 O.2       1 4UT        -0.3803
     20 N13       198.0350    3.5790   85.4820 N.am      1 4UT        -0.2292
     21 C14       197.2070    3.5530   84.3060 C.2       1 4UT         0.1381
     22 N15       196.3670    2.5360   84.1200 N.2       1 4UT        -0.2147
     23 N16       195.7060    2.6640   82.9580 N.pl3     1 4UT        -0.2354
     24 C18       195.7600    4.3680   81.0960 C.ar      1 4UT        -0.0301
     25 C19       196.3260    5.5530   80.6460 C.ar      1 4UT        -0.0301
     26 C23       195.2510    7.0520   76.8740 C.ar      1 4UT        -0.0330
     27 O25       192.9060    6.7900   77.4360 O.3       1 4UT        -0.3214
     28 C27       194.6130    6.1890   79.0270 C.ar      1 4UT        -0.0264
     29 C29       197.7100    5.6060   82.6770 C.ar      1 4UT        -0.0615
     30 C30       197.1030    4.4020   83.1570 C.ar      1 4UT         0.0386
     31 C31       199.4810    3.4030   88.0560 C.ar      1 4UT        -0.0530
     32 C32       200.2350    3.2300   89.2120 C.ar      1 4UT        -0.0381
     33 C33       203.5000    4.1730   90.3790 C.3       1 4UT         0.0680
     34 C34       204.4100    4.0820   91.5770 C.3       1 4UT        -0.0115
     35 H1        197.9649    6.3280   78.7402 H         1 4UT         0.0530
     36 H2        197.3659    7.2172   76.5232 H         1 4UT         0.0590
     37 H3        191.5068    7.2360   76.0029 H         1 4UT         0.0577
     38 H4        193.0218    6.4729   75.4120 H         1 4UT         0.0577
     39 H5        193.0277    8.1897   75.9405 H         1 4UT         0.0577
     40 H6        197.7765    7.0911   81.1097 H         1 4UT         0.0527
     41 H7        205.8952    1.9240   94.8896 H         1 4UT         0.0281
     42 H8        205.9541    1.1960   93.2486 H         1 4UT         0.0281
     43 H9        204.4353    1.1320   94.2056 H         1 4UT         0.0281
     44 H10       205.7860    3.6547   93.1461 H         1 4UT         0.0812
     45 H11       204.2672    3.5907   94.1031 H         1 4UT         0.0812
     46 H12       204.5652    2.1324   91.7937 H         1 4UT         0.2035
     47 H13       202.5652    3.5558   93.2906 H         1 4UT         0.0834
     48 H14       202.7652    1.7787   93.1220 H         1 4UT         0.0834
     49 H15       200.9457    2.7469   91.7107 H         1 4UT         0.0569
     50 H16       202.2087    1.8633   90.7884 H         1 4UT         0.0569
     51 H17       202.6327    5.5301   88.6119 H         1 4UT         0.0530
     52 H18       201.2964    5.8428   86.5679 H         1 4UT         0.0636
     53 H19       197.8836    2.8431   86.1419 H         1 4UT         0.2230
     54 H20       194.9965    2.0158   82.5874 H         1 4UT         0.2323
     55 H21       195.0199    3.8610   80.4875 H         1 4UT         0.0556
     56 H22       194.9773    7.4376   75.8986 H         1 4UT         0.0544
     57 H23       193.8367    5.8958   79.7245 H         1 4UT         0.0542
     58 H24       198.4815    6.0892   83.2655 H         1 4UT         0.0600
     59 H25       198.5969    2.7959   87.8980 H         1 4UT         0.0636
     60 H26       199.9385    2.4926   89.9491 H         1 4UT         0.0530
     61 H27       203.5481    5.2060   90.0040 H         1 4UT         0.0569
     62 H28       203.8903    3.4864   89.6134 H         1 4UT         0.0569
     63 H29       205.4523    4.1135   91.2267 H         1 4UT         0.0834
     64 H30       204.2160    4.9464   92.2290 H         1 4UT         0.0834
@<TRIPOS>BOND
     1    1   17 ar 
     2   18    1 1  
     3    1   31 ar 
     4    2   23 1  
     5   24    2 ar 
     6    2   30 ar 
     7    3    4 ar 
     8   25    3 1  
     9    3   28 ar 
    10    4    5 ar 
    11    5   26 ar 
    12    6   26 ar 
    13    6   27 1  
    14   28    6 ar 
    15   27    7 1  
    16   25    8 ar 
    17    8   29 ar 
    18   10    9 1  
    19   11   10 1  
    20   12   11 1  
    21   11   34 1  
    22   13   12 1  
    23   14   13 1  
    24   15   14 1  
    25   14   33 1  
    26   16   15 ar 
    27   15   32 ar 
    28   17   16 ar 
    29   18   19 2  
    30   20   18 am 
    31   21   20 1  
    32   21   22 2  
    33   30   21 1  
    34   23   22 1  
    35   24   25 ar 
    36   29   30 ar 
    37   31   32 ar 
    38   33   34 1  
    39    4   35 1  
    40    5   36 1  
    41    7   37 1  
    42    7   38 1  
    43    7   39 1  
    44    8   40 1  
    45    9   41 1  
    46    9   42 1  
    47    9   43 1  
    48   10   44 1  
    49   10   45 1  
    50   11   46 1  
    51   12   47 1  
    52   12   48 1  
    53   13   49 1  
    54   13   50 1  
    55   16   51 1  
    56   17   52 1  
    57   20   53 1  
    58   23   54 1  
    59   24   55 1  
    60   26   56 1  
    61   28   57 1  
    62   29   58 1  
    63   31   59 1  
    64   32   60 1  
    65   33   61 1  
    66   33   62 1  
    67   34   63 1  
    68   34   64 1  
@<TRIPOS>SUBSTRUCTURE
     1 4UT         1

