### 
### Created by X-TOOL on Mon Sep 10 21:13:29 2018
### 

@<TRIPOS>MOLECULE
4zsg_ligand
   35    36     1     0     0
SMALL
GAST_HUCK


@<TRIPOS>ATOM
      1 C1         -2.8720  -38.8030   -2.6390 C.3       1 4QX         0.0386
      2 C2         -3.7090  -39.6410   -1.7020 C.3       1 4QX        -0.0423
      3 C3         -3.4410  -37.0950   -4.3000 C.2       1 4QX         0.3488
      4 C7         -3.8270  -33.6160   -8.2720 C.ar      1 4QX        -0.0382
      5 C8         -3.6340  -33.0040   -9.4960 C.ar      1 4QX        -0.0579
      6 C9         -2.7870  -33.5850  -10.4120 C.ar      1 4QX         0.0276
      7 C10        -2.1460  -34.7710  -10.1460 C.ar      1 4QX        -0.0579
      8 C11        -2.3440  -35.3860   -8.9270 C.ar      1 4QX        -0.0382
      9 CL         -2.4990  -32.7880  -11.9270 Cl        1 4QX        -0.0817
     10 C6         -3.1880  -34.8140   -7.9790 C.ar      1 4QX         0.0658
     11 N5         -3.3680  -35.5110   -6.7590 N.pl3     1 4QX        -0.2276
     12 C4         -4.1260  -35.1470   -5.6850 C.2       1 4QX         0.2757
     13 N2         -4.8880  -34.0680   -5.5690 N.2       1 4QX        -0.2728
     14 C5         -5.4050  -34.2130   -4.3000 C.2       1 4QX         0.1283
     15 N4         -6.2620  -33.3180   -3.8010 N.pl3     1 4QX        -0.3288
     16 N3         -5.0010  -35.2850   -3.6430 N.2       1 4QX        -0.1857
     17 N1         -4.1410  -35.8860   -4.5490 N.am      1 4QX        -0.0651
     18 O          -2.7140  -37.5750   -5.1600 O.2       1 4QX        -0.3690
     19 N          -3.6260  -37.6270   -3.0810 N.am      1 4QX        -0.2549
     20 C          -1.5700  -38.3700   -2.0120 C.3       1 4QX        -0.0423
     21 H1         -2.6366  -39.4160   -3.5215 H         1 4QX         0.0550
     22 H2         -3.1302  -40.5189   -1.3792 H         1 4QX         0.0252
     23 H3         -4.6198  -39.9732   -2.2217 H         1 4QX         0.0252
     24 H4         -3.9866  -39.0413   -0.8226 H         1 4QX         0.0252
     25 H5         -4.4800  -33.1590   -7.5373 H         1 4QX         0.0533
     26 H6         -4.1439  -32.0770   -9.7319 H         1 4QX         0.0593
     27 H7         -1.4920  -35.2184  -10.8857 H         1 4QX         0.0593
     28 H8         -1.8396  -36.3197   -8.7061 H         1 4QX         0.0533
     29 H9         -2.8633  -36.4046   -6.6720 H         1 4QX         0.2176
     30 H10        -6.5392  -32.5010   -4.3637 H         1 4QX         0.1708
     31 H11        -6.6456  -33.4449   -2.8536 H         1 4QX         0.1708
     32 H12        -4.2925  -37.2118   -2.4618 H         1 4QX         0.1872
     33 H13        -0.9997  -37.7649   -2.7321 H         1 4QX         0.0252
     34 H14        -0.9837  -39.2582   -1.7339 H         1 4QX         0.0252
     35 H15        -1.7773  -37.7711   -1.1129 H         1 4QX         0.0252
@<TRIPOS>BOND
     1    1    2 1  
     2   19    1 1  
     3    1   20 1  
     4   17    3 am 
     5    3   18 2  
     6    3   19 am 
     7    4    5 ar 
     8   10    4 ar 
     9    5    6 ar 
    10    7    6 ar 
    11    6    9 1  
    12    8    7 ar 
    13   10    8 ar 
    14   11   10 1  
    15   12   11 1  
    16   12   13 2  
    17   12   17 1  
    18   13   14 1  
    19   14   15 1  
    20   14   16 2  
    21   16   17 1  
    22    1   21 1  
    23    2   22 1  
    24    2   23 1  
    25    2   24 1  
    26    4   25 1  
    27    5   26 1  
    28    7   27 1  
    29    8   28 1  
    30   11   29 1  
    31   15   30 1  
    32   15   31 1  
    33   19   32 1  
    34   20   33 1  
    35   20   34 1  
    36   20   35 1  
@<TRIPOS>SUBSTRUCTURE
     1 4QX         1

