### 
### Created by X-TOOL on Mon Sep 10 21:13:29 2018
### 

@<TRIPOS>MOLECULE
4zsh_ligand
   55    55     1     0     0
SMALL
GAST_HUCK


@<TRIPOS>ATOM
      1 C1         64.2490   44.9910   32.6880 C.3       1 4XW        -0.0253
      2 C2         64.7830   44.9230   34.0990 C.3       1 4XW        -0.0460
      3 C3         63.7600   45.1190   35.2020 C.3       1 4XW        -0.0520
      4 C4         62.4110   45.6630   34.8030 C.3       1 4XW        -0.0486
      5 C5         62.5870   46.6940   33.7310 C.3       1 4XW        -0.0340
      6 C6         63.2530   46.1430   32.4600 C.3       1 4XW        -0.0168
      7 C7         62.6080   46.1280   31.0180 C.2       1 4XW        -0.0944
      8 C8         61.2850   46.3370   30.6910 C.2       1 4XW        -0.0939
      9 C9         61.0870   46.3710   29.1740 C.3       1 4XW        -0.0208
     10 C10        59.6490   46.6060   28.7260 C.3       1 4XW        -0.0273
     11 C11        58.5910   46.0890   29.7190 C.2       1 4XW        -0.0964
     12 C12        57.2780   46.0360   29.3070 C.2       1 4XW        -0.0941
     13 C13        56.3220   45.0500   29.9840 C.3       1 4XW        -0.0158
     14 C14        55.0510   44.8740   29.1650 C.3       1 4XW         0.0093
     15 C15        53.7000   44.9150   29.8820 C.2       1 4XW         0.0367
     16 C16        63.7270   43.6280   32.2760 C.3       1 4XW        -0.0580
     17 C17        65.4060   45.4020   31.8250 C.3       1 4XW        -0.0580
     18 C18        61.3840   47.6010   33.5140 C.3       1 4XW        -0.0606
     19 C19        62.0300   47.2930   28.4300 C.3       1 4XW        -0.0542
     20 C20        56.1360   45.3760   31.4360 C.3       1 4XW        -0.0542
     21 O21        53.3710   43.8120   30.6500 O.co2     1 4XW        -0.5688
     22 O22        53.0650   46.1350   30.0340 O.co2     1 4XW        -0.5688
     23 H1         65.5502   45.7038   34.2076 H         1 4XW         0.0272
     24 H2         65.2440   43.9340   34.2382 H         1 4XW         0.0272
     25 H3         64.1935   45.8148   35.9354 H         1 4XW         0.0266
     26 H4         63.5948   44.1410   35.6776 H         1 4XW         0.0266
     27 H5         61.9272   46.1222   35.6777 H         1 4XW         0.0269
     28 H6         61.7824   44.8436   34.4243 H         1 4XW         0.0269
     29 H7         63.3452   47.3752   34.1446 H         1 4XW         0.0320
     30 H8         63.9582   46.9717   32.2991 H         1 4XW         0.0431
     31 H9         63.2850   45.9302   30.1883 H         1 4XW         0.0453
     32 H10        60.4843   46.4618   31.4184 H         1 4XW         0.0454
     33 H11        61.3398   45.3553   28.8358 H         1 4XW         0.0440
     34 H12        59.4987   46.0952   27.7635 H         1 4XW         0.0410
     35 H13        59.5002   47.6879   28.5942 H         1 4XW         0.0410
     36 H14        58.8743   45.7732   30.7220 H         1 4XW         0.0452
     37 H15        56.9239   46.6875   28.5094 H         1 4XW         0.0454
     38 H16        56.8212   44.0700   29.9662 H         1 4XW         0.0438
     39 H17        55.1217   43.8970   28.6645 H         1 4XW         0.0453
     40 H18        55.0402   45.6732   28.4093 H         1 4XW         0.0453
     41 H19        64.4963   42.8664   32.4712 H         1 4XW         0.0237
     42 H20        63.4842   43.6373   31.2032 H         1 4XW         0.0237
     43 H21        62.8220   43.3916   32.8548 H         1 4XW         0.0237
     44 H22        65.7667   46.3916   32.1422 H         1 4XW         0.0237
     45 H23        65.0817   45.4493   30.7750 H         1 4XW         0.0237
     46 H24        66.2177   44.6665   31.9253 H         1 4XW         0.0237
     47 H25        60.9939   47.9318   34.4878 H         1 4XW         0.0234
     48 H26        60.6010   47.0486   32.9738 H         1 4XW         0.0234
     49 H27        61.6877   48.4780   32.9236 H         1 4XW         0.0234
     50 H28        63.0617   47.1103   28.7650 H         1 4XW         0.0253
     51 H29        61.7578   48.3389   28.6348 H         1 4XW         0.0253
     52 H30        61.9556   47.0996   27.3497 H         1 4XW         0.0253
     53 H31        57.1196   45.4782   31.9177 H         1 4XW         0.0253
     54 H32        55.5710   44.5680   31.9238 H         1 4XW         0.0253
     55 H33        55.5811   46.3209   31.5315 H         1 4XW         0.0253
@<TRIPOS>BOND
     1    1    2 1  
     2    1    6 1  
     3    1   16 1  
     4    1   17 1  
     5    2    3 1  
     6    3    4 1  
     7    4    5 1  
     8    5    6 1  
     9    5   18 1  
    10    6    7 1  
    11    7    8 2  
    12    8    9 1  
    13    9   10 1  
    14    9   19 1  
    15   10   11 1  
    16   11   12 2  
    17   12   13 1  
    18   13   14 1  
    19   13   20 1  
    20   14   15 1  
    21   15   21 ar 
    22   15   22 ar 
    23    2   23 1  
    24    2   24 1  
    25    3   25 1  
    26    3   26 1  
    27    4   27 1  
    28    4   28 1  
    29    5   29 1  
    30    6   30 1  
    31    7   31 1  
    32    8   32 1  
    33    9   33 1  
    34   10   34 1  
    35   10   35 1  
    36   11   36 1  
    37   12   37 1  
    38   13   38 1  
    39   14   39 1  
    40   14   40 1  
    41   16   41 1  
    42   16   42 1  
    43   16   43 1  
    44   17   44 1  
    45   17   45 1  
    46   17   46 1  
    47   18   47 1  
    48   18   48 1  
    49   18   49 1  
    50   19   50 1  
    51   19   51 1  
    52   19   52 1  
    53   20   53 1  
    54   20   54 1  
    55   20   55 1  
@<TRIPOS>SUBSTRUCTURE
     1 4XW         1

