### 
### Created by X-TOOL on Mon Sep 10 21:13:27 2018
### 

@<TRIPOS>MOLECULE
4zsj_ligand
   38    39     1     0     0
SMALL
GAST_HUCK


@<TRIPOS>ATOM
      1 C1         -2.8240  -35.3630  -10.2470 C.ar      1 4R0        -0.0421
      2 C2         -3.0630  -35.8830   -8.9910 C.ar      1 4R0        -0.0375
      3 C3         -3.8980  -35.2170   -8.0690 C.ar      1 4R0         0.0589
      4 C7         -4.7700  -35.5120   -5.7140 C.2       1 4R0         0.2757
      5 C8         -5.9830  -34.6780   -4.2090 C.2       1 4R0         0.1283
      6 C9         -3.9940  -37.5310   -4.4790 C.2       1 4R0         0.3488
      7 C10        -3.4610  -39.4460   -3.0210 C.3       1 4R0         0.0386
      8 C11        -2.0760  -39.1570   -2.4880 C.3       1 4R0        -0.0423
      9 C12        -4.2710  -40.3120   -2.0770 C.3       1 4R0        -0.0423
     10 O          -3.3130  -37.9550   -5.4030 O.2       1 4R0        -0.3690
     11 N4         -4.1590  -38.1820   -3.2770 N.am      1 4R0        -0.2549
     12 N3         -4.7160  -36.3170   -4.6260 N.am      1 4R0        -0.0651
     13 N2         -5.5250  -35.7840   -3.6340 N.2       1 4R0        -0.1857
     14 N5         -6.7520  -33.8010   -3.5860 N.pl3     1 4R0        -0.3288
     15 N1         -5.5390  -34.4330   -5.4870 N.2       1 4R0        -0.2728
     16 N          -4.0670  -35.8790   -6.8500 N.pl3     1 4R0        -0.2291
     17 C4         -4.5020  -33.9940   -8.4230 C.ar      1 4R0        -0.0450
     18 C5         -4.3020  -33.4950   -9.7160 C.ar      1 4R0        -0.0644
     19 C6         -3.4670  -34.1820  -10.5840 C.ar      1 4R0         0.0283
     20 CL         -3.1430  -33.4870  -12.1210 Cl        1 4R0        -0.0879
     21 C          -1.9200  -36.0890  -11.1930 C.3       1 4R0        -0.0332
     22 H1         -2.6002  -36.8213   -8.7074 H         1 4R0         0.0469
     23 H2         -3.3561  -39.9870   -3.9730 H         1 4R0         0.0550
     24 H3         -1.5520  -40.1049   -2.2958 H         1 4R0         0.0252
     25 H4         -2.1554  -38.5855   -1.5515 H         1 4R0         0.0252
     26 H5         -1.5130  -38.5705   -3.2289 H         1 4R0         0.0252
     27 H6         -5.2665  -40.4929   -2.5085 H         1 4R0         0.0252
     28 H7         -4.3783  -39.7991   -1.1098 H         1 4R0         0.0252
     29 H8         -3.7561  -41.2725   -1.9276 H         1 4R0         0.0252
     30 H9         -4.7566  -37.7917   -2.5766 H         1 4R0         0.1872
     31 H10        -7.0802  -33.9924   -2.6286 H         1 4R0         0.1708
     32 H11        -7.0227  -32.9265   -4.0581 H         1 4R0         0.1708
     33 H12        -3.5904  -36.7898   -6.7854 H         1 4R0         0.2175
     34 H13        -5.1094  -33.4503   -7.7085 H         1 4R0         0.0478
     35 H14        -4.7938  -32.5830  -10.0344 H         1 4R0         0.0576
     36 H15        -1.5289  -36.9938  -10.7048 H         1 4R0         0.0391
     37 H16        -1.0828  -35.4339  -11.4757 H         1 4R0         0.0391
     38 H17        -2.4838  -36.3731  -12.0938 H         1 4R0         0.0391
@<TRIPOS>BOND
     1    2    1 ar 
     2    1   19 ar 
     3    1   21 1  
     4    3    2 ar 
     5   16    3 1  
     6    3   17 ar 
     7   12    4 1  
     8    4   15 2  
     9    4   16 1  
    10    5   13 2  
    11    5   14 1  
    12   15    5 1  
    13    6   10 2  
    14   11    6 am 
    15    6   12 am 
    16    7    8 1  
    17    7    9 1  
    18    7   11 1  
    19   12   13 1  
    20   17   18 ar 
    21   18   19 ar 
    22   19   20 1  
    23    2   22 1  
    24    7   23 1  
    25    8   24 1  
    26    8   25 1  
    27    8   26 1  
    28    9   27 1  
    29    9   28 1  
    30    9   29 1  
    31   11   30 1  
    32   14   31 1  
    33   14   32 1  
    34   16   33 1  
    35   17   34 1  
    36   18   35 1  
    37   21   36 1  
    38   21   37 1  
    39   21   38 1  
@<TRIPOS>SUBSTRUCTURE
     1 4R0         1

