### 
### Created by X-TOOL on Mon Sep 10 21:13:27 2018
### 

@<TRIPOS>MOLECULE
4zsl_ligand
   42    44     1     0     0
SMALL
GAST_HUCK


@<TRIPOS>ATOM
      1 C1         95.8340   38.9860   52.4990 C.3       1 4QZ         0.0749
      2 C2         96.7450   39.9180   53.2720 C.ar      1 4QZ        -0.0183
      3 C3         97.3810   39.4890   54.4750 C.ar      1 4QZ        -0.0582
      4 C7         96.9350   41.2380   52.7980 C.ar      1 4QZ        -0.0582
      5 C8         96.5630   37.2280   50.8970 C.2       1 4QZ         0.3507
      6 C9         97.2130   35.1130   49.5300 C.2       1 4QZ         0.2757
      7 C10        98.4200   34.1360   51.0920 C.2       1 4QZ         0.1283
      8 C11        96.3500   34.8700   47.1680 C.ar      1 4QZ         0.0658
      9 C12        96.9070   33.6140   46.8220 C.ar      1 4QZ        -0.0382
     10 C13        96.6320   33.0910   45.5640 C.ar      1 4QZ        -0.0579
     11 C14        95.8080   33.8200   44.7100 C.ar      1 4QZ         0.0276
     12 C15        95.2330   35.0560   45.0080 C.ar      1 4QZ        -0.0579
     13 C16        95.5190   35.5960   46.2560 C.ar      1 4QZ        -0.0382
     14 CL         95.4880   33.1610   43.2070 Cl        1 4QZ        -0.0817
     15 N5         96.5160   35.5120   48.4030 N.pl3     1 4QZ        -0.2276
     16 N2         97.9350   33.9730   49.7520 N.2       1 4QZ        -0.2728
     17 N4         99.1200   33.1900   51.6880 N.pl3     1 4QZ        -0.3288
     18 N3         98.0290   35.3280   51.6950 N.2       1 4QZ        -0.1857
     19 N1         97.2440   35.9510   50.6930 N.am      1 4QZ        -0.0649
     20 O          96.0680   37.8030   49.8990 O.2       1 4QZ        -0.3689
     21 N          96.4850   37.7050   52.2070 N.am      1 4QZ        -0.2434
     22 C          94.5450   38.7320   53.2740 C.3       1 4QZ        -0.0320
     23 C6         97.7430   42.1350   53.5270 C.ar      1 4QZ        -0.0685
     24 C5         98.3640   41.7070   54.7300 C.ar      1 4QZ        -0.0687
     25 C4         98.1890   40.3860   55.2010 C.ar      1 4QZ        -0.0685
     26 H1         95.5798   39.4705   51.5447 H         1 4QZ         0.0716
     27 H2         97.2426   38.4741   54.8299 H         1 4QZ         0.0557
     28 H3         96.4609   41.5586   51.8774 H         1 4QZ         0.0557
     29 H4         97.5333   33.0734   47.5224 H         1 4QZ         0.0533
     30 H5         97.0486   32.1391   45.2551 H         1 4QZ         0.0593
     31 H6         94.5937   35.5704   44.2997 H         1 4QZ         0.0593
     32 H7         95.1151   36.5618   46.5375 H         1 4QZ         0.0533
     33 H8         96.0450   36.4244   48.4845 H         1 4QZ         0.2176
     34 H9         99.3714   32.3338   51.1736 H         1 4QZ         0.1708
     35 H10        99.4152   33.3076   52.6678 H         1 4QZ         0.1708
     36 H11        96.8771   37.1675   52.9536 H         1 4QZ         0.1899
     37 H12        94.0545   39.6916   53.4944 H         1 4QZ         0.0274
     38 H13        94.7795   38.2152   54.2163 H         1 4QZ         0.0274
     39 H14        93.8714   38.1061   52.6702 H         1 4QZ         0.0274
     40 H15        97.8895   43.1480   53.1700 H         1 4QZ         0.0599
     41 H16        98.9785   42.4004   55.2928 H         1 4QZ         0.0559
     42 H17        98.6738   40.0648   56.1158 H         1 4QZ         0.0599
@<TRIPOS>BOND
     1    1    2 1  
     2   21    1 1  
     3    1   22 1  
     4    2    3 ar 
     5    2    4 ar 
     6    3   25 ar 
     7    4   23 ar 
     8   19    5 am 
     9    5   20 2  
    10    5   21 am 
    11   15    6 1  
    12    6   16 2  
    13    6   19 1  
    14   16    7 1  
    15    7   17 1  
    16    7   18 2  
    17    8    9 ar 
    18    8   13 ar 
    19    8   15 1  
    20    9   10 ar 
    21   10   11 ar 
    22   11   12 ar 
    23   11   14 1  
    24   12   13 ar 
    25   18   19 1  
    26   23   24 ar 
    27   24   25 ar 
    28    1   26 1  
    29    3   27 1  
    30    4   28 1  
    31    9   29 1  
    32   10   30 1  
    33   12   31 1  
    34   13   32 1  
    35   15   33 1  
    36   17   34 1  
    37   17   35 1  
    38   21   36 1  
    39   22   37 1  
    40   22   38 1  
    41   22   39 1  
    42   23   40 1  
    43   24   41 1  
    44   25   42 1  
@<TRIPOS>SUBSTRUCTURE
     1 4QZ         1

