### 
### Created by X-TOOL on Mon Sep 10 21:13:25 2018
### 

@<TRIPOS>MOLECULE
4zsm_ligand
   26    27     1     0     0
SMALL
GAST_HUCK


@<TRIPOS>ATOM
      1 C7         14.3600   -2.7380   -1.0300 C.3       1 4RW         0.0120
      2 C6         14.6960   -2.6750    1.8910 C.cat     1 4RW         0.2669
      3 C1         16.0440   -1.1590   -1.9250 C.3       1 4RW        -0.0525
      4 C5         12.9930   -2.8840   -0.3920 C.3       1 4RW         0.0027
      5 C4         16.7430   -3.3660   -0.9560 C.3       1 4RW        -0.0082
      6 C3         14.7100   -1.2730   -1.2350 C.3       1 4RW        -0.0452
      7 C2         17.1060   -1.8990   -1.1210 C.3       1 4RW        -0.0488
      8 C8         15.4170   -3.5220   -0.2490 C.3       1 4RW         0.1016
      9 N9         14.8670   -2.2960    3.1960 N.pl3     1 4RW        -0.2667
     10 N10        15.6680   -3.1180    1.1560 N.pl3     1 4RW        -0.2512
     11 S11        13.0120   -2.4890    1.3830 S.3       1 4RW        -0.0864
     12 H1         14.3039   -3.1929   -2.0300 H         1 4RW         0.0354
     13 H2         16.3225   -0.0981   -2.0084 H         1 4RW         0.0265
     14 H3         15.9740   -1.5999   -2.9303 H         1 4RW         0.0265
     15 H4         12.6525   -3.9222   -0.5194 H         1 4RW         0.0378
     16 H5         12.2923   -2.2036   -0.8980 H         1 4RW         0.0378
     17 H6         17.5256   -3.8656   -0.3661 H         1 4RW         0.0311
     18 H7         16.6777   -3.8339   -1.9494 H         1 4RW         0.0311
     19 H8         14.7598   -0.7693   -0.2584 H         1 4RW         0.0270
     20 H9         13.9364   -0.7959   -1.8547 H         1 4RW         0.0270
     21 H10        17.1917   -1.4360   -0.1269 H         1 4RW         0.0267
     22 H11        18.0704   -1.8242   -1.6448 H         1 4RW         0.0267
     23 H12        15.1133   -4.5792   -0.2506 H         1 4RW         0.0837
     24 H13        15.7994   -2.3505    3.6301 H         1 4RW         0.3186
     25 H14        14.0631   -1.9565    3.7433 H         1 4RW         0.3186
     26 H15        16.6174   -3.1896    1.5490 H         1 4RW         0.3214
@<TRIPOS>BOND
     1    4    1 1  
     2    1    6 1  
     3    1    8 1  
     4    2    9 ar 
     5    2   10 ar 
     6   11    2 1  
     7    6    3 1  
     8    3    7 1  
     9    4   11 1  
    10    7    5 1  
    11    5    8 1  
    12    8   10 1  
    13    1   12 1  
    14    3   13 1  
    15    3   14 1  
    16    4   15 1  
    17    4   16 1  
    18    5   17 1  
    19    5   18 1  
    20    6   19 1  
    21    6   20 1  
    22    7   21 1  
    23    7   22 1  
    24    8   23 1  
    25    9   24 1  
    26    9   25 1  
    27   10   26 1  
@<TRIPOS>SUBSTRUCTURE
     1 4RW         1

