### 
### Created by X-TOOL on Mon Sep 10 21:13:23 2018
### 

@<TRIPOS>MOLECULE
4zsp_ligand
   40    42     1     0     0
SMALL
GAST_HUCK


@<TRIPOS>ATOM
      1 O1         26.5490   57.2620   83.2420 O.2       1 4RZ        -0.3846
      2 C7         24.3760   56.8740   85.1060 C.3       1 4RZ         0.0421
      3 C6         23.7180   55.4960   84.9520 C.3       1 4RZ        -0.0256
      4 C1         22.3000   55.7260   88.5720 C.cat     1 4RZ         0.2669
      5 N1         22.0180   55.3310   87.3410 N.pl3     1 4RZ        -0.2512
      6 C5         22.2010   55.5840   84.9080 C.3       1 4RZ        -0.0061
      7 C4         21.6700   56.1960   86.2050 C.3       1 4RZ         0.1017
      8 C3         22.2780   57.5800   86.3210 C.3       1 4RZ         0.0141
      9 C2         21.7040   58.2560   87.5510 C.3       1 4RZ         0.0027
     10 N2         22.6490   54.8580   89.4960 N.pl3     1 4RZ        -0.2667
     11 S1         22.2610   57.3930   89.0490 S.3       1 4RZ        -0.0864
     12 N3         25.7910   56.6970   85.3410 N.am      1 4RZ        -0.2831
     13 C8         26.7590   56.9490   84.4040 C.2       1 4RZ         0.2052
     14 C9         28.1460   56.8520   84.9190 C.ar      1 4RZ         0.0504
     15 C10        28.4400   56.0010   85.9650 C.ar      1 4RZ        -0.0279
     16 C11        29.7280   55.9340   86.4340 C.ar      1 4RZ         0.0459
     17 CL1        30.0980   54.8670   87.7450 Cl        1 4RZ        -0.0695
     18 C12        30.7290   56.7140   85.8770 C.ar      1 4RZ        -0.0436
     19 C13        30.4330   57.5640   84.8330 C.ar      1 4RZ        -0.0557
     20 C14        29.1370   57.6320   84.3480 C.ar      1 4RZ        -0.0418
     21 C15        23.8050   57.6460   86.2770 C.3       1 4RZ        -0.0221
     22 H1         24.2206   57.4502   84.1819 H         1 4RZ         0.0555
     23 H2         24.0114   54.8663   85.8049 H         1 4RZ         0.0289
     24 H3         24.0731   55.0366   84.0177 H         1 4RZ         0.0289
     25 H4         22.0451   54.3172   87.1612 H         1 4RZ         0.3214
     26 H5         21.7818   54.5746   84.7843 H         1 4RZ         0.0312
     27 H6         21.8980   56.2136   84.0584 H         1 4RZ         0.0312
     28 H7         20.5749   56.2852   86.1533 H         1 4RZ         0.0837
     29 H8         21.9299   58.1481   85.4458 H         1 4RZ         0.0355
     30 H9         20.6054   58.2295   87.5023 H         1 4RZ         0.0378
     31 H10        22.0445   59.3014   87.5847 H         1 4RZ         0.0378
     32 H11        22.8656   55.1804   90.4500 H         1 4RZ         0.3186
     33 H12        22.7058   53.8556   89.2658 H         1 4RZ         0.3186
     34 H13        26.0811   56.3713   86.2409 H         1 4RZ         0.1848
     35 H14        27.6620   55.3922   86.4113 H         1 4RZ         0.0676
     36 H15        31.7411   56.6559   86.2609 H         1 4RZ         0.0658
     37 H16        31.2113   58.1770   84.3931 H         1 4RZ         0.0629
     38 H17        28.8995   58.2944   83.5234 H         1 4RZ         0.0670
     39 H18        24.1120   58.6988   86.1911 H         1 4RZ         0.0292
     40 H19        24.2051   57.2223   87.2099 H         1 4RZ         0.0292
@<TRIPOS>BOND
     1   13    1 2  
     2    2    3 1  
     3   12    2 1  
     4    2   21 1  
     5    3    6 1  
     6    5    4 ar 
     7    4   10 ar 
     8   11    4 1  
     9    7    5 1  
    10    6    7 1  
    11    8    7 1  
    12    8    9 1  
    13   21    8 1  
    14    9   11 1  
    15   12   13 am 
    16   13   14 1  
    17   14   15 ar 
    18   14   20 ar 
    19   15   16 ar 
    20   16   17 1  
    21   16   18 ar 
    22   18   19 ar 
    23   19   20 ar 
    24    2   22 1  
    25    3   23 1  
    26    3   24 1  
    27    5   25 1  
    28    6   26 1  
    29    6   27 1  
    30    7   28 1  
    31    8   29 1  
    32    9   30 1  
    33    9   31 1  
    34   10   32 1  
    35   10   33 1  
    36   12   34 1  
    37   15   35 1  
    38   18   36 1  
    39   19   37 1  
    40   20   38 1  
    41   21   39 1  
    42   21   40 1  
@<TRIPOS>SUBSTRUCTURE
     1 4RZ         1

