### 
### Created by X-TOOL on Mon Sep 10 21:13:24 2018
### 

@<TRIPOS>MOLECULE
4zsq_ligand
   45    48     1     0     0
SMALL
GAST_HUCK


@<TRIPOS>ATOM
      1 C7         18.9830  -10.7930   -9.7340 C.3       1 4RX         0.0422
      2 C6         19.5160  -11.4090   -8.4530 C.3       1 4RX        -0.0214
      3 C5         21.0340  -11.3690   -8.4430 C.3       1 4RX         0.0241
      4 C4         21.6020   -9.9690   -8.6560 C.3       1 4RX         0.1358
      5 C2         21.0010   -9.3480   -6.3850 C.cat     1 4RX         0.2675
      6 C15        12.9640  -11.3470   -9.9700 C.ar      1 4RX        -0.0557
      7 C14        14.2390  -11.4370  -10.4920 C.ar      1 4RX        -0.0418
      8 C16        12.6820  -10.4960   -8.9200 C.ar      1 4RX        -0.0436
      9 C18        14.9730   -9.7910   -8.9010 C.ar      1 4RX        -0.0279
     10 C13        15.2360  -10.6590   -9.9500 C.ar      1 4RX         0.0504
     11 C17        13.6890   -9.7200   -8.3930 C.ar      1 4RX         0.0459
     12 C11        16.5960  -10.7740  -10.5080 C.2       1 4RX         0.2052
     13 C8         19.5900   -9.4300  -10.0380 C.3       1 4RX        -0.0253
     14 C9         21.1010   -9.4220   -9.9860 C.3       1 4RX        -0.0010
     15 C21        23.1360  -11.9800   -7.3610 C.3       1 4RX         0.0598
     16 C23        23.1240  -10.0500   -8.7240 C.3       1 4RX         0.0949
     17 C20        21.6150  -11.9680   -7.1840 C.3       1 4RX         0.0380
     18 N3         21.2120   -8.9850   -7.6150 N.pl3     1 4RX        -0.2465
     19 N24        20.6610   -8.4280   -5.4330 N.pl3     1 4RX        -0.2667
     20 N10        17.5650  -10.6290   -9.5430 N.am      1 4RX        -0.2831
     21 O12        16.7660  -10.9970  -11.6990 O.2       1 4RX        -0.3846
     22 O22        23.6520  -10.6640   -7.5420 O.3       1 4RX        -0.3737
     23 S1         21.0870  -10.9920   -5.7330 S.3       1 4RX        -0.0807
     24 CL1        13.3090   -8.6520   -7.0960 Cl        1 4RX        -0.0695
     25 H1         19.1810  -11.4708  -10.5775 H         1 4RX         0.0555
     26 H2         19.1798  -12.4542   -8.3853 H         1 4RX         0.0292
     27 H3         19.1321  -10.8437   -7.5910 H         1 4RX         0.0292
     28 H4         21.3714  -11.9883   -9.2872 H         1 4RX         0.0362
     29 H5         12.1713  -11.9545  -10.3915 H         1 4RX         0.0629
     30 H6         14.4511  -12.1095  -11.3153 H         1 4RX         0.0670
     31 H7         11.6781  -10.4397   -8.5150 H         1 4RX         0.0658
     32 H8         15.7632   -9.1766   -8.4850 H         1 4RX         0.0676
     33 H9         19.2117   -8.7071   -9.3002 H         1 4RX         0.0289
     34 H10        19.2740   -9.1243  -11.0463 H         1 4RX         0.0289
     35 H11        21.4927  -10.0462  -10.8026 H         1 4RX         0.0315
     36 H12        21.4601   -8.3896  -10.1090 H         1 4RX         0.0315
     37 H13        23.3883  -12.5870   -8.2429 H         1 4RX         0.0571
     38 H14        23.5963  -12.4242   -6.4662 H         1 4RX         0.0571
     39 H15        23.5358   -9.0343   -8.8179 H         1 4RX         0.0610
     40 H16        23.4150  -10.6463   -9.6013 H         1 4RX         0.0610
     41 H17        21.2560  -13.0007   -7.0627 H         1 4RX         0.0436
     42 H18        21.1064   -7.9935   -7.8730 H         1 4RX         0.3217
     43 H19        20.4965   -8.7287   -4.4617 H         1 4RX         0.3186
     44 H20        20.5693   -7.4340   -5.6869 H         1 4RX         0.3186
     45 H21        17.2563  -10.3872   -8.6231 H         1 4RX         0.1848
@<TRIPOS>BOND
     1    1    2 1  
     2    1   13 1  
     3   20    1 1  
     4    2    3 1  
     5    3    4 1  
     6    3   17 1  
     7    4   14 1  
     8    4   16 1  
     9    4   18 1  
    10   18    5 ar 
    11    5   19 ar 
    12    5   23 1  
    13    7    6 ar 
    14    6    8 ar 
    15   10    7 ar 
    16   11    8 ar 
    17   10    9 ar 
    18    9   11 ar 
    19   12   10 1  
    20   11   24 1  
    21   12   20 am 
    22   12   21 2  
    23   13   14 1  
    24   17   15 1  
    25   15   22 1  
    26   16   22 1  
    27   17   23 1  
    28    1   25 1  
    29    2   26 1  
    30    2   27 1  
    31    3   28 1  
    32    6   29 1  
    33    7   30 1  
    34    8   31 1  
    35    9   32 1  
    36   13   33 1  
    37   13   34 1  
    38   14   35 1  
    39   14   36 1  
    40   15   37 1  
    41   15   38 1  
    42   16   39 1  
    43   16   40 1  
    44   17   41 1  
    45   18   42 1  
    46   19   43 1  
    47   19   44 1  
    48   20   45 1  
@<TRIPOS>SUBSTRUCTURE
     1 4RX         1

