### 
### Created by X-TOOL on Mon Sep 10 21:13:23 2018
### 

@<TRIPOS>MOLECULE
4zsr_ligand
   45    48     1     0     0
SMALL
GAST_HUCK


@<TRIPOS>ATOM
      1 C7         22.2660   54.7010   89.7130 C.cat     1 4RY         0.2672
      2 O2         20.0890   56.5010   86.2840 O.3       1 4RY        -0.3740
      3 C1         20.1160   55.3240   87.1280 C.3       1 4RY         0.0952
      4 C5         21.6550   57.1890   88.7790 C.3       1 4RY         0.0081
      5 C4         22.1270   56.5320   87.4860 C.3       1 4RY         0.0539
      6 C3         21.3430   57.2070   86.3820 C.3       1 4RY         0.0590
      7 C19        30.3800   56.4510   86.1910 C.ar      1 4RY        -0.0557
      8 C18        29.0890   56.5280   85.7080 C.ar      1 4RY        -0.0418
      9 C20        30.6560   55.5960   87.2330 C.ar      1 4RY        -0.0436
     10 C23        28.3390   54.9100   87.2860 C.ar      1 4RY        -0.0279
     11 C17        28.0710   55.7770   86.2430 C.ar      1 4RY         0.0504
     12 C21        29.6310   54.8350   87.7680 C.ar      1 4RY         0.0459
     13 C15        26.6990   55.8950   85.6930 C.2       1 4RY         0.2052
     14 C12        23.7290   54.3130   86.3380 C.3       1 4RY        -0.0253
     15 C11        22.2170   54.3450   86.2400 C.3       1 4RY        -0.0006
     16 C24        23.6410   56.6620   87.2850 C.3       1 4RY        -0.0167
     17 C13        24.3020   55.6980   86.2960 C.3       1 4RY         0.0425
     18 C10        21.5980   55.1180   87.3980 C.3       1 4RY         0.1403
     19 N9         21.8880   54.2580   88.5480 N.pl3     1 4RY        -0.2462
     20 N8         22.5740   53.8150   90.7300 N.pl3     1 4RY        -0.2667
     21 N14        25.7190   55.5860   86.6000 N.am      1 4RY        -0.2831
     22 O16        26.5300   56.2160   84.5170 O.2       1 4RY        -0.3846
     23 S6         22.3470   56.3810   90.2340 S.3       1 4RY        -0.0860
     24 CL1        30.0180   53.7660   89.0710 Cl        1 4RY        -0.0695
     25 H1         19.6865   54.4558   86.6066 H         1 4RY         0.0610
     26 H2         19.5659   55.4984   88.0644 H         1 4RY         0.0610
     27 H3         20.5577   57.1305   88.8278 H         1 4RY         0.0381
     28 H4         21.9663   58.2440   88.7762 H         1 4RY         0.0381
     29 H5         21.1664   58.2636   86.6319 H         1 4RY         0.0567
     30 H6         21.8918   57.1419   85.4309 H         1 4RY         0.0567
     31 H7         31.1663   57.0565   85.7548 H         1 4RY         0.0629
     32 H8         28.8730   57.1991   84.8846 H         1 4RY         0.0670
     33 H9         31.6620   55.5194   87.6294 H         1 4RY         0.0658
     34 H10        27.5516   54.3019   87.7164 H         1 4RY         0.0676
     35 H11        24.1315   53.7320   85.4951 H         1 4RY         0.0289
     36 H12        24.0176   53.8334   87.2849 H         1 4RY         0.0289
     37 H13        21.8360   53.3132   86.2550 H         1 4RY         0.0315
     38 H14        21.9303   54.8280   85.2942 H         1 4RY         0.0315
     39 H15        24.1188   56.5103   88.2641 H         1 4RY         0.0295
     40 H16        23.8414   57.6849   86.9337 H         1 4RY         0.0295
     41 H17        24.1741   56.1029   85.2813 H         1 4RY         0.0556
     42 H18        21.7867   53.2401   88.4278 H         1 4RY         0.3217
     43 H19        22.8725   54.1701   91.6496 H         1 4RY         0.3186
     44 H20        22.5048   52.8002   90.5675 H         1 4RY         0.3186
     45 H21        25.9903   55.2702   87.5092 H         1 4RY         0.1848
@<TRIPOS>BOND
     1    1   19 ar 
     2    1   20 ar 
     3   23    1 1  
     4    3    2 1  
     5    6    2 1  
     6   18    3 1  
     7    5    4 1  
     8    4   23 1  
     9    5    6 1  
    10   16    5 1  
    11    5   18 1  
    12    8    7 ar 
    13    7    9 ar 
    14   11    8 ar 
    15   12    9 ar 
    16   11   10 ar 
    17   10   12 ar 
    18   13   11 1  
    19   12   24 1  
    20   21   13 am 
    21   13   22 2  
    22   14   15 1  
    23   17   14 1  
    24   15   18 1  
    25   17   16 1  
    26   17   21 1  
    27   18   19 1  
    28    3   25 1  
    29    3   26 1  
    30    4   27 1  
    31    4   28 1  
    32    6   29 1  
    33    6   30 1  
    34    7   31 1  
    35    8   32 1  
    36    9   33 1  
    37   10   34 1  
    38   14   35 1  
    39   14   36 1  
    40   15   37 1  
    41   15   38 1  
    42   16   39 1  
    43   16   40 1  
    44   17   41 1  
    45   19   42 1  
    46   20   43 1  
    47   20   44 1  
    48   21   45 1  
@<TRIPOS>SUBSTRUCTURE
     1 4RY         1

