### 
### Created by X-TOOL on Tue Oct 16 15:17:37 2018
### 

@<TRIPOS>MOLECULE
4zt2_ligand
   41    43     1     0     0
SMALL
GAST_HUCK


@<TRIPOS>ATOM
      1 C1         39.0340   16.0350  200.4800 C.ar      1 MOL        -0.0409
      2 C2         40.4130   15.9920  200.5020 C.ar      1 MOL         0.0345
      3 C3         41.1090   14.8040  200.4870 C.ar      1 MOL        -0.0413
      4 C4         40.4170   13.6020  200.4820 C.ar      1 MOL         0.0022
      5 C5         41.1860   12.3080  200.5550 C.3       1 MOL         0.0001
      6 C6         42.4380   12.4550  198.4500 C.3       1 MOL        -0.0304
      7 C7         42.8110   11.7240  197.1720 C.3       1 MOL         0.0082
      8 N1         42.6650   13.4800  195.4740 N.pl3     1 MOL        -0.2730
      9 C8         43.5560   12.5550  196.1520 C.3       1 MOL         0.0389
     10 C9         43.0360   14.3650  194.5480 C.2       1 MOL         0.2186
     11 C10        42.8820   15.9860  193.0710 C.ar      1 MOL         0.0391
     12 C11        42.5690   17.1000  192.3050 C.ar      1 MOL        -0.0500
     13 N2         42.1600   15.2080  193.9550 N.2       1 MOL        -0.3046
     14 C12        43.6120   17.7440  191.6630 C.ar      1 MOL        -0.0533
     15 C13        44.8930   17.2470  191.8080 C.ar      1 MOL        -0.0087
     16 C14        44.1820   15.5600  193.1910 C.ar      1 MOL         0.1474
     17 C15        39.0240   13.6210  200.4710 C.ar      1 MOL        -0.0413
     18 N3         45.1990   16.1710  192.5520 N.ar      1 MOL        -0.2881
     19 CL1        41.2970   17.4780  200.6520 Cl        1 MOL        -0.0725
     20 C          38.3580   14.8330  200.4760 C.ar      1 MOL         0.0345
     21 CL         36.6090   14.8480  200.5130 Cl        1 MOL        -0.0725
     22 N          41.4550   11.7070  199.2450 N.4       1 MOL         0.2391
     23 N4         44.2730   14.5380  194.1140 N.pl3     1 MOL        -0.2148
     24 H1         38.5015   16.9791  200.4664 H         1 MOL         0.0571
     25 H2         42.1930   14.8082  200.4791 H         1 MOL         0.0565
     26 H3         40.6037   11.5913  201.1527 H         1 MOL         0.0979
     27 H4         42.1480   12.5033  201.0514 H         1 MOL         0.0979
     28 H5         42.0111   13.4342  198.1874 H         1 MOL         0.0814
     29 H6         43.3459   12.6008  199.0537 H         1 MOL         0.0814
     30 H7         41.8841   11.3608  196.7042 H         1 MOL         0.0337
     31 H8         43.4455   10.8671  197.4423 H         1 MOL         0.0337
     32 H9         41.6674   13.4501  195.7286 H         1 MOL         0.1904
     33 H10        44.0114   11.8853  195.4076 H         1 MOL         0.0529
     34 H11        44.3451   13.1265  196.6625 H         1 MOL         0.0529
     35 H12        41.5478   17.4518  192.2132 H         1 MOL         0.0642
     36 H13        43.4272   18.6234  191.0567 H         1 MOL         0.0594
     37 H14        45.6988   17.7553  191.2909 H         1 MOL         0.0722
     38 H15        38.4658   12.6918  200.4586 H         1 MOL         0.0565
     39 H16        40.5904   11.6669  198.7283 H         1 MOL         0.2028
     40 H17        41.8046   10.7725  199.3880 H         1 MOL         0.2028
     41 H18        45.1179   14.0236  194.4013 H         1 MOL         0.2348
@<TRIPOS>BOND
     1    2    1 ar 
     2    1   20 ar 
     3    3    2 ar 
     4    2   19 1  
     5    4    3 ar 
     6    5    4 1  
     7    4   17 ar 
     8   22    5 1  
     9    7    6 1  
    10    6   22 1  
    11    9    7 1  
    12    8    9 1  
    13   10    8 1  
    14   13   10 2  
    15   10   23 1  
    16   11   12 ar 
    17   11   13 1  
    18   11   16 ar 
    19   12   14 ar 
    20   14   15 ar 
    21   15   18 ar 
    22   16   18 ar 
    23   16   23 1  
    24   17   20 ar 
    25   20   21 1  
    26    1   24 1  
    27    3   25 1  
    28    5   26 1  
    29    5   27 1  
    30    6   28 1  
    31    6   29 1  
    32    7   30 1  
    33    7   31 1  
    34    8   32 1  
    35    9   33 1  
    36    9   34 1  
    37   12   35 1  
    38   14   36 1  
    39   15   37 1  
    40   17   38 1  
    41   22   39 1  
    42   22   40 1  
    43   23   41 1  
@<TRIPOS>SUBSTRUCTURE
     1 MOL         1

