### 
### Created by X-TOOL on Tue Oct 16 15:17:43 2018
### 

@<TRIPOS>MOLECULE
4zt3_ligand
   41    43     1     0     0
SMALL
GAST_HUCK


@<TRIPOS>ATOM
      1 N1        128.9930  119.3480  -12.0390 N.pl3     1 MOL        -0.2727
      2 N2        127.8320  117.4450   -8.3840 N.4       1 MOL         0.2391
      3 C3        129.1560  121.8320  -14.3840 C.ar      1 MOL         0.0945
      4 C4        129.3310  120.2400  -12.9800 C.2       1 MOL         0.2179
      5 C5        129.9290  118.4590  -11.3670 C.3       1 MOL         0.0391
      6 C6        129.2300  117.5000  -10.4270 C.3       1 MOL         0.0083
      7 C7        128.9290  118.1270   -9.0810 C.3       1 MOL        -0.0304
      8 C10       127.5670  120.5770   -7.2150 C.ar      1 MOL        -0.0413
      9 C12       125.5580  121.9180   -7.2820 C.ar      1 MOL        -0.0409
     10 C15       130.5200  121.4640  -14.3360 C.ar      1 MOL         0.0722
     11 CL1       123.0800  120.8470   -7.4330 Cl        1 MOL        -0.0725
     12 C13       124.8200  120.7500   -7.2960 C.ar      1 MOL         0.0345
     13 C11       126.9340  121.8030   -7.2590 C.ar      1 MOL         0.0345
     14 CL        127.9030  123.2440   -7.3560 Cl        1 MOL        -0.0725
     15 C14       125.4200  119.5050   -7.2560 C.ar      1 MOL        -0.0413
     16 C9        126.8090  119.4100   -7.2080 C.ar      1 MOL         0.0022
     17 C8        127.4890  118.0660   -7.0990 C.3       1 MOL         0.0001
     18 N         128.4170  121.0350  -13.5130 N.pl3     1 MOL        -0.2258
     19 N3        130.5940  120.4330  -13.4280 N.2       1 MOL        -0.2977
     20 N4        131.5220  122.0690  -14.9970 N.ar      1 MOL        -0.2835
     21 C         131.0590  123.1790  -15.7550 C.ar      1 MOL         0.1897
     22 F         132.0340  123.8470  -16.4140 F         1 MOL        -0.1639
     23 C2        128.7950  122.9340  -15.1600 C.ar      1 MOL        -0.0284
     24 C1        129.7650  123.6250  -15.8580 C.ar      1 MOL        -0.0138
     25 H1        128.0000  119.2872  -11.7723 H         1 MOL         0.1908
     26 H2        128.1046  116.4893   -8.2153 H         1 MOL         0.2028
     27 H3        127.0164  117.4623   -8.9760 H         1 MOL         0.2028
     28 H4        130.6416  119.0657  -10.7890 H         1 MOL         0.0530
     29 H5        130.4733  117.8779  -12.1260 H         1 MOL         0.0530
     30 H6        129.8762  116.6235  -10.2718 H         1 MOL         0.0337
     31 H7        128.2834  117.1808  -10.8876 H         1 MOL         0.0337
     32 H8        129.8326  118.0746   -8.4559 H         1 MOL         0.0814
     33 H9        128.6503  119.1799   -9.2352 H         1 MOL         0.0814
     34 H10       128.6493  120.5236   -7.1860 H         1 MOL         0.0565
     35 H11       125.0749  122.8884   -7.2888 H         1 MOL         0.0571
     36 H12       124.8126  118.6072   -7.2620 H         1 MOL         0.0565
     37 H13       128.4172  118.1976   -6.5236 H         1 MOL         0.0979
     38 H14       126.8158  117.3846   -6.5582 H         1 MOL         0.0979
     39 H15       127.4040  121.0586  -13.3283 H         1 MOL         0.2322
     40 H16       127.7583  123.2459  -15.2145 H         1 MOL         0.0646
     41 H17       129.5142  124.4876  -16.4647 H         1 MOL         0.0572
@<TRIPOS>BOND
     1    1    4 1  
     2    5    1 1  
     3    2    7 1  
     4   17    2 1  
     5   10    3 ar 
     6   18    3 1  
     7    3   23 ar 
     8    4   18 1  
     9    4   19 2  
    10    6    5 1  
    11    7    6 1  
    12    8   13 ar 
    13   16    8 ar 
    14   12    9 ar 
    15   13    9 ar 
    16   19   10 1  
    17   10   20 ar 
    18   12   11 1  
    19   15   12 ar 
    20   13   14 1  
    21   16   15 ar 
    22   16   17 1  
    23   20   21 ar 
    24   21   22 1  
    25   21   24 ar 
    26   23   24 ar 
    27    1   25 1  
    28    2   26 1  
    29    2   27 1  
    30    5   28 1  
    31    5   29 1  
    32    6   30 1  
    33    6   31 1  
    34    7   32 1  
    35    7   33 1  
    36    8   34 1  
    37    9   35 1  
    38   15   36 1  
    39   17   37 1  
    40   17   38 1  
    41   18   39 1  
    42   23   40 1  
    43   24   41 1  
@<TRIPOS>SUBSTRUCTURE
     1 MOL         1

