### 
### Created by X-TOOL on Tue Oct 16 15:17:38 2018
### 

@<TRIPOS>MOLECULE
4zt4_ligand
   41    43     1     0     0
SMALL
GAST_HUCK


@<TRIPOS>ATOM
      1 C4        -41.4530   14.7830    7.2450 C.ar      1 MOL        -0.0413
      2 C2        -41.6230   12.2740    7.3610 C.3       1 MOL         0.0004
      3 C3        -40.8120   13.5500    7.3080 C.ar      1 MOL         0.0022
      4 C1        -42.8430   12.4550    9.4890 C.3       1 MOL         0.0347
      5 C7        -38.6970   14.6960    7.2720 C.ar      1 MOL         0.0345
      6 C8        -39.4150   13.5130    7.3280 C.ar      1 MOL        -0.0413
      7 C11       -44.5930   15.6720   14.5010 C.ar      1 MOL         0.0792
      8 C15       -43.2740   16.0340   14.4840 C.ar      1 MOL         0.1016
      9 C14       -42.9060   17.1690   15.2060 C.ar      1 MOL        -0.0254
     10 C12       -45.1990   17.3870   15.8500 C.ar      1 MOL        -0.0115
     11 CL1       -36.9390   14.6370    7.2790 Cl        1 MOL        -0.0725
     12 C6        -39.3250   15.9260    7.2150 C.ar      1 MOL        -0.0409
     13 C5        -40.7060   15.9410    7.2180 C.ar      1 MOL         0.0345
     14 CL        -41.5290   17.4660    7.2660 Cl        1 MOL        -0.0725
     15 N         -42.9340   12.3940    8.0280 N.4       1 MOL         0.2433
     16 C         -44.2980   12.6420   10.1690 C.3       1 MOL         0.3072
     17 F         -45.2190   11.7380    9.6860 F         1 MOL        -0.1975
     18 F1        -44.8510   13.8720    9.8950 F         1 MOL        -0.1975
     19 C9        -44.0900   12.4490   11.7190 C.3       1 MOL         0.1029
     20 N1        -43.1400   13.3820   12.3040 N.pl3     1 MOL        -0.2664
     21 C10       -43.4610   14.3410   13.1790 C.2       1 MOL         0.2200
     22 N4        -42.5550   15.1860   13.6440 N.pl3     1 MOL        -0.2220
     23 N2        -44.6980   14.5890   13.6660 N.2       1 MOL        -0.2947
     24 C13       -43.8940   17.8540   15.8980 C.ar      1 MOL        -0.0511
     25 N3        -45.5760   16.2990   15.1620 N.ar      1 MOL        -0.3130
     26 H1        -42.5355   14.8329    7.2173 H         1 MOL         0.0565
     27 H2        -41.0340   11.5177    7.9005 H         1 MOL         0.0979
     28 H3        -41.7955   11.9364    6.3284 H         1 MOL         0.0979
     29 H4        -42.2050   13.3053    9.7717 H         1 MOL         0.0874
     30 H5        -42.3940   11.5211    9.8580 H         1 MOL         0.0874
     31 H6        -38.8960   12.5631    7.3870 H         1 MOL         0.0565
     32 H7        -41.8761   17.5067   15.2259 H         1 MOL         0.0658
     33 H8        -45.9576   17.9323   16.3998 H         1 MOL         0.0722
     34 H9        -38.7538   16.8462    7.1696 H         1 MOL         0.0571
     35 H10       -43.4944   11.5948    7.7764 H         1 MOL         0.2030
     36 H11       -43.3826   13.2353    7.7009 H         1 MOL         0.2030
     37 H12       -43.7253   11.4263   11.8954 H         1 MOL         0.0589
     38 H13       -45.0607   12.5834   12.2187 H         1 MOL         0.0589
     39 H14       -42.1520   13.2984   12.0252 H         1 MOL         0.1912
     40 H15       -41.5472   15.2112   13.4329 H         1 MOL         0.2337
     41 H16       -43.6493   18.7425   16.4687 H         1 MOL         0.0597
@<TRIPOS>BOND
     1    3    1 ar 
     2    1   13 ar 
     3    2    3 1  
     4   15    2 1  
     5    3    6 ar 
     6    4   15 1  
     7   16    4 1  
     8    6    5 ar 
     9    5   11 1  
    10    5   12 ar 
    11    8    7 ar 
    12    7   23 1  
    13    7   25 ar 
    14    8    9 ar 
    15   22    8 1  
    16    9   24 ar 
    17   24   10 ar 
    18   25   10 ar 
    19   13   12 ar 
    20   13   14 1  
    21   16   17 1  
    22   16   18 1  
    23   19   16 1  
    24   20   19 1  
    25   21   20 1  
    26   21   22 1  
    27   21   23 2  
    28    1   26 1  
    29    2   27 1  
    30    2   28 1  
    31    4   29 1  
    32    4   30 1  
    33    6   31 1  
    34    9   32 1  
    35   10   33 1  
    36   12   34 1  
    37   15   35 1  
    38   15   36 1  
    39   19   37 1  
    40   19   38 1  
    41   20   39 1  
    42   22   40 1  
    43   24   41 1  
@<TRIPOS>SUBSTRUCTURE
     1 MOL         1

