### 
### Created by X-TOOL on Tue Oct 16 15:17:39 2018
### 

@<TRIPOS>MOLECULE
4zt5_ligand
   44    46     1     0     0
SMALL
GAST_HUCK


@<TRIPOS>ATOM
      1 C1        -43.0450   11.7330   10.4670 C.3       1 MOL         0.0170
      2 C2        -42.6100   12.4950    9.1620 C.3       1 MOL        -0.0277
      3 C3        -41.0310   12.2680    7.2660 C.3       1 MOL         0.0001
      4 C4        -40.2750   13.5750    7.2770 C.ar      1 MOL         0.0022
      5 C5        -38.8810   13.6120    7.3280 C.ar      1 MOL        -0.0413
      6 C6        -38.2290   14.8310    7.3000 C.ar      1 MOL         0.0345
      7 C7        -38.9200   16.0270    7.2520 C.ar      1 MOL        -0.0409
      8 N1        -42.6250   13.5340   12.1890 N.pl3     1 MOL        -0.2728
      9 N2        -42.0080   15.2450   13.7210 N.2       1 MOL        -0.3046
     10 N3        -44.9940   16.2970   15.1870 N.ar      1 MOL        -0.2881
     11 N4        -44.1350   14.6410   13.6180 N.pl3     1 MOL        -0.2148
     12 C8        -40.2980   15.9650    7.2070 C.ar      1 MOL         0.0345
     13 CL1       -41.2050   17.4410    7.1190 Cl        1 MOL        -0.0725
     14 CL        -36.4750   14.8630    7.2910 Cl        1 MOL        -0.0725
     15 C9        -40.9800   14.7680    7.2130 C.ar      1 MOL        -0.0413
     16 N         -41.4350   11.8140    8.6010 N.4       1 MOL         0.2393
     17 C         -44.1370   10.7150   10.1500 C.3       1 MOL        -0.0557
     18 C10       -43.6120   12.6680   11.5660 C.3       1 MOL         0.0415
     19 C11       -42.9180   14.4280   13.1410 C.2       1 MOL         0.2186
     20 C16       -44.0020   15.6550   14.5410 C.ar      1 MOL         0.1474
     21 C12       -42.6870   16.0360   14.6280 C.ar      1 MOL         0.0391
     22 C15       -44.6440   17.3670   15.9180 C.ar      1 MOL        -0.0087
     23 C14       -43.3430   17.8240   16.0390 C.ar      1 MOL        -0.0533
     24 C13       -42.3290   17.1440   15.3830 C.ar      1 MOL        -0.0500
     25 H1        -42.1635   11.2105   10.8668 H         1 MOL         0.0370
     26 H2        -42.3547   13.5365    9.4069 H         1 MOL         0.0817
     27 H3        -43.4322   12.4810    8.4314 H         1 MOL         0.0817
     28 H4        -40.3876   11.4975    6.8163 H         1 MOL         0.0979
     29 H5        -41.9355   12.3942    6.6528 H         1 MOL         0.0979
     30 H6        -38.3128   12.6909    7.3892 H         1 MOL         0.0565
     31 H7        -38.3993   16.9778    7.2498 H         1 MOL         0.0571
     32 H8        -41.6454   13.4554   11.8807 H         1 MOL         0.1904
     33 H9        -45.0012   14.1503   13.3537 H         1 MOL         0.2348
     34 H10       -42.0630   14.7584    7.1679 H         1 MOL         0.0565
     35 H11       -41.6415   10.8289    8.5465 H         1 MOL         0.2028
     36 H12       -40.6599   11.9607    9.2285 H         1 MOL         0.2028
     37 H13       -44.4293   10.1917   11.0723 H         1 MOL         0.0235
     38 H14       -43.7575    9.9857    9.4192 H         1 MOL         0.0235
     39 H15       -45.0113   11.2339    9.7301 H         1 MOL         0.0235
     40 H16       -44.0636   12.0423   12.3499 H         1 MOL         0.0532
     41 H17       -44.3871   13.3022   11.1111 H         1 MOL         0.0532
     42 H18       -45.4251   17.9041   16.4438 H         1 MOL         0.0722
     43 H19       -43.1207   18.7001   16.6375 H         1 MOL         0.0594
     44 H20       -41.2963   17.4652   15.4568 H         1 MOL         0.0642
@<TRIPOS>BOND
     1    1    2 1  
     2    1   17 1  
     3   18    1 1  
     4    2   16 1  
     5    3    4 1  
     6   16    3 1  
     7    4    5 ar 
     8    4   15 ar 
     9    5    6 ar 
    10    6    7 ar 
    11    6   14 1  
    12    7   12 ar 
    13    8   18 1  
    14   19    8 1  
    15   19    9 2  
    16    9   21 1  
    17   20   10 ar 
    18   10   22 ar 
    19   11   19 1  
    20   11   20 1  
    21   12   13 1  
    22   12   15 ar 
    23   20   21 ar 
    24   21   24 ar 
    25   22   23 ar 
    26   23   24 ar 
    27    1   25 1  
    28    2   26 1  
    29    2   27 1  
    30    3   28 1  
    31    3   29 1  
    32    5   30 1  
    33    7   31 1  
    34    8   32 1  
    35   11   33 1  
    36   15   34 1  
    37   16   35 1  
    38   16   36 1  
    39   17   37 1  
    40   17   38 1  
    41   17   39 1  
    42   18   40 1  
    43   18   41 1  
    44   22   42 1  
    45   23   43 1  
    46   24   44 1  
@<TRIPOS>SUBSTRUCTURE
     1 MOL         1

