### 
### Created by X-TOOL on Tue Oct 16 15:17:40 2018
### 

@<TRIPOS>MOLECULE
4zt6_ligand
   46    49     1     0     0
SMALL
GAST_HUCK


@<TRIPOS>ATOM
      1 C1        -43.6250   17.7310   15.8730 C.ar      1 MOL        -0.0138
      2 C2        -42.6430   17.0480   15.1820 C.ar      1 MOL        -0.0284
      3 C3        -43.0030   15.9610   14.3890 C.ar      1 MOL         0.0945
      4 C4        -43.1830   14.3840   12.9760 C.2       1 MOL         0.2179
      5 C5        -43.9200   12.6290   11.4090 C.3       1 MOL         0.0391
      6 C6        -43.3070   11.6780   10.4050 C.3       1 MOL         0.0083
      7 C7        -42.7380   12.3570    9.1820 C.3       1 MOL        -0.0303
      8 C8        -41.3180   11.9390    7.1450 C.3       1 MOL         0.0121
      9 C9        -40.4230   10.8540    6.5550 C.3       1 MOL         0.0263
     10 C10       -39.0120   10.9120    7.0950 C.3       1 MOL         0.0758
     11 C11       -39.1920   13.3560    7.0820 C.ar      1 MOL         0.1129
     12 C15       -41.3260   14.4620    7.0830 C.ar      1 MOL        -0.0493
     13 C16       -40.5930   13.2750    7.1060 C.ar      1 MOL         0.0350
     14 CL1       -41.6180   17.1340    7.0300 Cl        1 MOL        -0.0828
     15 C14       -40.6770   15.6790    7.0590 C.ar      1 MOL         0.0226
     16 C13       -39.3040   15.7730    7.0480 C.ar      1 MOL        -0.0496
     17 C12       -38.5650   14.6100    7.0520 C.ar      1 MOL         0.0624
     18 CL        -36.8210   14.7300    7.0190 Cl        1 MOL        -0.0809
     19 O         -38.4140   12.2280    7.0560 O.3       1 MOL        -0.3200
     20 N2        -41.7470   11.5240    8.4890 N.4       1 MOL         0.2398
     21 N1        -42.9110   13.4610   12.0490 N.pl3     1 MOL        -0.2727
     22 N         -42.2660   15.1650   13.5180 N.pl3     1 MOL        -0.2258
     23 N3        -44.4440   14.6000   13.4140 N.2       1 MOL        -0.2977
     24 C17       -44.3580   15.6150   14.3280 C.ar      1 MOL         0.0722
     25 N4        -45.3550   16.2200   14.9820 N.ar      1 MOL        -0.2835
     26 C         -44.9150   17.2830   15.7440 C.ar      1 MOL         0.1897
     27 F         -45.8980   17.9050   16.4350 F         1 MOL        -0.1639
     28 H1        -43.3855   18.5874   16.4929 H         1 MOL         0.0572
     29 H2        -41.6057   17.3540   15.2560 H         1 MOL         0.0646
     30 H3        -44.4419   12.0445   12.1810 H         1 MOL         0.0530
     31 H4        -44.6409   13.2784   10.8908 H         1 MOL         0.0530
     32 H5        -44.0847   10.9721   10.0780 H         1 MOL         0.0337
     33 H6        -42.4961   11.1257   10.9024 H         1 MOL         0.0337
     34 H7        -42.2556   13.2959    9.4915 H         1 MOL         0.0815
     35 H8        -43.5607   12.5793    8.4865 H         1 MOL         0.0815
     36 H9        -42.2183   12.0310    6.5197 H         1 MOL         0.0992
     37 H10       -40.3884   10.9802    5.4628 H         1 MOL         0.0366
     38 H11       -40.8534    9.8711    6.7971 H         1 MOL         0.0366
     39 H12       -38.3865   10.2315    6.4986 H         1 MOL         0.0615
     40 H13       -39.0291   10.5722    8.1411 H         1 MOL         0.0615
     41 H14       -42.4095   14.4277    7.0840 H         1 MOL         0.0536
     42 H15       -38.8149   16.7403    7.0364 H         1 MOL         0.0544
     43 H16       -42.1377   10.5985    8.4068 H         1 MOL         0.2028
     44 H17       -40.9239   11.4909    9.0699 H         1 MOL         0.2028
     45 H18       -41.9281   13.3301   11.7703 H         1 MOL         0.1908
     46 H19       -41.2518   15.1808   13.3392 H         1 MOL         0.2322
@<TRIPOS>BOND
     1    2    1 ar 
     2    1   26 ar 
     3    3    2 ar 
     4   22    3 1  
     5    3   24 ar 
     6   21    4 1  
     7    4   22 1  
     8    4   23 2  
     9    6    5 1  
    10    5   21 1  
    11    7    6 1  
    12   20    7 1  
    13    8    9 1  
    14    8   13 1  
    15    8   20 1  
    16    9   10 1  
    17   10   19 1  
    18   13   11 ar 
    19   11   17 ar 
    20   11   19 1  
    21   13   12 ar 
    22   12   15 ar 
    23   15   14 1  
    24   15   16 ar 
    25   16   17 ar 
    26   17   18 1  
    27   23   24 1  
    28   24   25 ar 
    29   25   26 ar 
    30   26   27 1  
    31    1   28 1  
    32    2   29 1  
    33    5   30 1  
    34    5   31 1  
    35    6   32 1  
    36    6   33 1  
    37    7   34 1  
    38    7   35 1  
    39    8   36 1  
    40    9   37 1  
    41    9   38 1  
    42   10   39 1  
    43   10   40 1  
    44   12   41 1  
    45   16   42 1  
    46   20   43 1  
    47   20   44 1  
    48   21   45 1  
    49   22   46 1  
@<TRIPOS>SUBSTRUCTURE
     1 MOL         1

