### 
### Created by X-TOOL on Tue Oct 16 15:17:42 2018
### 

@<TRIPOS>MOLECULE
4zt7_ligand
   47    50     1     0     0
SMALL
GAST_HUCK


@<TRIPOS>ATOM
      1 C1        -43.2490   17.6980   15.9680 C.ar      1 MOL        -0.0138
      2 N2        -41.3380   11.4110    8.5450 N.4       1 MOL         0.2395
      3 C3        -42.6220   15.9090   14.4820 C.ar      1 MOL         0.0945
      4 N4        -44.0350   14.5800   13.4280 N.2       1 MOL        -0.2977
      5 C5        -43.4820   12.6090   11.4070 C.3       1 MOL         0.0391
      6 C6        -42.8040   11.5830   10.5230 C.3       1 MOL         0.0083
      7 C7        -42.5090   12.0750    9.1260 C.3       1 MOL        -0.0304
      8 C9        -40.1790   10.7070    6.5380 C.3       1 MOL         0.0176
      9 CL1       -41.3010   17.0120    6.9980 Cl        1 MOL        -0.0847
     10 C14       -40.3800   15.5360    7.0350 C.ar      1 MOL         0.0203
     11 C13       -39.0040   15.6070    7.0700 C.ar      1 MOL        -0.0527
     12 C12       -38.2840   14.4290    7.1210 C.ar      1 MOL         0.0510
     13 CL        -36.5460   14.5330    7.1680 Cl        1 MOL        -0.0838
     14 C15       -41.0440   14.3240    7.0500 C.ar      1 MOL        -0.0523
     15 C16       -40.3200   13.1270    7.1100 C.ar      1 MOL         0.0240
     16 C11       -38.9140   13.1760    7.1410 C.ar      1 MOL         0.0603
     17 N3        -38.1830   12.0000    7.1880 N.pl3     1 MOL        -0.3243
     18 C10       -38.8070   10.6760    7.1920 C.3       1 MOL         0.0294
     19 C8        -41.0540   11.7960    7.1540 C.3       1 MOL         0.0098
     20 N1        -42.5040   13.4750   12.0480 N.pl3     1 MOL        -0.2727
     21 C4        -42.7700   14.3770   12.9950 C.2       1 MOL         0.2179
     22 N         -41.8760   15.1430   13.5920 N.pl3     1 MOL        -0.2258
     23 C17       -43.9700   15.5690   14.3830 C.ar      1 MOL         0.0722
     24 N5        -44.9730   16.1790   15.0290 N.ar      1 MOL        -0.2835
     25 C         -44.5430   17.2560   15.8140 C.ar      1 MOL         0.1897
     26 F         -45.5370   17.8900   16.4790 F         1 MOL        -0.1639
     27 C2        -42.2730   16.9930   15.2870 C.ar      1 MOL        -0.0284
     28 H1        -43.0075   18.5527   16.5895 H         1 MOL         0.0572
     29 H2        -41.4936   10.4154    8.5718 H         1 MOL         0.2028
     30 H3        -40.5333   11.6406    9.1070 H         1 MOL         0.2028
     31 H4        -44.0631   12.0878   12.1820 H         1 MOL         0.0530
     32 H5        -44.1574   13.2226   10.7927 H         1 MOL         0.0530
     33 H6        -43.4599   10.7031   10.4485 H         1 MOL         0.0337
     34 H7        -41.8539   11.2932   10.9954 H         1 MOL         0.0337
     35 H8        -43.3827   11.8765    8.4879 H         1 MOL         0.0814
     36 H9        -42.3208   13.1581    9.1635 H         1 MOL         0.0814
     37 H10       -40.6668    9.7312    6.6787 H         1 MOL         0.0358
     38 H11       -40.0606   10.9061    5.4627 H         1 MOL         0.0358
     39 H12       -38.4981   16.5656    7.0578 H         1 MOL         0.0538
     40 H13       -42.1272   14.3000    7.0153 H         1 MOL         0.0529
     41 H14       -37.1553   12.0601    7.2216 H         1 MOL         0.1740
     42 H15       -38.1632    9.9754    6.6400 H         1 MOL         0.0513
     43 H16       -38.9140   10.3341    8.2320 H         1 MOL         0.0513
     44 H17       -41.9962   11.8808    6.5927 H         1 MOL         0.0988
     45 H18       -41.5237   13.3842   11.7453 H         1 MOL         0.1908
     46 H19       -40.8584   15.1679   13.4348 H         1 MOL         0.2322
     47 H20       -41.2329   17.2842   15.3794 H         1 MOL         0.0646
@<TRIPOS>BOND
     1    1   25 ar 
     2   27    1 ar 
     3    7    2 1  
     4    2   19 1  
     5    3   22 1  
     6   23    3 ar 
     7    3   27 ar 
     8   21    4 2  
     9    4   23 1  
    10    5    6 1  
    11   20    5 1  
    12    6    7 1  
    13    8   18 1  
    14   19    8 1  
    15   10    9 1  
    16   10   11 ar 
    17   14   10 ar 
    18   12   11 ar 
    19   12   13 1  
    20   16   12 ar 
    21   15   14 ar 
    22   15   16 ar 
    23   19   15 1  
    24   16   17 1  
    25   18   17 1  
    26   20   21 1  
    27   21   22 1  
    28   23   24 ar 
    29   24   25 ar 
    30   25   26 1  
    31    1   28 1  
    32    2   29 1  
    33    2   30 1  
    34    5   31 1  
    35    5   32 1  
    36    6   33 1  
    37    6   34 1  
    38    7   35 1  
    39    7   36 1  
    40    8   37 1  
    41    8   38 1  
    42   11   39 1  
    43   14   40 1  
    44   17   41 1  
    45   18   42 1  
    46   18   43 1  
    47   19   44 1  
    48   20   45 1  
    49   22   46 1  
    50   27   47 1  
@<TRIPOS>SUBSTRUCTURE
     1 MOL         1

