### 
### Created by X-TOOL on Mon Sep 10 21:13:23 2018
### 

@<TRIPOS>MOLECULE
4zt8_ligand
   14    14     1     0     0
SMALL
GAST_HUCK


@<TRIPOS>ATOM
      1 N3        -17.2960   14.7390   -3.1920 N.am      1 CYT        -0.2070
      2 C4        -17.3300   14.9970   -1.8780 C.cat     1 CYT         0.2762
      3 N1        -15.0420   15.4250   -3.2960 N.2       1 CYT        -0.2384
      4 C2        -16.1630   14.9520   -3.8880 C.2       1 CYT         0.2496
      5 O2        -16.1320   14.7140   -5.1100 O.2       1 CYT        -0.3834
      6 N4        -18.4340   14.8010   -1.1160 N.pl3     1 CYT        -0.2192
      7 C5        -16.1870   15.4690   -1.2630 C.3       1 CYT         0.1108
      8 C6        -15.0340   15.6890   -1.9870 C.2       1 CYT         0.0340
      9 H1        -18.1102   14.3890   -3.6551 H         1 CYT         0.1928
     10 H2        -18.4092   15.0150   -0.1088 H         1 CYT         0.4602
     11 H3        -19.2976   14.4381   -1.5443 H         1 CYT         0.4602
     12 H4        -15.9304   14.7423   -0.4781 H         1 CYT         0.0666
     13 H5        -16.4544   16.4301   -0.7997 H         1 CYT         0.0666
     14 H6        -14.1365   16.0697   -1.5017 H         1 CYT         0.1310
@<TRIPOS>BOND
     1    1    2 ar 
     2    1    4 am 
     3    2    6 ar 
     4    2    7 1  
     5    4    3 1  
     6    3    8 2  
     7    4    5 2  
     8    7    8 1  
     9    1    9 1  
    10    6   10 1  
    11    6   11 1  
    12    7   12 1  
    13    7   13 1  
    14    8   14 1  
@<TRIPOS>SUBSTRUCTURE
     1 CYT         1

