### 
### Created by X-TOOL on Mon Sep 10 21:13:25 2018
### 

@<TRIPOS>MOLECULE
4ztl_ligand
   54    57     1     0     0
SMALL
GAST_HUCK


@<TRIPOS>ATOM
      1 C01        29.9840    8.3050   -8.3570 C.ar      1 4S1         0.1362
      2 N02        29.3930    7.6580   -7.2890 N.ar      1 4S1        -0.2330
      3 C03        29.6400    6.3580   -7.0870 C.ar      1 4S1         0.1809
      4 N04        30.4410    5.5940   -7.8700 N.ar      1 4S1        -0.2630
      5 C05        31.0480    6.1970   -8.9510 C.ar      1 4S1         0.0211
      6 C06        30.8160    7.5820   -9.2960 C.ar      1 4S1         0.0835
      7 N07        29.6700    9.6470   -8.4930 N.pl3     1 4S1        -0.2919
      8 N08        29.0090    5.7600   -5.9890 N.pl3     1 4S1        -0.2888
      9 C09        31.5340    8.2510  -10.4030 C.2       1 4S1         0.1121
     10 C10        28.8730   10.5060   -7.5910 C.3       1 4S1         0.0711
     11 C11        29.6580   10.9050   -6.3050 C.3       1 4S1         0.1048
     12 C12        30.4140   12.2200   -6.7180 C.3       1 4S1         0.0883
     13 C13        29.5890   12.8820   -7.8680 C.3       1 4S1         0.0129
     14 C14        28.4690   11.8580   -8.2210 C.3       1 4S1        -0.0193
     15 O15        28.7590   11.1320   -5.1950 O.3       1 4S1        -0.3869
     16 O16        30.7280   13.1220   -5.6730 O.3       1 4S1        -0.3888
     17 C17        30.4830   13.1970   -9.1190 C.3       1 4S1         0.0495
     18 O18        29.7310   13.9110  -10.0950 O.3       1 4S1        -0.3946
     19 C19        28.1300    6.4270   -4.9900 C.3       1 4S1         0.0317
     20 C20        27.4470    5.4410   -4.0280 C.3       1 4S1        -0.0350
     21 C21        26.4460    6.1490   -3.1080 C.3       1 4S1        -0.0634
     22 S22        32.8040    7.3900  -11.2790 S.3       1 4S1        -0.0023
     23 C23        33.1780    8.8510  -12.1450 C.ar      1 4S1         0.0527
     24 C24        32.3400    9.9150  -11.7180 C.ar      1 4S1         0.0283
     25 N25        31.4520    9.5650  -10.7110 N.2       1 4S1        -0.3047
     26 C26        34.1500    9.0430  -13.1350 C.ar      1 4S1        -0.0489
     27 C27        34.3100   10.3160  -13.7640 C.ar      1 4S1        -0.0710
     28 C28        33.4650   11.4070  -13.3820 C.ar      1 4S1        -0.0715
     29 C29        32.4980   11.2070  -12.3430 C.ar      1 4S1        -0.0562
     30 H1         31.7235    5.6118   -9.5644 H         1 4S1         0.0914
     31 H2         30.0415   10.1087   -9.3355 H         1 4S1         0.1887
     32 H3         29.1704    4.7511   -5.8589 H         1 4S1         0.1886
     33 H4         27.9665    9.9489   -7.3119 H         1 4S1         0.0592
     34 H5         30.3761   10.1183   -6.0303 H         1 4S1         0.0643
     35 H6         31.3806   11.9100   -7.1418 H         1 4S1         0.0623
     36 H7         29.1396   13.8204   -7.5111 H         1 4S1         0.0349
     37 H8         27.5067   12.1942   -7.8075 H         1 4S1         0.0293
     38 H9         28.3830   11.7547   -9.3127 H         1 4S1         0.0293
     39 H10        29.2546   11.4409   -4.4456 H         1 4S1         0.2100
     40 H11        31.2421   13.8412   -6.0208 H         1 4S1         0.2099
     41 H12        30.8417   12.2534   -9.5559 H         1 4S1         0.0561
     42 H13        31.3435   13.8067   -8.8062 H         1 4S1         0.0561
     43 H14        30.2830   14.0952  -10.8460 H         1 4S1         0.2094
     44 H15        27.3507    6.9861   -5.5285 H         1 4S1         0.0528
     45 H16        28.7403    7.1256   -4.3989 H         1 4S1         0.0528
     46 H17        28.2164    4.9544   -3.4105 H         1 4S1         0.0283
     47 H18        26.9138    4.6800   -4.6166 H         1 4S1         0.0283
     48 H19        25.9800    5.4122   -2.4371 H         1 4S1         0.0230
     49 H20        25.6685    6.6342   -3.7163 H         1 4S1         0.0230
     50 H21        26.9711    6.9086   -2.5103 H         1 4S1         0.0230
     51 H22        34.7879    8.2167  -13.4273 H         1 4S1         0.0567
     52 H23        35.0675   10.4551  -14.5268 H         1 4S1         0.0562
     53 H24        33.5553   12.3700  -13.8714 H         1 4S1         0.0557
     54 H25        31.8776   12.0361  -12.0225 H         1 4S1         0.0569
@<TRIPOS>BOND
     1    1    2 ar 
     2    1    6 ar 
     3    1    7 1  
     4    2    3 ar 
     5    3    4 ar 
     6    3    8 1  
     7    4    5 ar 
     8    5    6 ar 
     9    6    9 1  
    10    7   10 1  
    11    8   19 1  
    12    9   22 1  
    13    9   25 2  
    14   10   11 1  
    15   10   14 1  
    16   11   12 1  
    17   11   15 1  
    18   12   13 1  
    19   12   16 1  
    20   13   14 1  
    21   13   17 1  
    22   17   18 1  
    23   19   20 1  
    24   20   21 1  
    25   22   23 1  
    26   23   24 ar 
    27   23   26 ar 
    28   24   25 1  
    29   24   29 ar 
    30   26   27 ar 
    31   27   28 ar 
    32   28   29 ar 
    33    5   30 1  
    34    7   31 1  
    35    8   32 1  
    36   10   33 1  
    37   11   34 1  
    38   12   35 1  
    39   13   36 1  
    40   14   37 1  
    41   14   38 1  
    42   15   39 1  
    43   16   40 1  
    44   17   41 1  
    45   17   42 1  
    46   18   43 1  
    47   19   44 1  
    48   19   45 1  
    49   20   46 1  
    50   20   47 1  
    51   21   48 1  
    52   21   49 1  
    53   21   50 1  
    54   26   51 1  
    55   27   52 1  
    56   28   53 1  
    57   29   54 1  
@<TRIPOS>SUBSTRUCTURE
     1 4S1         1

