### 
### Created by X-TOOL on Mon Sep 10 21:13:24 2018
### 

@<TRIPOS>MOLECULE
4ztm_ligand
   54    58     1     0     0
SMALL
GAST_HUCK


@<TRIPOS>ATOM
      1 C01        29.3500    7.7390   -7.1130 C.2       1 4S2         0.2746
      2 N02        28.6970    7.2840   -5.9920 N.pl3     1 4S2        -0.1996
      3 C03        28.7070    6.0430   -5.6240 C.cat     1 4S2         0.1986
      4 N04        29.4030    5.0770   -6.3980 N.am      1 4S2        -0.2539
      5 C05        30.1060    5.4050   -7.5570 C.2       1 4S2         0.2386
      6 C06        30.0660    6.8750   -7.9330 C.2       1 4S2         0.2241
      7 N07        29.1840    9.1250   -7.3020 N.pl3     1 4S2        -0.2280
      8 N08        27.9980    5.6470   -4.4980 N.pl3     1 4S2        -0.3193
      9 O09        30.6870    4.4890   -8.2030 O.2       1 4S2        -0.3759
     10 C10        30.7900    7.3540   -9.1320 C.2       1 4S2         0.1837
     11 C11        28.5500   10.2460   -6.5870 C.3       1 4S2         0.0920
     12 C12        28.6730   10.1800   -5.0540 C.3       1 4S2         0.1088
     13 C13        28.3630   11.6190   -4.5680 C.3       1 4S2         0.0886
     14 C14        28.6960   12.5010   -5.7690 C.3       1 4S2         0.0133
     15 C15        29.3010   11.5670   -6.8170 C.3       1 4S2        -0.0153
     16 O16        27.7590    9.2630   -4.4810 O.3       1 4S2        -0.3865
     17 O17        26.9960   11.8770   -4.1550 O.3       1 4S2        -0.3888
     18 C18        29.5030   13.7590   -5.4140 C.3       1 4S2         0.0495
     19 O19        29.1520   14.7890   -6.3360 O.3       1 4S2        -0.3946
     20 C20        27.9780    4.4410   -3.7090 C.3       1 4S2         0.0353
     21 C21        26.6920    4.0520   -2.9930 C.3       1 4S2        -0.0270
     22 C22        27.8380    4.6730   -2.2160 C.3       1 4S2        -0.0270
     23 S23        31.9060    6.3100   -9.9720 S.3       1 4S2         0.0270
     24 C24        32.4900    7.6690  -10.9170 C.ar      1 4S2         0.0839
     25 C25        31.7180    8.8210  -10.6090 C.ar      1 4S2         0.0884
     26 N26        30.7820    8.6280   -9.5890 N.2       1 4S2        -0.2301
     27 C27        33.5740    7.7470  -11.8240 C.ar      1 4S2        -0.0270
     28 C28        33.8940    9.0010  -12.4750 C.ar      1 4S2        -0.0509
     29 C29        33.1030   10.1380  -12.2250 C.ar      1 4S2        -0.0501
     30 C30        32.0270   10.0450  -11.2800 C.ar      1 4S2        -0.0269
     31 H1         28.1756    7.9621   -5.4183 H         1 4S2         0.2412
     32 H2         29.3885    4.1226   -6.0998 H         1 4S2         0.1813
     33 H3         29.6257    9.4400   -8.1775 H         1 4S2         0.2244
     34 H4         27.3484    6.3681   -4.1533 H         1 4S2         0.1794
     35 H5         27.4976   10.3134   -6.8999 H         1 4S2         0.0642
     36 H6         29.6955    9.8903   -4.7703 H         1 4S2         0.0647
     37 H7         29.0238   11.8589   -3.7219 H         1 4S2         0.0623
     38 H8         27.7456   12.8712   -6.1810 H         1 4S2         0.0350
     39 H9         29.1253   11.9486   -7.8336 H         1 4S2         0.0297
     40 H10        30.3815   11.4397   -6.6548 H         1 4S2         0.0297
     41 H11        26.8749    9.4955   -4.7395 H         1 4S2         0.2100
     42 H12        26.7837   11.3304   -3.4076 H         1 4S2         0.2099
     43 H13        30.5793   13.5441   -5.4880 H         1 4S2         0.0561
     44 H14        29.2625   14.0788   -4.3894 H         1 4S2         0.0561
     45 H15        29.6425   15.5764   -6.1313 H         1 4S2         0.2094
     46 H16        28.6473    3.6744   -4.1266 H         1 4S2         0.0567
     47 H17        26.4414    2.9906   -2.8497 H         1 4S2         0.0290
     48 H18        25.7700    4.6262   -3.1668 H         1 4S2         0.0290
     49 H19        27.7456    5.6972   -1.8254 H         1 4S2         0.0290
     50 H20        28.4170    4.0615   -1.5083 H         1 4S2         0.0290
     51 H21        34.1675    6.8642  -12.0324 H         1 4S2         0.0623
     52 H22        34.7387    9.0633  -13.1515 H         1 4S2         0.0731
     53 H23        33.3038   11.0710  -12.7391 H         1 4S2         0.0621
     54 H24        31.4325   10.9266  -11.0693 H         1 4S2         0.0714
@<TRIPOS>BOND
     1    1    2 1  
     2    1    6 2  
     3    1    7 1  
     4    2    3 ar 
     5    3    4 ar 
     6    3    8 ar 
     7    4    5 am 
     8    5    6 1  
     9    5    9 2  
    10    6   10 1  
    11    7   11 1  
    12    8   20 1  
    13   10   23 1  
    14   10   26 2  
    15   11   12 1  
    16   11   15 1  
    17   12   13 1  
    18   12   16 1  
    19   13   14 1  
    20   13   17 1  
    21   14   15 1  
    22   14   18 1  
    23   18   19 1  
    24   20   21 1  
    25   20   22 1  
    26   21   22 1  
    27   23   24 1  
    28   24   25 ar 
    29   24   27 ar 
    30   25   26 1  
    31   25   30 ar 
    32   27   28 ar 
    33   28   29 ar 
    34   29   30 ar 
    35    2   31 1  
    36    4   32 1  
    37    7   33 1  
    38    8   34 1  
    39   11   35 1  
    40   12   36 1  
    41   13   37 1  
    42   14   38 1  
    43   15   39 1  
    44   15   40 1  
    45   16   41 1  
    46   17   42 1  
    47   18   43 1  
    48   18   44 1  
    49   19   45 1  
    50   20   46 1  
    51   21   47 1  
    52   21   48 1  
    53   22   49 1  
    54   22   50 1  
    55   27   51 1  
    56   28   52 1  
    57   29   53 1  
    58   30   54 1  
@<TRIPOS>SUBSTRUCTURE
     1 4S2         1

