### 
### Created by X-TOOL on Mon Sep 10 21:13:24 2018
### 

@<TRIPOS>MOLECULE
4ztn_ligand
   55    59     1     0     0
SMALL
GAST_HUCK


@<TRIPOS>ATOM
      1 C01        29.6130    7.9170   -6.5220 C.2       1 4S3         0.1428
      2 N02        28.8570    7.4810   -5.4810 N.2       1 4S3        -0.2699
      3 C03        28.6570    6.1740   -5.2590 C.cat     1 4S3         0.3078
      4 N04        29.2200    5.2430   -6.0920 N.am      1 4S3        -0.2064
      5 C05        30.0090    5.5390   -7.1930 C.2       1 4S3         0.2288
      6 C06        30.2260    6.9480   -7.4350 C.3       1 4S3         0.2015
      7 N07        29.7890    9.2690   -6.6720 N.pl3     1 4S3        -0.2766
      8 N08        27.8500    5.7790   -4.1380 N.pl3     1 4S3        -0.1867
      9 O09        30.4660    4.6150   -7.8720 O.2       1 4S3        -0.3869
     10 C10        31.0470    7.3790   -8.5690 C.2       1 4S3         0.1416
     11 C11        29.0690   10.3990   -6.0870 C.3       1 4S3         0.0860
     12 C12        29.0880   10.3430   -4.5140 C.3       1 4S3        -0.0090
     13 N13        28.5500   11.5590   -3.9090 N.4       1 4S3         0.2287
     14 C14        28.9970   12.8600   -4.4260 C.3       1 4S3        -0.0335
     15 C15        29.0690   12.9210   -5.9260 C.3       1 4S3        -0.0102
     16 C16        29.7450   11.6960   -6.5300 C.3       1 4S3        -0.0190
     17 C17        26.6650    6.5880   -3.8020 C.3       1 4S3         0.1712
     18 C18        26.2100    6.2980   -2.3920 C.3       1 4S3         0.1101
     19 O19        25.9830    4.9060   -2.1860 O.3       1 4S3        -0.3664
     20 C20        27.1870    4.1860   -2.4070 C.3       1 4S3         0.1101
     21 C21        27.6740    4.3510   -3.8210 C.3       1 4S3         0.1712
     22 S22        32.0930    6.3400   -9.5140 S.3       1 4S3         0.0137
     23 C23        32.5510    7.7240  -10.4640 C.ar      1 4S3         0.0536
     24 C24        31.8580    8.8510  -10.0140 C.ar      1 4S3         0.0241
     25 N25        31.0180    8.6280   -8.9290 N.2       1 4S3        -0.3013
     26 C26        33.4550    7.8130  -11.5170 C.ar      1 4S3        -0.0500
     27 C27        33.6570    9.0440  -12.1290 C.ar      1 4S3        -0.0719
     28 C28        32.9770   10.1680  -11.6890 C.ar      1 4S3        -0.0726
     29 C29        32.0880   10.0850  -10.6260 C.ar      1 4S3        -0.0582
     30 H1         29.0491    4.2784   -5.8909 H         1 4S3         0.1936
     31 H2         29.3319    6.9831   -8.0748 H         1 4S3         0.1093
     32 H3         30.5586    9.5328   -7.3037 H         1 4S3         0.1939
     33 H4         28.0266   10.3836   -6.4379 H         1 4S3         0.0623
     34 H5         30.1268   10.2103   -4.1773 H         1 4S3         0.0838
     35 H6         28.4830    9.4860   -4.1833 H         1 4S3         0.0838
     36 H7         28.7849   11.5322   -2.9291 H         1 4S3         0.2014
     37 H8         27.5482   11.5255   -4.0154 H         1 4S3         0.2014
     38 H9         29.9983   13.0692   -4.0214 H         1 4S3         0.0814
     39 H10        28.2933   13.6316   -4.0804 H         1 4S3         0.0814
     40 H11        29.6387   13.8164   -6.2154 H         1 4S3         0.0318
     41 H12        28.0465   12.9920   -6.3253 H         1 4S3         0.0318
     42 H13        29.6959   11.7667   -7.6266 H         1 4S3         0.0292
     43 H14        30.7974   11.6763   -6.2105 H         1 4S3         0.0292
     44 H15        25.8514    6.3466   -4.5018 H         1 4S3         0.1096
     45 H16        26.9185    7.6549   -3.8884 H         1 4S3         0.1096
     46 H17        25.2744    6.8437   -2.2002 H         1 4S3         0.0628
     47 H18        26.9847    6.6403   -1.6901 H         1 4S3         0.0628
     48 H19        27.0063    3.1184   -2.2131 H         1 4S3         0.0628
     49 H20        27.9585    4.5585   -1.7171 H         1 4S3         0.0628
     50 H21        28.6373    3.8324   -3.9358 H         1 4S3         0.1096
     51 H22        26.9377    3.9141   -4.5116 H         1 4S3         0.1096
     52 H23        33.9939    6.9353  -11.8552 H         1 4S3         0.0565
     53 H24        34.3519    9.1255  -12.9570 H         1 4S3         0.0554
     54 H25        33.1406   11.1209  -12.1792 H         1 4S3         0.0553
     55 H26        31.5755   10.9726  -10.2732 H         1 4S3         0.0561
@<TRIPOS>BOND
     1    1    2 2  
     2    1    6 1  
     3    1    7 1  
     4    2    3 ar 
     5    3    4 ar 
     6    3    8 ar 
     7    4    5 am 
     8    5    6 1  
     9    5    9 2  
    10    6   10 1  
    11    7   11 1  
    12    8   17 1  
    13    8   21 1  
    14   10   22 1  
    15   10   25 2  
    16   11   12 1  
    17   11   16 1  
    18   12   13 1  
    19   13   14 1  
    20   14   15 1  
    21   15   16 1  
    22   17   18 1  
    23   18   19 1  
    24   19   20 1  
    25   20   21 1  
    26   22   23 1  
    27   23   24 ar 
    28   23   26 ar 
    29   24   25 1  
    30   24   29 ar 
    31   26   27 ar 
    32   27   28 ar 
    33   28   29 ar 
    34    4   30 1  
    35    6   31 1  
    36    7   32 1  
    37   11   33 1  
    38   12   34 1  
    39   12   35 1  
    40   13   36 1  
    41   13   37 1  
    42   14   38 1  
    43   14   39 1  
    44   15   40 1  
    45   15   41 1  
    46   16   42 1  
    47   16   43 1  
    48   17   44 1  
    49   17   45 1  
    50   18   46 1  
    51   18   47 1  
    52   20   48 1  
    53   20   49 1  
    54   21   50 1  
    55   21   51 1  
    56   26   52 1  
    57   27   53 1  
    58   28   54 1  
    59   29   55 1  
@<TRIPOS>SUBSTRUCTURE
     1 4S3         1

