### 
### Created by X-TOOL on Mon Sep 10 21:13:24 2018
### 

@<TRIPOS>MOLECULE
4zud_ligand
   58    61     1     0     0
SMALL
GAST_HUCK


@<TRIPOS>ATOM
      1 C4        -38.4570   63.3650   29.0820 C.ar      1 OLM        -0.0588
      2 C3        -39.0900   64.3770   28.3620 C.ar      1 OLM        -0.0553
      3 O3        -46.8370   65.3030   26.1570 O.3       1 OLM        -0.4431
      4 C2        -40.4800   64.4120   28.2230 C.ar      1 OLM        -0.0084
      5 O2        -42.6610   63.0380   25.2580 O.co2     1 OLM        -0.5450
      6 C1        -40.9920   65.5010   27.4820 C.3       1 OLM         0.1088
      7 O1        -41.9440   64.9190   24.4600 O.co2     1 OLM        -0.5450
      8 C20       -42.7580   66.6540   31.8240 C.3       1 OLM        -0.0627
      9 C19       -42.3660   66.1020   30.4710 C.3       1 OLM        -0.0378
     10 C18       -43.2480   66.8470   29.4970 C.3       1 OLM         0.0338
     11 C15       -43.3980   66.0510   28.1730 C.2       1 OLM         0.1477
     12 N6        -44.6070   65.8230   27.6670 N.2       1 OLM        -0.3110
     13 C16       -44.4460   65.1360   26.5460 C.2       1 OLM         0.0299
     14 C22       -45.6370   64.6760   25.6680 C.3       1 OLM         0.0333
     15 C23       -45.4410   65.1380   24.2150 C.3       1 OLM        -0.0745
     16 C24       -45.8010   63.1380   25.7490 C.3       1 OLM        -0.0745
     17 C17       -43.1360   64.9400   26.3590 C.2       1 OLM         0.1691
     18 C21       -42.5710   64.2840   25.3370 C.2       1 OLM         0.1343
     19 N1        -42.4610   65.5010   27.3760 N.pl3     1 OLM        -0.1749
     20 C7        -41.2350   63.3860   28.8130 C.ar      1 OLM        -0.0553
     21 C6        -40.5980   62.3670   29.5340 C.ar      1 OLM        -0.0588
     22 C5        -39.2040   62.3440   29.6720 C.ar      1 OLM        -0.0207
     23 C8        -38.5690   61.3280   30.4050 C.ar      1 OLM        -0.0046
     24 C9        -38.9780   61.1340   31.7330 C.ar      1 OLM        -0.0510
     25 C10       -38.3950   60.1510   32.5300 C.ar      1 OLM        -0.0587
     26 C11       -37.3840   59.3490   32.0080 C.ar      1 OLM        -0.0579
     27 C12       -36.9590   59.5300   30.6910 C.ar      1 OLM        -0.0447
     28 C13       -37.5430   60.5100   29.8810 C.ar      1 OLM         0.0456
     29 C14       -37.0930   60.6460   28.6320 C.2       1 OLM         0.1847
     30 N5        -37.7520   60.3670   27.5210 N.pl3     1 OLM        -0.1514
     31 N4        -37.0020   60.6510   26.6350 N.2       1 OLM        -0.0641
     32 N3        -35.8720   61.1150   27.1220 N.2       1 OLM        -0.1389
     33 N2        -35.9080   61.1250   28.2970 N.2       1 OLM        -0.2082
     34 H1        -37.3779   63.3710   29.1844 H         1 OLM         0.0615
     35 H2        -38.4911   65.1535   27.9000 H         1 OLM         0.0563
     36 H3        -46.9819   65.0459   27.0600 H         1 OLM         0.1896
     37 H4        -40.5698   65.4607   26.4671 H         1 OLM         0.0818
     38 H5        -40.6784   66.4342   27.9728 H         1 OLM         0.0818
     39 H6        -42.1603   66.1643   32.6069 H         1 OLM         0.0232
     40 H7        -43.8259   66.4609   32.0034 H         1 OLM         0.0232
     41 H8        -42.5727   67.7381   31.8455 H         1 OLM         0.0232
     42 H9        -42.5568   65.0198   30.4210 H         1 OLM         0.0293
     43 H10       -41.3036   66.2970   30.2630 H         1 OLM         0.0293
     44 H11       -42.7987   67.8273   29.2800 H         1 OLM         0.0533
     45 H12       -44.2416   66.9905   29.9465 H         1 OLM         0.0533
     46 H13       -44.5301   64.6785   23.8039 H         1 OLM         0.0115
     47 H14       -45.3431   66.2333   24.1885 H         1 OLM         0.0115
     48 H15       -46.3095   64.8328   23.6128 H         1 OLM         0.0115
     49 H16       -44.8872   62.6517   25.3767 H         1 OLM         0.0115
     50 H17       -46.6582   62.8277   25.1335 H         1 OLM         0.0115
     51 H18       -45.9739   62.8422   26.7943 H         1 OLM         0.0115
     52 H19       -42.3141   63.3819   28.7106 H         1 OLM         0.0563
     53 H20       -41.1928   61.5849   29.9918 H         1 OLM         0.0615
     54 H21       -39.7610   61.7596   32.1461 H         1 OLM         0.0625
     55 H22       -38.7273   60.0113   33.5523 H         1 OLM         0.0645
     56 H23       -36.9267   58.5837   32.6246 H         1 OLM         0.0619
     57 H24       -36.1685   58.9050   30.2916 H         1 OLM         0.0660
     58 H25       -38.7056   59.9870   27.4369 H         1 OLM         0.2703
@<TRIPOS>BOND
     1    2    1 ar 
     2    1   22 ar 
     3    4    2 ar 
     4   14    3 1  
     5    6    4 1  
     6    4   20 ar 
     7   18    5 ar 
     8   19    6 1  
     9   18    7 ar 
    10    9    8 1  
    11   10    9 1  
    12   11   10 1  
    13   12   11 2  
    14   11   19 1  
    15   13   12 1  
    16   13   14 1  
    17   17   13 2  
    18   14   15 1  
    19   14   16 1  
    20   17   18 1  
    21   17   19 1  
    22   20   21 ar 
    23   21   22 ar 
    24   22   23 1  
    25   23   24 ar 
    26   23   28 ar 
    27   24   25 ar 
    28   25   26 ar 
    29   26   27 ar 
    30   27   28 ar 
    31   28   29 1  
    32   29   30 1  
    33   29   33 2  
    34   30   31 1  
    35   31   32 2  
    36   32   33 1  
    37    1   34 1  
    38    2   35 1  
    39    3   36 1  
    40    6   37 1  
    41    6   38 1  
    42    8   39 1  
    43    8   40 1  
    44    8   41 1  
    45    9   42 1  
    46    9   43 1  
    47   10   44 1  
    48   10   45 1  
    49   15   46 1  
    50   15   47 1  
    51   15   48 1  
    52   16   49 1  
    53   16   50 1  
    54   16   51 1  
    55   20   52 1  
    56   21   53 1  
    57   24   54 1  
    58   25   55 1  
    59   26   56 1  
    60   27   57 1  
    61   30   58 1  
@<TRIPOS>SUBSTRUCTURE
     1 OLM         1

