### 
### Created by X-TOOL on Mon Sep 10 21:13:20 2018
### 

@<TRIPOS>MOLECULE
4zum_ligand
   40    39     1     0     0
SMALL
GAST_HUCK


@<TRIPOS>ATOM
      1 C2        -10.9610    0.4090  -28.1140 C.3       1 FKS        -0.0305
      2 C3        -10.7140    1.3390  -26.9320 C.3       1 FKS         0.0275
      3 C4        -11.5800    2.5920  -27.0050 C.3       1 FKS        -0.0288
      4 C6        -12.0470    4.7400  -25.7450 C.3       1 FKS        -0.0337
      5 C7        -11.9790    5.5670  -27.0330 C.3       1 FKS        -0.0126
      6 C8        -12.6560    6.9110  -26.7830 C.3       1 FKS        -0.0481
      7 C9        -12.6940    7.7100  -28.0900 C.3       1 FKS        -0.0477
      8 C10       -12.9810    9.1800  -27.7890 C.3       1 FKS         0.0101
      9 C11       -13.4420   10.0240  -28.9940 C.3       1 FKS         0.2629
     10 C12       -13.6520   11.4700  -28.5940 C.3       1 FKS         0.4438
     11 F15       -14.4840   11.5860  -27.5830 F         1 FKS        -0.1654
     12 F16       -14.1470   12.1380  -29.6460 F         1 FKS        -0.1654
     13 F17       -12.5270   12.0470  -28.2620 F         1 FKS        -0.1654
     14 N5        -11.3340    3.4740  -25.8650 N.4       1 FKS         0.2271
     15 N1        -10.1590   -0.7930  -27.9400 N.4       1 FKS         0.2187
     16 O13       -12.4850    9.9720  -30.0320 O.3       1 FKS        -0.3581
     17 O14       -14.6780    9.5370  -29.5360 O.3       1 FKS        -0.3581
     18 H1        -10.6731    0.9136  -29.0481 H         1 FKS         0.0815
     19 H2        -12.0266    0.1396  -28.1562 H         1 FKS         0.0815
     20 H3         -9.6554    1.6378  -26.9295 H         1 FKS         0.0369
     21 H4        -10.9452    0.8005  -26.0011 H         1 FKS         0.0369
     22 H5        -12.6394    2.2960  -27.0071 H         1 FKS         0.0816
     23 H6        -11.3488    3.1339  -27.9339 H         1 FKS         0.0816
     24 H7        -13.1019    4.5318  -25.5130 H         1 FKS         0.0814
     25 H8        -11.5995    5.3223  -24.9261 H         1 FKS         0.0814
     26 H9        -12.4990    5.0349  -27.8432 H         1 FKS         0.0317
     27 H10       -10.9281    5.7280  -27.3153 H         1 FKS         0.0317
     28 H11       -12.0895    7.4725  -26.0255 H         1 FKS         0.0267
     29 H12       -13.6824    6.7443  -26.4244 H         1 FKS         0.0267
     30 H13       -13.4854    7.3091  -28.7404 H         1 FKS         0.0267
     31 H14       -11.7226    7.6243  -28.5989 H         1 FKS         0.0267
     32 H15       -12.0600    9.6311  -27.3913 H         1 FKS         0.0320
     33 H16       -13.7700    9.2220  -27.0237 H         1 FKS         0.0320
     34 H17       -10.3508    3.6958  -25.8776 H         1 FKS         0.2013
     35 H18       -11.5478    2.9419  -25.0360 H         1 FKS         0.2013
     36 H19       -10.3146   -1.4161  -28.7169 H         1 FKS         0.1994
     37 H20       -10.4237   -1.2524  -27.0827 H         1 FKS         0.1994
     38 H21        -9.1833   -0.5431  -27.9000 H         1 FKS         0.1994
     39 H22       -11.6501   10.2887  -29.7076 H         1 FKS         0.2130
     40 H23       -15.3478    9.5578  -28.8626 H         1 FKS         0.2130
@<TRIPOS>BOND
     1    2    1 1  
     2    1   15 1  
     3    3    2 1  
     4   14    3 1  
     5    4    5 1  
     6    4   14 1  
     7    5    6 1  
     8    6    7 1  
     9    7    8 1  
    10    8    9 1  
    11    9   10 1  
    12    9   16 1  
    13    9   17 1  
    14   10   11 1  
    15   10   12 1  
    16   10   13 1  
    17    1   18 1  
    18    1   19 1  
    19    2   20 1  
    20    2   21 1  
    21    3   22 1  
    22    3   23 1  
    23    4   24 1  
    24    4   25 1  
    25    5   26 1  
    26    5   27 1  
    27    6   28 1  
    28    6   29 1  
    29    7   30 1  
    30    7   31 1  
    31    8   32 1  
    32    8   33 1  
    33   14   34 1  
    34   14   35 1  
    35   15   36 1  
    36   15   37 1  
    37   15   38 1  
    38   16   39 1  
    39   17   40 1  
@<TRIPOS>SUBSTRUCTURE
     1 FKS         1

