### 
### Created by X-TOOL on Mon Sep 10 21:13:20 2018
### 

@<TRIPOS>MOLECULE
4zun_ligand
   33    32     1     0     0
SMALL
GAST_HUCK


@<TRIPOS>ATOM
      1 C2        -10.4520    0.8360  -28.1850 C.3       1 SS9        -0.0305
      2 C3        -10.4220    1.7670  -26.9840 C.3       1 SS9         0.0275
      3 C4        -11.3550    2.9580  -27.1930 C.3       1 SS9        -0.0288
      4 C6        -11.9280    5.1390  -26.0180 C.3       1 SS9        -0.0337
      5 C7        -11.7420    5.8950  -27.3380 C.3       1 SS9        -0.0126
      6 C8        -12.4210    7.2630  -27.2010 C.3       1 SS9        -0.0475
      7 C9        -12.1910    8.2180  -28.3750 C.3       1 SS9        -0.0441
      8 C10       -13.1730    9.3940  -28.2970 C.3       1 SS9        -0.0093
      9 N1         -9.6430   -0.3210  -27.8450 N.4       1 SS9         0.2187
     10 N5        -11.4250    3.7720  -25.9940 N.4       1 SS9         0.2271
     11 S11       -13.1460   10.4890  -29.7400 S.3       1 SS9        -0.1783
     12 H1        -10.0339    1.3433  -29.0669 H         1 SS9         0.0815
     13 H2        -11.4858    0.5252  -28.3965 H         1 SS9         0.0815
     14 H3         -9.3955    2.1350  -26.8393 H         1 SS9         0.0369
     15 H4        -10.7419    1.2117  -26.0900 H         1 SS9         0.0369
     16 H5        -12.3619    2.5891  -27.4381 H         1 SS9         0.0816
     17 H6        -10.9768    3.5714  -28.0241 H         1 SS9         0.0816
     18 H7        -13.0050    5.1062  -25.7967 H         1 SS9         0.0814
     19 H8        -11.4086    5.7036  -25.2296 H         1 SS9         0.0814
     20 H9        -12.2046    5.3295  -28.1603 H         1 SS9         0.0317
     21 H10       -10.6697    6.0295  -27.5431 H         1 SS9         0.0317
     22 H11       -12.0383    7.7445  -26.2891 H         1 SS9         0.0267
     23 H12       -13.5041    7.0984  -27.1018 H         1 SS9         0.0267
     24 H13       -12.3456    7.6768  -29.3201 H         1 SS9         0.0273
     25 H14       -11.1606    8.6011  -28.3361 H         1 SS9         0.0273
     26 H15       -12.9245    9.9913  -27.4073 H         1 SS9         0.0374
     27 H16       -14.1896    8.9869  -28.1931 H         1 SS9         0.0374
     28 H17        -9.6371   -0.9661  -28.6195 H         1 SS9         0.1994
     29 H18       -10.0304   -0.7749  -27.0326 H         1 SS9         0.1994
     30 H19        -8.7000   -0.0252  -27.6470 H         1 SS9         0.1994
     31 H20       -10.4855    3.8233  -25.6324 H         1 SS9         0.2013
     32 H21       -12.0081    3.2681  -25.3443 H         1 SS9         0.2013
     33 H22       -12.2237   10.8819  -29.8449 H         1 SS9         0.1016
@<TRIPOS>BOND
     1    2    1 1  
     2    1    9 1  
     3    3    2 1  
     4   10    3 1  
     5    4    5 1  
     6    4   10 1  
     7    5    6 1  
     8    6    7 1  
     9    7    8 1  
    10    8   11 1  
    11    1   12 1  
    12    1   13 1  
    13    2   14 1  
    14    2   15 1  
    15    3   16 1  
    16    3   17 1  
    17    4   18 1  
    18    4   19 1  
    19    5   20 1  
    20    5   21 1  
    21    6   22 1  
    22    6   23 1  
    23    7   24 1  
    24    7   25 1  
    25    8   26 1  
    26    8   27 1  
    27    9   28 1  
    28    9   29 1  
    29    9   30 1  
    30   10   31 1  
    31   10   32 1  
    32   11   33 1  
@<TRIPOS>SUBSTRUCTURE
     1 SS9         1

