### 
### Created by X-TOOL on Mon Sep 10 21:13:20 2018
### 

@<TRIPOS>MOLECULE
4zuo_ligand
   37    36     1     0     0
SMALL
GAST_HUCK


@<TRIPOS>ATOM
      1 C2         -9.5530    0.8950  -27.5740 C.3       1 XS6        -0.0305
      2 C3         -9.2880    2.2940  -28.1200 C.3       1 XS6         0.0275
      3 C4         -9.7470    3.3450  -27.1180 C.3       1 XS6        -0.0288
      4 C6        -11.9210    4.1580  -26.0970 C.3       1 XS6        -0.0337
      5 C7        -11.2610    5.5170  -26.1970 C.3       1 XS6        -0.0124
      6 C8        -12.2640    6.6670  -26.1660 C.3       1 XS6        -0.0462
      7 C9        -12.2560    7.3820  -27.5120 C.3       1 XS6        -0.0359
      8 C10       -13.0240    8.6850  -27.3790 C.3       1 XS6         0.0389
      9 C11       -12.8550    9.5770  -28.5880 C.2       1 XS6         0.1988
     10 N1         -9.4260   -0.1000  -28.6240 N.4       1 XS6         0.2187
     11 N5        -11.1290    3.1200  -26.7390 N.4       1 XS6         0.2271
     12 N13       -13.9780   10.1830  -28.9250 N.am      1 XS6        -0.1642
     13 O12       -11.7710    9.7200  -29.1780 O.2       1 XS6        -0.3970
     14 O14       -14.0390   11.0930  -29.9660 O.3       1 XS6        -0.2717
     15 H1        -10.5718    0.8558  -27.1612 H         1 XS6         0.0815
     16 H2         -8.8262    0.6746  -26.7783 H         1 XS6         0.0815
     17 H3         -9.8384    2.4263  -29.0632 H         1 XS6         0.0369
     18 H4         -8.2102    2.4140  -28.3044 H         1 XS6         0.0369
     19 H5         -9.6546    4.3425  -27.5725 H         1 XS6         0.0816
     20 H6         -9.1127    3.2906  -26.2209 H         1 XS6         0.0816
     21 H7        -12.9065    4.2049  -26.5834 H         1 XS6         0.0814
     22 H8        -12.0481    3.9020  -25.0348 H         1 XS6         0.0814
     23 H9        -10.6996    5.5661  -27.1417 H         1 XS6         0.0317
     24 H10       -10.5670    5.6335  -25.3515 H         1 XS6         0.0317
     25 H11       -11.9853    7.3758  -25.3723 H         1 XS6         0.0269
     26 H12       -13.2707    6.2708  -25.9669 H         1 XS6         0.0269
     27 H13       -12.7353    6.7463  -28.2711 H         1 XS6         0.0289
     28 H14       -11.2191    7.5932  -27.8122 H         1 XS6         0.0289
     29 H15       -12.6597    9.2211  -26.4903 H         1 XS6         0.0502
     30 H16       -14.0926    8.4548  -27.2560 H         1 XS6         0.0502
     31 H17        -9.6047   -1.0157  -28.2425 H         1 XS6         0.1994
     32 H18        -8.4927   -0.0706  -29.0037 H         1 XS6         0.1994
     33 H19       -10.0924    0.0955  -29.3546 H         1 XS6         0.1994
     34 H20       -11.1263    2.3337  -26.1083 H         1 XS6         0.2013
     35 H21       -11.6185    2.8710  -27.5842 H         1 XS6         0.2013
     36 H22       -14.8114    9.9781  -28.4118 H         1 XS6         0.2216
     37 H23       -14.9282   11.4166  -30.0506 H         1 XS6         0.2490
@<TRIPOS>BOND
     1    2    1 1  
     2    1   10 1  
     3    3    2 1  
     4   11    3 1  
     5    4    5 1  
     6    4   11 1  
     7    5    6 1  
     8    6    7 1  
     9    7    8 1  
    10    8    9 1  
    11    9   12 am 
    12    9   13 2  
    13   12   14 1  
    14    1   15 1  
    15    1   16 1  
    16    2   17 1  
    17    2   18 1  
    18    3   19 1  
    19    3   20 1  
    20    4   21 1  
    21    4   22 1  
    22    5   23 1  
    23    5   24 1  
    24    6   25 1  
    25    6   26 1  
    26    7   27 1  
    27    7   28 1  
    28    8   29 1  
    29    8   30 1  
    30   10   31 1  
    31   10   32 1  
    32   10   33 1  
    33   11   34 1  
    34   11   35 1  
    35   12   36 1  
    36   14   37 1  
@<TRIPOS>SUBSTRUCTURE
     1 XS6         1

