### 
### Created by X-TOOL on Mon Sep 10 21:13:20 2018
### 

@<TRIPOS>MOLECULE
4zup_ligand
   22    21     1     0     0
SMALL
GAST_HUCK


@<TRIPOS>ATOM
      1 O8          0.8130   23.5570   31.0290 O.3       1 5XA        -0.2717
      2 N7          1.4700   24.2680   30.0280 N.am      1 5XA        -0.1642
      3 C6          2.6970   24.5940   30.3360 C.2       1 5XA         0.1988
      4 O9          3.1750   24.2610   31.4250 O.2       1 5XA        -0.3970
      5 C5          3.4510   25.3190   29.2680 C.3       1 5XA         0.0391
      6 C4          3.1640   26.8000   29.1900 C.3       1 5XA        -0.0313
      7 C3          3.8350   27.3010   27.9140 C.3       1 5XA        -0.0106
      8 C2          3.8850   28.8110   27.8720 C.3       1 5XA        -0.0353
      9 N1          4.8090   29.1950   26.8220 N.4       1 5XA         0.2185
     10 H1          0.7770   24.0839   31.8186 H         1 5XA         0.2490
     11 H2          1.0429   24.5065   29.1558 H         1 5XA         0.2216
     12 H3          3.1920   24.8679   28.2988 H         1 5XA         0.0502
     13 H4          4.5265   25.1876   29.4579 H         1 5XA         0.0502
     14 H5          3.5818   27.3155   30.0673 H         1 5XA         0.0291
     15 H6          2.0791   26.9756   29.1437 H         1 5XA         0.0291
     16 H7          3.2670   26.9377   27.0449 H         1 5XA         0.0318
     17 H8          4.8615   26.9079   27.8716 H         1 5XA         0.0318
     18 H9          4.2348   29.2009   28.8393 H         1 5XA         0.0813
     19 H10         2.8842   29.2127   27.6550 H         1 5XA         0.0813
     20 H11         4.8617   30.2004   26.7719 H         1 5XA         0.1994
     21 H12         4.4849   28.8312   25.9396 H         1 5XA         0.1994
     22 H13         5.7226   28.8204   27.0248 H         1 5XA         0.1994
@<TRIPOS>BOND
     1    1    2 1  
     2    2    3 am 
     3    3    4 2  
     4    3    5 1  
     5    5    6 1  
     6    6    7 1  
     7    7    8 1  
     8    8    9 1  
     9    1   10 1  
    10    2   11 1  
    11    5   12 1  
    12    5   13 1  
    13    6   14 1  
    14    6   15 1  
    15    7   16 1  
    16    7   17 1  
    17    8   18 1  
    18    8   19 1  
    19    9   20 1  
    20    9   21 1  
    21    9   22 1  
@<TRIPOS>SUBSTRUCTURE
     1 5XA         1

