### 
### Created by X-TOOL on Mon Sep 10 21:13:20 2018
### 

@<TRIPOS>MOLECULE
4zuq_ligand
   25    24     1     0     0
SMALL
GAST_HUCK


@<TRIPOS>ATOM
      1 C2         -4.6910   -3.6030  -27.5520 C.3       1 6XA        -0.0354
      2 C3         -4.1170   -4.5830  -28.5660 C.3       1 6XA        -0.0125
      3 C4         -3.4470   -5.7720  -27.8860 C.3       1 6XA        -0.0462
      4 C5         -2.5900   -6.5600  -28.8830 C.3       1 6XA        -0.0359
      5 C6         -3.3450   -7.7530  -29.4320 C.3       1 6XA         0.0389
      6 C7         -2.5680   -8.6100  -30.4030 C.2       1 6XA         0.1988
      7 N1         -5.5990   -4.3190  -26.6820 N.4       1 6XA         0.2185
      8 N8         -1.3160   -8.9290  -30.1530 N.am      1 6XA        -0.1642
      9 O10        -3.0930   -9.0410  -31.4270 O.2       1 6XA        -0.3970
     10 O9         -0.6850   -9.7430  -31.0950 O.3       1 6XA        -0.2717
     11 H1         -5.2337   -2.8025  -28.0761 H         1 6XA         0.0813
     12 H2         -3.8759   -3.1649  -26.9573 H         1 6XA         0.0813
     13 H3         -3.3725   -4.0604  -29.1846 H         1 6XA         0.0317
     14 H4         -4.9321   -4.9516  -29.2062 H         1 6XA         0.0317
     15 H5         -4.2220   -6.4352  -27.4742 H         1 6XA         0.0269
     16 H6         -2.8060   -5.4063  -27.0703 H         1 6XA         0.0269
     17 H7         -1.6814   -6.9139  -28.3738 H         1 6XA         0.0289
     18 H8         -2.3095   -5.8987  -29.7161 H         1 6XA         0.0289
     19 H9         -4.2421   -7.3807  -29.9482 H         1 6XA         0.0502
     20 H10        -3.6459   -8.3858  -28.5840 H         1 6XA         0.0502
     21 H11        -5.9874   -3.6819  -26.0043 H         1 6XA         0.1994
     22 H12        -5.0989   -5.0529  -26.2052 H         1 6XA         0.1994
     23 H13        -6.3432   -4.7208  -27.2305 H         1 6XA         0.1994
     24 H14        -0.8428   -8.6060  -29.3334 H         1 6XA         0.2216
     25 H15        -0.6802   -9.3049  -31.9379 H         1 6XA         0.2490
@<TRIPOS>BOND
     1    1    2 1  
     2    1    7 1  
     3    2    3 1  
     4    3    4 1  
     5    4    5 1  
     6    5    6 1  
     7    6    8 am 
     8    6    9 2  
     9    8   10 1  
    10    1   11 1  
    11    1   12 1  
    12    2   13 1  
    13    2   14 1  
    14    3   15 1  
    15    3   16 1  
    16    4   17 1  
    17    4   18 1  
    18    5   19 1  
    19    5   20 1  
    20    7   21 1  
    21    7   22 1  
    22    7   23 1  
    23    8   24 1  
    24   10   25 1  
@<TRIPOS>SUBSTRUCTURE
     1 6XA         1

