### 
### Created by X-TOOL on Mon Sep 10 21:13:20 2018
### 

@<TRIPOS>MOLECULE
4zur_ligand
   28    27     1     0     0
SMALL
GAST_HUCK


@<TRIPOS>ATOM
      1 O10        -0.9390  -10.7290  -31.2320 O.3       1 7XA        -0.2717
      2 N9         -1.3070   -9.8640  -30.2300 N.am      1 7XA        -0.1642
      3 C8         -2.4420   -9.2660  -30.2040 C.2       1 7XA         0.1988
      4 O11        -3.2910   -9.4390  -31.0240 O.2       1 7XA        -0.3970
      5 C7         -2.6710   -8.4010  -28.9740 C.3       1 7XA         0.0389
      6 C6         -3.2030   -7.0330  -29.3100 C.3       1 7XA        -0.0361
      7 C5         -3.5550   -6.3070  -28.0210 C.3       1 7XA        -0.0508
      8 C4         -4.0160   -4.9030  -28.3490 C.3       1 7XA        -0.0481
      9 C3         -4.4780   -4.1530  -27.1090 C.3       1 7XA        -0.0126
     10 C2         -4.8910   -2.7420  -27.5020 C.3       1 7XA        -0.0354
     11 N1         -5.2300   -2.0000  -26.2960 N.4       1 7XA         0.2185
     12 H1         -0.0651  -11.0590  -31.0589 H         1 7XA         0.2490
     13 H2         -0.6605   -9.6925  -29.4866 H         1 7XA         0.2216
     14 H3         -1.7144   -8.2849  -28.4436 H         1 7XA         0.0502
     15 H4         -3.3946   -8.9076  -28.3185 H         1 7XA         0.0502
     16 H5         -4.1026   -7.1307  -29.9354 H         1 7XA         0.0289
     17 H6         -2.4367   -6.4635  -29.8563 H         1 7XA         0.0289
     18 H7         -2.6686   -6.2605  -27.3713 H         1 7XA         0.0267
     19 H8         -4.3613   -6.8471  -27.5032 H         1 7XA         0.0267
     20 H9         -4.8519   -4.9606  -29.0616 H         1 7XA         0.0267
     21 H10        -3.1810   -4.3525  -28.8069 H         1 7XA         0.0267
     22 H11        -3.6557   -4.1059  -26.3799 H         1 7XA         0.0317
     23 H12        -5.3358   -4.6760  -26.6611 H         1 7XA         0.0317
     24 H13        -5.7654   -2.7845  -28.1680 H         1 7XA         0.0813
     25 H14        -4.0587   -2.2440  -28.0209 H         1 7XA         0.0813
     26 H15        -5.5054   -1.0627  -26.5445 H         1 7XA         0.1994
     27 H16        -4.4277   -1.9641  -25.6869 H         1 7XA         0.1994
     28 H17        -5.9916   -2.4594  -25.8218 H         1 7XA         0.1994
@<TRIPOS>BOND
     1    1    2 1  
     2    2    3 am 
     3    3    4 2  
     4    3    5 1  
     5    5    6 1  
     6    6    7 1  
     7    7    8 1  
     8    8    9 1  
     9    9   10 1  
    10   10   11 1  
    11    1   12 1  
    12    2   13 1  
    13    5   14 1  
    14    5   15 1  
    15    6   16 1  
    16    6   17 1  
    17    7   18 1  
    18    7   19 1  
    19    8   20 1  
    20    8   21 1  
    21    9   22 1  
    22    9   23 1  
    23   10   24 1  
    24   10   25 1  
    25   11   26 1  
    26   11   27 1  
    27   11   28 1  
@<TRIPOS>SUBSTRUCTURE
     1 7XA         1

