### 
### Created by X-TOOL on Mon Sep 10 21:13:27 2018
### 

@<TRIPOS>MOLECULE
4zv1_ligand
   27    26     1     0     0
SMALL
GAST_HUCK


@<TRIPOS>ATOM
      1 N           3.1820  -24.2100   12.9190 N.4       1 ARG         0.2327
      2 CA          3.6680  -23.5400   11.6610 C.3       1 ARG         0.0284
      3 C           4.9610  -22.8600   11.9240 C.2       1 ARG         0.0844
      4 O           5.6710  -22.4530   10.9280 O.co2     1 ARG        -0.5643
      5 CB          2.7110  -22.5140   11.1350 C.3       1 ARG         0.0055
      6 CG          2.3190  -21.4590   12.1860 C.3       1 ARG        -0.0131
      7 CD          1.5890  -20.2800   11.5690 C.3       1 ARG         0.0628
      8 NE          0.9190  -19.4620   12.5650 N.pl3     1 ARG        -0.2723
      9 CZ          0.1810  -18.3940   12.3150 C.cat     1 ARG         0.2882
     10 NH1        -0.4120  -17.7520   13.3000 N.pl3     1 ARG        -0.2849
     11 NH2        -0.0200  -18.0580   11.0640 N.pl3     1 ARG        -0.2849
     12 OXT         5.3750  -22.7000   13.0930 O.co2     1 ARG        -0.5643
     13 H1          2.3041  -24.6706   12.7367 H         1 ARG         0.2010
     14 H2          3.0548  -23.5179   13.6407 H         1 ARG         0.2010
     15 H3          3.8617  -24.8901   13.2216 H         1 ARG         0.2010
     16 H4          3.8127  -24.3131   10.8921 H         1 ARG         0.1024
     17 H5          1.7987  -23.0270   10.7968 H         1 ARG         0.0340
     18 H6          3.1808  -22.0013   10.2827 H         1 ARG         0.0340
     19 H7          3.2320  -21.0924   12.6779 H         1 ARG         0.0302
     20 H8          1.6636  -21.9298   12.9335 H         1 ARG         0.0302
     21 H9          0.8381  -20.6605   10.8609 H         1 ARG         0.0689
     22 H10         2.3174  -19.6557   11.0308 H         1 ARG         0.0689
     23 H11         1.0284  -19.7379   13.5513 H         1 ARG         0.2642
     24 H12        -0.9861  -16.9203   13.1008 H         1 ARG         0.2615
     25 H13        -0.3017  -18.0815   14.2696 H         1 ARG         0.2615
     26 H14         0.4545  -18.5742   10.3095 H         1 ARG         0.2615
     27 H15        -0.6524  -17.2778   10.8355 H         1 ARG         0.2615
@<TRIPOS>BOND
     1    1    2 1  
     2    2    3 1  
     3    2    5 1  
     4    3    4 ar 
     5    3   12 ar 
     6    5    6 1  
     7    6    7 1  
     8    7    8 1  
     9    8    9 ar 
    10    9   10 ar 
    11    9   11 ar 
    12    1   13 1  
    13    1   14 1  
    14    1   15 1  
    15    2   16 1  
    16    5   17 1  
    17    5   18 1  
    18    6   19 1  
    19    6   20 1  
    20    7   21 1  
    21    7   22 1  
    22    8   23 1  
    23   10   24 1  
    24   10   25 1  
    25   11   26 1  
    26   11   27 1  
@<TRIPOS>SUBSTRUCTURE
     1 ARG         1

