### 
### Created by X-TOOL on Mon Sep 10 21:13:27 2018
### 

@<TRIPOS>MOLECULE
4zv2_ligand
   20    19     1     0     0
SMALL
GAST_HUCK


@<TRIPOS>ATOM
      1 N           3.9070    5.6170   13.3180 N.4       1 GLN         0.2328
      2 CA          4.4940    6.2200   12.0660 C.3       1 GLN         0.0304
      3 C           5.8230    6.9410   12.3970 C.2       1 GLN         0.0846
      4 O           6.4440    7.2670   11.3920 O.co2     1 GLN        -0.5643
      5 CB          3.4320    7.1190   11.4020 C.3       1 GLN         0.0192
      6 CG          3.2020    8.4370   12.1510 C.3       1 GLN         0.0437
      7 CD          2.3180    9.4100   11.4520 C.2       1 GLN         0.1738
      8 OE1         2.2500    9.3850   10.2290 O.2       1 GLN        -0.3973
      9 NE2         1.7370   10.3430   12.2020 N.am      1 GLN        -0.3009
     10 OXT         6.0760    7.1790   13.5790 O.co2     1 GLN        -0.5643
     11 H1          3.0426    5.1501   13.0926 H         1 GLN         0.2010
     12 H2          3.7294    6.3462   13.9909 H         1 GLN         0.2010
     13 H3          4.5567    4.9517   13.7071 H         1 GLN         0.2010
     14 H4          4.7277    5.4064   11.3636 H         1 GLN         0.1026
     15 H5          2.4809    6.5676   11.3649 H         1 GLN         0.0363
     16 H6          3.7613    7.3515   10.3785 H         1 GLN         0.0363
     17 H7          4.1798    8.9157   12.3082 H         1 GLN         0.0505
     18 H8          2.7481    8.2017   13.1250 H         1 GLN         0.0505
     19 H9          1.1340   11.0199   11.7799 H         1 GLN         0.1814
     20 H10         1.9033   10.3672   13.1878 H         1 GLN         0.1814
@<TRIPOS>BOND
     1    1    2 1  
     2    2    3 1  
     3    2    5 1  
     4    3    4 ar 
     5    3   10 ar 
     6    5    6 1  
     7    6    7 1  
     8    7    8 2  
     9    7    9 am 
    10    1   11 1  
    11    1   12 1  
    12    1   13 1  
    13    2   14 1  
    14    5   15 1  
    15    5   16 1  
    16    6   17 1  
    17    6   18 1  
    18    9   19 1  
    19    9   20 1  
@<TRIPOS>SUBSTRUCTURE
     1 GLN         1

