### 
### Created by X-TOOL on Mon Sep 10 21:13:25 2018
### 

@<TRIPOS>MOLECULE
4zvi_ligand
   33    34     1     0     0
SMALL
GAST_HUCK


@<TRIPOS>ATOM
      1 C2        -13.3290   17.8000   21.6540 C.2       1 4S4         0.2494
      2 C4        -12.4110   20.0350   22.2190 C.ar      1 4S4         0.0712
      3 C5        -12.7270   20.1500   23.5820 C.ar      1 4S4        -0.0350
      4 C6        -12.1320   21.1290   24.3600 C.ar      1 4S4        -0.0554
      5 C7        -11.2210   22.0350   23.7890 C.ar      1 4S4         0.0339
      6 C8        -10.9190   21.9320   22.4230 C.ar      1 4S4        -0.0554
      7 C17       -13.9540   16.9740   20.6100 C.2       1 4S4         0.1359
      8 C18       -13.8510   17.1250   19.2450 C.2       1 4S4        -0.0474
      9 C19       -14.6200   16.1280   18.6440 C.2       1 4S4         0.0112
     10 C21       -15.1940   15.3890   19.6370 C.2       1 4S4         0.1082
     11 O1        -13.1540   17.2970   22.7490 O.2       1 4S4        -0.3773
     12 N3        -12.9940   19.0890   21.3630 N.am      1 4S4        -0.2302
     13 C9        -11.5150   20.9510   21.6530 C.ar      1 4S4        -0.0350
     14 C10       -10.5900   23.0820   24.6190 C.2       1 4S4         0.1949
     15 O11       -10.1510   22.7860   25.7110 O.2       1 4S4        -0.3919
     16 N12       -10.5040   24.3570   24.1750 N.am      1 4S4        -0.2757
     17 C13        -9.8860   25.4120   24.9980 C.3       1 4S4         0.0825
     18 C14        -9.5830   26.6400   24.1730 C.2       1 4S4         0.0569
     19 O15        -8.9150   27.5270   24.6500 O.co2     1 4S4        -0.5669
     20 O16       -10.0470   26.7590   22.9170 O.co2     1 4S4        -0.5669
     21 BR1       -14.7760   15.9330   16.7680 Br        1 4S4        -0.0767
     22 BR2       -16.3600   13.8970   19.4830 Br        1 4S4        -0.0190
     23 N23       -14.7890   15.9020   20.8260 N.pl3     1 4S4        -0.2693
     24 H1        -13.4415   19.4679   24.0284 H         1 4S4         0.0517
     25 H2        -12.3700   21.1972   25.4154 H         1 4S4         0.0630
     26 H3        -10.2170   22.6230   21.9705 H         1 4S4         0.0630
     27 H4        -13.2718   17.8876   18.7265 H         1 4S4         0.0405
     28 H5        -13.1863   19.3958   20.4308 H         1 4S4         0.2272
     29 H6        -11.2856   20.8896   20.5953 H         1 4S4         0.0517
     30 H7        -10.8663   24.5879   23.2720 H         1 4S4         0.1861
     31 H8         -8.9491   25.0288   25.4286 H         1 4S4         0.0688
     32 H9        -10.5771   25.6859   25.8087 H         1 4S4         0.0688
     33 H10       -15.0651   15.5430   21.7511 H         1 4S4         0.2375
@<TRIPOS>BOND
     1    1    7 1  
     2    1   11 2  
     3   12    1 am 
     4    2    3 ar 
     5    2   12 1  
     6    2   13 ar 
     7    3    4 ar 
     8    4    5 ar 
     9    5    6 ar 
    10    5   14 1  
    11    6   13 ar 
    12    7    8 2  
    13    7   23 1  
    14    8    9 1  
    15    9   10 2  
    16    9   21 1  
    17   10   22 1  
    18   10   23 1  
    19   14   15 2  
    20   14   16 am 
    21   16   17 1  
    22   17   18 1  
    23   18   19 ar 
    24   18   20 ar 
    25    3   24 1  
    26    4   25 1  
    27    6   26 1  
    28    8   27 1  
    29   12   28 1  
    30   13   29 1  
    31   16   30 1  
    32   17   31 1  
    33   17   32 1  
    34   23   33 1  
@<TRIPOS>SUBSTRUCTURE
     1 4S4         1

