### 
### Created by X-TOOL on Mon Sep 10 21:13:26 2018
### 

@<TRIPOS>MOLECULE
4zw3_ligand
   37    37     1     0     0
SMALL
GAST_HUCK


@<TRIPOS>ATOM
      1 C4         88.8140  120.2540   13.6180 C.ar      1 4S9         0.0038
      2 C5         89.4500  119.9130   12.3010 C.3       1 4S9         0.1690
      3 C6         91.5860  119.7660   11.3440 C.2       1 4S9         0.3242
      4 C11        88.6490  120.5310   11.1850 C.2       1 4S9         0.2367
      5 C7         91.8360  118.2460    9.4270 C.3       1 4S9         0.0905
      6 C8         91.0110  117.1290    8.8170 C.3       1 4S9        -0.0320
      7 C9         92.0000  119.3150    8.3620 C.3       1 4S9        -0.0320
      8 C10        93.2060  117.7150    9.8200 C.3       1 4S9        -0.0320
      9 C12        88.7640  119.2450   14.5640 C.ar      1 4S9        -0.0529
     10 C13        88.1730  119.4960   15.7920 C.ar      1 4S9        -0.0585
     11 N1         90.7930  120.3270   12.2610 N.am      1 4S9        -0.2301
     12 N2         88.9850  121.7020   10.6440 N.am      1 4S9        -0.1606
     13 C3         88.2730  121.5150   13.8560 C.ar      1 4S9        -0.0529
     14 BR1        86.8320  121.0440   17.7300 Br        1 4S9        -0.0559
     15 C1         87.6390  120.7410   16.0290 C.ar      1 4S9         0.0059
     16 C2         87.6770  121.7590   15.0860 C.ar      1 4S9        -0.0585
     17 O1         91.1200  118.6780   10.5710 O.3       1 4S9        -0.2579
     18 O2         92.6820  120.2590   11.1770 O.2       1 4S9        -0.3773
     19 O3         87.6740  119.9470   10.7480 O.2       1 4S9        -0.3913
     20 O4         88.1070  122.1510    9.5790 O.3       1 4S9        -0.2715
     21 H1         89.4284  118.8201   12.1782 H         1 4S9         0.0965
     22 H2         91.5175  116.7481    7.9179 H         1 4S9         0.0260
     23 H3         90.0178  117.5143    8.5429 H         1 4S9         0.0260
     24 H4         90.8994  116.3144    9.5477 H         1 4S9         0.0260
     25 H5         92.5954  120.1469    8.7662 H         1 4S9         0.0260
     26 H6         91.0097  119.6861    8.0593 H         1 4S9         0.0260
     27 H7         92.5138  118.8868    7.4887 H         1 4S9         0.0260
     28 H8         93.0911  116.9398   10.5919 H         1 4S9         0.0260
     29 H9         93.8188  118.5384   10.2156 H         1 4S9         0.0260
     30 H10        93.6989  117.2827    8.9368 H         1 4S9         0.0260
     31 H11        89.1826  118.2690   14.3467 H         1 4S9         0.0569
     32 H12        88.1323  118.7246   16.5525 H         1 4S9         0.0627
     33 H13        91.1419  121.0163   12.8959 H         1 4S9         0.1925
     34 H14        89.7787  122.2291   10.9477 H         1 4S9         0.2219
     35 H15        88.3163  122.2887   13.0979 H         1 4S9         0.0569
     36 H16        87.2479  122.7297   15.3066 H         1 4S9         0.0627
     37 H17        88.4134  122.9875    9.2491 H         1 4S9         0.2490
@<TRIPOS>BOND
     1    2    1 1  
     2    1    9 ar 
     3    1   13 ar 
     4    2    4 1  
     5   11    2 1  
     6    3   11 am 
     7   17    3 1  
     8    3   18 2  
     9    4   12 am 
    10    4   19 2  
    11    5    6 1  
    12    5    7 1  
    13    5    8 1  
    14    5   17 1  
    15    9   10 ar 
    16   10   15 ar 
    17   12   20 1  
    18   13   16 ar 
    19   15   14 1  
    20   15   16 ar 
    21    2   21 1  
    22    6   22 1  
    23    6   23 1  
    24    6   24 1  
    25    7   25 1  
    26    7   26 1  
    27    7   27 1  
    28    8   28 1  
    29    8   29 1  
    30    8   30 1  
    31    9   31 1  
    32   10   32 1  
    33   11   33 1  
    34   12   34 1  
    35   13   35 1  
    36   16   36 1  
    37   20   37 1  
@<TRIPOS>SUBSTRUCTURE
     1 4S9         1

