### 
### Created by X-TOOL on Mon Sep 10 21:13:26 2018
### 

@<TRIPOS>MOLECULE
4zw5_ligand
   47    48     1     0     0
SMALL
GAST_HUCK


@<TRIPOS>ATOM
      1 C4         12.2060   12.5140   20.3920 C.ar      1 4SA        -0.0626
      2 C14        17.9780    8.2600    9.8360 C.3       1 4SA        -0.0320
      3 C5         13.2700   13.1160   19.7340 C.ar      1 4SA        -0.0622
      4 C6         13.5140   12.7870   18.4120 C.ar      1 4SA        -0.0556
      5 C11        14.2670   10.5090   12.3940 C.3       1 4SA         0.1681
      6 C7         13.0500   11.5450   16.3400 C.ar      1 4SA        -0.0239
      7 C8         13.2410   12.5590   15.4090 C.ar      1 4SA        -0.0596
      8 C9         13.6240   12.2330   14.1120 C.ar      1 4SA        -0.0544
      9 C10        13.8080   10.9000   13.7760 C.ar      1 4SA         0.0019
     10 C12        16.4990   10.3220   11.4870 C.2       1 4SA         0.3242
     11 C13        16.6730    8.9290    9.4390 C.3       1 4SA         0.0905
     12 N1         15.6100   10.9920   12.2520 N.am      1 4SA        -0.2303
     13 N2         13.8100   12.2350   10.7060 N.am      1 4SA        -0.1606
     14 C3         11.3990   11.5910   19.7380 C.ar      1 4SA        -0.0622
     15 C1         12.6880   11.8710   17.7560 C.ar      1 4SA        -0.0219
     16 C2         11.6420   11.2550   18.4110 C.ar      1 4SA        -0.0556
     17 O1         15.9620    9.3880   10.5780 O.3       1 4SA        -0.2579
     18 C15        15.7730    7.8920    8.8010 C.3       1 4SA        -0.0320
     19 C16        16.9160   10.0300    8.4220 C.3       1 4SA        -0.0320
     20 O2         17.5830   10.8500   11.2620 O.2       1 4SA        -0.3773
     21 C17        13.4430   11.0770   11.2670 C.2       1 4SA         0.2364
     22 O3         12.4830   10.4430   10.8380 O.2       1 4SA        -0.3913
     23 O4         13.0300   12.7790    9.5950 O.3       1 4SA        -0.2715
     24 C18        13.6310    9.8950   14.7190 C.ar      1 4SA        -0.0544
     25 C19        13.2450   10.2180   16.0120 C.ar      1 4SA        -0.0596
     26 H1         12.0027   12.7665   21.4264 H         1 4SA         0.0610
     27 H2         18.5035    7.9165    8.9328 H         1 4SA         0.0260
     28 H3         17.7655    7.3987   10.4864 H         1 4SA         0.0260
     29 H4         18.6099    8.9804   10.3761 H         1 4SA         0.0260
     30 H5         13.9001   13.8329   20.2479 H         1 4SA         0.0615
     31 H6         14.3462   13.2401   17.8855 H         1 4SA         0.0615
     32 H7         14.2513    9.4119   12.3159 H         1 4SA         0.0962
     33 H8         13.0928   13.5951   15.6911 H         1 4SA         0.0610
     34 H9         13.7768   13.0112   13.3730 H         1 4SA         0.0565
     35 H10        15.8897   11.8293   12.7219 H         1 4SA         0.1925
     36 H11        14.6130   12.7256   11.0445 H         1 4SA         0.2219
     37 H12        10.5731   11.1291   20.2669 H         1 4SA         0.0615
     38 H13        11.0230   10.5249   17.9022 H         1 4SA         0.0615
     39 H14        14.8227    8.3619    8.5077 H         1 4SA         0.0260
     40 H15        15.5757    7.0846    9.5215 H         1 4SA         0.0260
     41 H16        16.2666    7.4762    7.9103 H         1 4SA         0.0260
     42 H17        15.9577   10.4974    8.1517 H         1 4SA         0.0260
     43 H18        17.3817    9.6018    7.5222 H         1 4SA         0.0260
     44 H19        17.5845   10.7885    8.8554 H         1 4SA         0.0260
     45 H20        13.4160   13.5989    9.3101 H         1 4SA         0.2490
     46 H21        13.7944    8.8591   14.4447 H         1 4SA         0.0565
     47 H22        13.0988    9.4406   16.7532 H         1 4SA         0.0610
@<TRIPOS>BOND
     1    3    1 ar 
     2    1   14 ar 
     3   11    2 1  
     4    4    3 ar 
     5   15    4 ar 
     6    5    9 1  
     7   12    5 1  
     8    5   21 1  
     9    7    6 ar 
    10    6   15 1  
    11    6   25 ar 
    12    8    7 ar 
    13    9    8 ar 
    14    9   24 ar 
    15   10   12 am 
    16   17   10 1  
    17   10   20 2  
    18   11   17 1  
    19   11   18 1  
    20   11   19 1  
    21   21   13 am 
    22   13   23 1  
    23   14   16 ar 
    24   15   16 ar 
    25   21   22 2  
    26   24   25 ar 
    27    1   26 1  
    28    2   27 1  
    29    2   28 1  
    30    2   29 1  
    31    3   30 1  
    32    4   31 1  
    33    5   32 1  
    34    7   33 1  
    35    8   34 1  
    36   12   35 1  
    37   13   36 1  
    38   14   37 1  
    39   16   38 1  
    40   18   39 1  
    41   18   40 1  
    42   18   41 1  
    43   19   42 1  
    44   19   43 1  
    45   19   44 1  
    46   23   45 1  
    47   24   46 1  
    48   25   47 1  
@<TRIPOS>SUBSTRUCTURE
     1 4SA         1

