### 
### Created by X-TOOL on Mon Sep 10 21:13:27 2018
### 

@<TRIPOS>MOLECULE
4zw6_ligand
   47    48     1     0     0
SMALL
GAST_HUCK


@<TRIPOS>ATOM
      1 CAV        88.6700  120.1170  132.2390 C.ar      1 4SY        -0.0031
      2 CAK        88.3520  121.4200  132.6170 C.ar      1 4SY        -0.0600
      3 CAI        87.9110  121.6490  133.9150 C.ar      1 4SY        -0.0676
      4 CAJ        88.5840  119.0560  133.1360 C.ar      1 4SY        -0.0600
      5 CAH        88.1490  119.2860  134.4330 C.ar      1 4SY        -0.0676
      6 CAT        87.8010  120.5840  134.8030 C.ar      1 4SY        -0.0412
      7 CAU        87.3570  120.8640  136.2430 C.2       1 4SY        -0.0031
      8 CAM        88.0070  121.7890  137.0650 C.2       1 4SY         0.0616
      9 CAL        86.3230  120.2790  136.9730 C.2       1 4SY         0.0048
     10 NAN        86.3360  120.8630  138.2360 N.2       1 4SY        -0.2144
     11 NAX        87.3650  121.7870  138.2900 N.pl3     1 4SY        -0.2070
     12 CAA        87.7420  122.6250  139.4320 C.3       1 4SY         0.0611
     13 CAD        90.7690  117.1390  127.2420 C.3       1 4SY        -0.0320
     14 CAY        91.6380  118.2670  127.8760 C.3       1 4SY         0.0905
     15 CAB        91.8370  119.3300  126.8520 C.3       1 4SY        -0.0320
     16 CAC        93.0270  117.6670  128.3150 C.3       1 4SY        -0.0320
     17 OAQ        90.8720  118.7480  129.0300 O.3       1 4SY        -0.2579
     18 CAR        91.4010  119.7290  129.9160 C.2       1 4SY         0.3241
     19 OAE        92.4800  120.2870  129.6820 O.2       1 4SY        -0.3773
     20 N          90.5200  120.3040  130.7560 N.am      1 4SY        -0.2310
     21 CA         89.1630  119.8260  130.8440 C.3       1 4SY         0.1659
     22 C          88.2980  120.4540  129.7830 C.2       1 4SY         0.2356
     23 O          87.2210  119.9450  129.4630 O.2       1 4SY        -0.3915
     24 NAO        88.7130  121.5640  129.1690 N.am      1 4SY        -0.1607
     25 OAG        87.8700  122.1490  128.1470 O.3       1 4SY        -0.2715
     26 H1         88.4467  122.2386  131.9128 H         1 4SY         0.0552
     27 H2         87.6540  122.6527  134.2338 H         1 4SY         0.0561
     28 H3         88.8557  118.0546  132.8224 H         1 4SY         0.0552
     29 H4         88.0810  118.4717  135.1453 H         1 4SY         0.0561
     30 H5         88.8647  122.4012  136.7902 H         1 4SY         0.1021
     31 H6         85.6357  119.5109  136.6215 H         1 4SY         0.0670
     32 H7         87.0655  122.4216  140.2752 H         1 4SY         0.0607
     33 H8         87.6670  123.6854  139.1493 H         1 4SY         0.0607
     34 H9         88.7764  122.3968  139.7286 H         1 4SY         0.0607
     35 H10        91.2864  116.7280  126.3626 H         1 4SY         0.0260
     36 H11        89.7973  117.5533  126.9352 H         1 4SY         0.0260
     37 H12        90.6101  116.3396  127.9807 H         1 4SY         0.0260
     38 H13        92.4490  120.1390  127.2775 H         1 4SY         0.0260
     39 H14        90.8599  119.7318  126.5458 H         1 4SY         0.0260
     40 H15        92.3492  118.9045  125.9764 H         1 4SY         0.0260
     41 H16        92.8658  116.8840  129.0706 H         1 4SY         0.0260
     42 H17        93.6528  118.4648  128.7415 H         1 4SY         0.0260
     43 H18        93.5322  117.2332  127.4395 H         1 4SY         0.0260
     44 H19        90.8107  121.0724  131.3261 H         1 4SY         0.1924
     45 H20        89.1560  118.7372  130.6875 H         1 4SY         0.0952
     46 H21        89.5884  121.9833  129.4098 H         1 4SY         0.2219
     47 H22        88.2889  122.9279  127.8001 H         1 4SY         0.2490
@<TRIPOS>BOND
     1    1    2 ar 
     2    1    4 ar 
     3   21    1 1  
     4    2    3 ar 
     5    3    6 ar 
     6    4    5 ar 
     7    5    6 ar 
     8    6    7 1  
     9    7    8 2  
    10    7    9 1  
    11    8   11 1  
    12    9   10 2  
    13   10   11 1  
    14   11   12 1  
    15   14   13 1  
    16   14   15 1  
    17   14   16 1  
    18   17   14 1  
    19   18   17 1  
    20   18   19 2  
    21   20   18 am 
    22   20   21 1  
    23   21   22 1  
    24   22   23 2  
    25   22   24 am 
    26   24   25 1  
    27    2   26 1  
    28    3   27 1  
    29    4   28 1  
    30    5   29 1  
    31    8   30 1  
    32    9   31 1  
    33   12   32 1  
    34   12   33 1  
    35   12   34 1  
    36   13   35 1  
    37   13   36 1  
    38   13   37 1  
    39   15   38 1  
    40   15   39 1  
    41   15   40 1  
    42   16   41 1  
    43   16   42 1  
    44   16   43 1  
    45   20   44 1  
    46   21   45 1  
    47   24   46 1  
    48   25   47 1  
@<TRIPOS>SUBSTRUCTURE
     1 4SY         1

