### 
### Created by X-TOOL on Mon Sep 10 21:13:26 2018
### 

@<TRIPOS>MOLECULE
4zw7_ligand
   47    48     1     0     0
SMALL
GAST_HUCK


@<TRIPOS>ATOM
      1 CAA        93.2300  117.3970  128.0860 C.3       1 4SZ        -0.0320
      2 CBB        91.8680  117.9910  127.6660 C.3       1 4SZ         0.0905
      3 CAB        90.9830  116.8900  127.0680 C.3       1 4SZ        -0.0320
      4 CAC        92.0680  119.0920  126.6060 C.3       1 4SZ        -0.0320
      5 OAR        91.1560  118.4680  128.8310 O.3       1 4SZ        -0.2579
      6 CAS        91.5930  119.5410  129.5710 C.2       1 4SZ         0.3242
      7 OAD        92.7170  120.0160  129.4360 O.2       1 4SZ        -0.3773
      8 N          90.7640  120.0770  130.4850 N.am      1 4SZ        -0.2303
      9 CA         89.3930  119.5930  130.6970 C.3       1 4SZ         0.1679
     10 C          88.5050  120.1230  129.5720 C.2       1 4SZ         0.2364
     11 O          87.5290  119.4840  129.1960 O.2       1 4SZ        -0.3913
     12 NAP        88.9330  121.2780  129.0440 N.am      1 4SZ        -0.1606
     13 OAF        88.1740  121.9030  127.9860 O.3       1 4SZ        -0.2715
     14 CAY        88.9850  120.0190  131.9610 C.ar      1 4SZ         0.0014
     15 CAM        88.8280  119.0390  132.9310 C.ar      1 4SZ        -0.0550
     16 CAK        88.4570  119.3740  134.2240 C.ar      1 4SZ        -0.0606
     17 CAL        88.7970  121.3700  132.2850 C.ar      1 4SZ        -0.0550
     18 CAJ        88.4280  121.7140  133.5950 C.ar      1 4SZ        -0.0606
     19 CAW        88.2350  120.7060  134.5500 C.ar      1 4SZ        -0.0282
     20 CAX        87.9340  120.9820  135.8820 C.ar      1 4SZ        -0.0293
     21 CAN        88.8570  121.7850  136.5720 C.ar      1 4SZ        -0.0274
     22 CAU        88.6640  122.0750  137.9190 C.ar      1 4SZ         0.1638
     23 FAG        89.5630  122.8680  138.6270 F         1 4SZ        -0.1855
     24 CAZ        87.5570  121.5640  138.5740 C.ar      1 4SZ         0.1978
     25 FAI        87.3450  121.8550  139.8790 F         1 4SZ        -0.1851
     26 CAV        86.6500  120.7600  137.9000 C.ar      1 4SZ         0.1638
     27 FAH        85.6310  120.3040  138.5630 F         1 4SZ        -0.1855
     28 CAO        86.8340  120.4510  136.5500 C.ar      1 4SZ        -0.0274
     29 H1         93.7638  117.0372  127.1940 H         1 4SZ         0.0260
     30 H2         93.0664  116.5582  128.7786 H         1 4SZ         0.0260
     31 H3         93.8302  118.1724  128.5845 H         1 4SZ         0.0260
     32 H4         90.0147  117.3190  126.7708 H         1 4SZ         0.0260
     33 H5         90.8203  116.1023  127.8184 H         1 4SZ         0.0260
     34 H6         91.4793  116.4592  126.1859 H         1 4SZ         0.0260
     35 H7         92.7016  119.8897  127.0210 H         1 4SZ         0.0260
     36 H8         91.0908  119.5101  126.3226 H         1 4SZ         0.0260
     37 H9         92.5544  118.6621  125.7180 H         1 4SZ         0.0260
     38 H10        91.0950  120.8373  131.0440 H         1 4SZ         0.1925
     39 H11        89.3781  118.4935  130.6695 H         1 4SZ         0.0961
     40 H12        89.7726  121.7044  129.3804 H         1 4SZ         0.2219
     41 H13        88.6046  122.7074  127.7215 H         1 4SZ         0.2490
     42 H14        88.9974  117.9995  132.6746 H         1 4SZ         0.0564
     43 H15        88.3409  118.6017  134.9757 H         1 4SZ         0.0605
     44 H16        88.9348  122.1391  131.5336 H         1 4SZ         0.0564
     45 H17        88.2929  122.7546  133.8670 H         1 4SZ         0.0605
     46 H18        89.7228  122.1802  136.0532 H         1 4SZ         0.0558
     47 H19        86.1319  119.8084  136.0312 H         1 4SZ         0.0558
@<TRIPOS>BOND
     1    1    2 1  
     2    2    3 1  
     3    2    4 1  
     4    2    5 1  
     5    5    6 1  
     6    6    7 2  
     7    6    8 am 
     8    8    9 1  
     9    9   10 1  
    10    9   14 1  
    11   10   11 2  
    12   10   12 am 
    13   12   13 1  
    14   14   15 ar 
    15   14   17 ar 
    16   15   16 ar 
    17   16   19 ar 
    18   17   18 ar 
    19   18   19 ar 
    20   19   20 1  
    21   20   21 ar 
    22   20   28 ar 
    23   21   22 ar 
    24   22   23 1  
    25   22   24 ar 
    26   24   25 1  
    27   24   26 ar 
    28   26   27 1  
    29   26   28 ar 
    30    1   29 1  
    31    1   30 1  
    32    1   31 1  
    33    3   32 1  
    34    3   33 1  
    35    3   34 1  
    36    4   35 1  
    37    4   36 1  
    38    4   37 1  
    39    8   38 1  
    40    9   39 1  
    41   12   40 1  
    42   13   41 1  
    43   15   42 1  
    44   16   43 1  
    45   17   44 1  
    46   18   45 1  
    47   21   46 1  
    48   28   47 1  
@<TRIPOS>SUBSTRUCTURE
     1 4SZ         1

