### 
### Created by X-TOOL on Mon Sep 10 21:13:27 2018
### 

@<TRIPOS>MOLECULE
4zw8_ligand
   54    55     1     0     0
SMALL
GAST_HUCK


@<TRIPOS>ATOM
      1 CAA        93.5030  117.5330  127.7480 C.3       1 4T2        -0.0320
      2 CBC        92.0670  118.0620  127.6490 C.3       1 4T2         0.0905
      3 CAB        91.1900  116.9630  127.0450 C.3       1 4T2        -0.0320
      4 CAC        92.0210  119.2830  126.7270 C.3       1 4T2        -0.0320
      5 OAT        91.5450  118.3700  128.9590 O.3       1 4T2        -0.2579
      6 CAV        91.9340  119.5180  129.5990 C.2       1 4T2         0.3242
      7 OAE        93.0690  119.9720  129.4830 O.2       1 4T2        -0.3773
      8 N          91.0700  120.1390  130.4100 N.am      1 4T2        -0.2303
      9 CA         89.7040  119.6400  130.6110 C.3       1 4T2         0.1681
     10 C          88.7860  120.2400  129.5500 C.2       1 4T2         0.2364
     11 O          87.7360  119.6840  129.2380 O.2       1 4T2        -0.3913
     12 NAR        89.2430  121.3650  128.9820 N.am      1 4T2        -0.1606
     13 OAH        88.4220  121.9630  127.9690 O.3       1 4T2        -0.2715
     14 CBA        89.2930  119.9610  131.9010 C.ar      1 4T2         0.0019
     15 CAO        89.1730  121.2870  132.3090 C.ar      1 4T2        -0.0544
     16 CAM        88.7750  121.5760  133.6120 C.ar      1 4T2        -0.0596
     17 CAN        89.0260  118.9320  132.7940 C.ar      1 4T2        -0.0544
     18 CAL        88.6270  119.2170  134.0920 C.ar      1 4T2        -0.0596
     19 CAY        88.4980  120.5380  134.4970 C.ar      1 4T2        -0.0239
     20 CAZ        88.1100  120.8030  135.8040 C.ar      1 4T2        -0.0220
     21 CAP        88.8730  121.6700  136.5720 C.ar      1 4T2        -0.0515
     22 CAK        86.9890  120.1880  136.3480 C.ar      1 4T2        -0.0556
     23 CAI        86.6170  120.4530  137.6610 C.ar      1 4T2        -0.0623
     24 CAJ        87.3750  121.3280  138.4280 C.ar      1 4T2        -0.0585
     25 CAX        88.5020  121.9330  137.8830 C.ar      1 4T2         0.0141
     26 CAU        89.2620  122.8050  138.6470 C.cat     1 4T2         0.2287
     27 NAD        88.6270  123.7490  139.3340 N.pl3     1 4T2        -0.3107
     28 NAQ        90.5920  122.6460  138.6550 N.pl3     1 4T2        -0.0651
     29 OAG        91.3770  123.5710  139.4750 O.3       1 4T2        -0.1071
     30 H1         93.8801  117.3052  126.7401 H         1 4T2         0.0260
     31 H2         93.5156  116.6187  128.3595 H         1 4T2         0.0260
     32 H3         94.1433  118.2956  128.2153 H         1 4T2         0.0260
     33 H4         90.1537  117.3232  126.9653 H         1 4T2         0.0260
     34 H5         91.2202  116.0732  127.6911 H         1 4T2         0.0260
     35 H6         91.5656  116.7026  126.0444 H         1 4T2         0.0260
     36 H7         92.6473  120.0836  127.1474 H         1 4T2         0.0260
     37 H8         90.9833  119.6372  126.6391 H         1 4T2         0.0260
     38 H9         92.3994  119.0057  125.7321 H         1 4T2         0.0260
     39 H10        91.3624  120.9649  130.8920 H         1 4T2         0.1925
     40 H11        89.6981  118.5455  130.5015 H         1 4T2         0.0962
     41 H12        90.1169  121.7691  129.2523 H         1 4T2         0.2219
     42 H13        87.5770  122.1886  128.3401 H         1 4T2         0.2490
     43 H14        89.3886  122.0913  131.6150 H         1 4T2         0.0565
     44 H15        88.6812  122.6062  133.9359 H         1 4T2         0.0610
     45 H16        89.1297  117.9010  132.4756 H         1 4T2         0.0565
     46 H17        88.4170  118.4115  134.7864 H         1 4T2         0.0610
     47 H18        89.7544  122.1396  136.1504 H         1 4T2         0.0614
     48 H19        86.4038  119.5007  135.7478 H         1 4T2         0.0615
     49 H20        85.7390  119.9787  138.0843 H         1 4T2         0.0615
     50 H21        87.0880  121.5394  139.4517 H         1 4T2         0.0609
     51 H22        89.1617  124.4133  139.9117 H         1 4T2         0.2225
     52 H23        87.6002  123.8163  139.2887 H         1 4T2         0.2225
     53 H24        91.0450  121.9018  138.1056 H         1 4T2         0.3854
     54 H25        91.2310  124.4604  139.1749 H         1 4T2         0.4009
@<TRIPOS>BOND
     1    1    2 1  
     2    2    3 1  
     3    2    4 1  
     4    2    5 1  
     5    5    6 1  
     6    6    7 2  
     7    6    8 am 
     8    8    9 1  
     9    9   10 1  
    10    9   14 1  
    11   10   11 2  
    12   10   12 am 
    13   12   13 1  
    14   14   15 ar 
    15   14   17 ar 
    16   15   16 ar 
    17   16   19 ar 
    18   17   18 ar 
    19   18   19 ar 
    20   19   20 1  
    21   20   21 ar 
    22   20   22 ar 
    23   21   25 ar 
    24   22   23 ar 
    25   23   24 ar 
    26   24   25 ar 
    27   25   26 1  
    28   26   27 ar 
    29   26   28 ar 
    30   28   29 1  
    31    1   30 1  
    32    1   31 1  
    33    1   32 1  
    34    3   33 1  
    35    3   34 1  
    36    3   35 1  
    37    4   36 1  
    38    4   37 1  
    39    4   38 1  
    40    8   39 1  
    41    9   40 1  
    42   12   41 1  
    43   13   42 1  
    44   15   43 1  
    45   16   44 1  
    46   17   45 1  
    47   18   46 1  
    48   21   47 1  
    49   22   48 1  
    50   23   49 1  
    51   24   50 1  
    52   27   51 1  
    53   27   52 1  
    54   28   53 1  
    55   29   54 1  
@<TRIPOS>SUBSTRUCTURE
     1 4T2         1

