### 
### Created by X-TOOL on Mon Sep 10 21:13:23 2018
### 

@<TRIPOS>MOLECULE
4zwx_ligand
   69    69     1     0     0
SMALL
GAST_HUCK


@<TRIPOS>ATOM
      1 C1          3.3710    9.5540   81.8260 C.3       1 5KZ         0.2271
      2 C2          3.9330   10.9280   81.9430 C.3       1 5KZ         0.1685
      3 C3          5.2910   11.1350   81.3920 C.3       1 5KZ         0.1550
      4 C4          5.9910   10.0410   80.6100 C.3       1 5KZ         0.1494
      5 C6          6.1880    7.6350   80.5570 C.3       1 5KZ         0.1058
      6 O2          2.9510   11.9130   81.4700 O.3       1 5KZ        -0.2662
      7 CBK         1.2930   13.6390   82.2750 C.3       1 5KZ         0.0372
      8 CBJ         2.6190   12.8780   82.4450 C.2       1 5KZ         0.2311
      9 OBL         3.3500   13.0990   83.3600 O.2       1 5KZ        -0.3707
     10 O3          5.5160   12.5710   80.9980 O.3       1 5KZ        -0.2675
     11 CBC         5.2070   13.2990   79.8170 C.2       1 5KZ         0.2310
     12 OBH         4.5420   12.9070   78.9150 O.2       1 5KZ        -0.3707
     13 CBD         5.8060   14.7220   79.7690 C.3       1 5KZ         0.0372
     14 O4          6.3920   10.3810   79.2740 O.3       1 5KZ        -0.2679
     15 CAZ         7.7950   10.4040   79.1320 C.2       1 5KZ         0.2310
     16 OBF         8.4820   10.3800   80.1050 O.2       1 5KZ        -0.3707
     17 CBB         8.4180   10.4480   77.7230 C.3       1 5KZ         0.0372
     18 C5          5.2400    8.6820   80.5600 C.3       1 5KZ         0.1222
     19 O6          7.0700    7.8880   81.6460 O.3       1 5KZ        -0.2743
     20 CAY         8.1710    7.0050   81.6740 C.2       1 5KZ         0.2307
     21 OBE         9.0530    7.1100   82.4700 O.2       1 5KZ        -0.3707
     22 CBA         8.1890    5.8940   80.6290 C.3       1 5KZ         0.0372
     23 O5          4.4720    8.6180   81.8790 O.3       1 5KZ        -0.3420
     24 SAL         2.5130    9.2550   83.3790 S.o2      1 5KZ         0.0691
     25 OAM         3.6480    9.5560   84.5160 O.2       1 5KZ        -0.1528
     26 OAN         1.1690   10.2140   83.4360 O.2       1 5KZ        -0.1528
     27 NAK         2.0760    7.5780   83.3790 N.am      1 5KZ        -0.2494
     28 CAJ         0.9790    7.4380   82.3940 C.3       1 5KZ         0.0263
     29 CAI        -0.3540    7.3180   83.1840 C.3       1 5KZ        -0.0361
     30 CAH        -0.1850    6.2650   84.3200 C.3       1 5KZ        -0.0494
     31 CAG        -1.5530    5.6580   84.6820 C.3       1 5KZ        -0.0271
     32 CAF        -1.4620    4.7510   85.9320 C.3       1 5KZ         0.0782
     33 OAA        -1.0070    3.4990   85.4580 O.3       1 5KZ        -0.2228
     34 SAB        -1.4440    2.1660   86.3500 S.o2      1 5KZ         0.1597
     35 OAC        -2.8720    2.3210   86.0500 O.2       1 5KZ        -0.1270
     36 OAD        -0.6350    2.5320   87.6970 O.2       1 5KZ        -0.1270
     37 NAE        -0.7150    0.8550   85.5480 N.am      1 5KZ        -0.2415
     38 H1          2.7359    9.4280   80.9368 H         1 5KZ         0.0893
     39 H2          4.0417   11.1061   83.0230 H         1 5KZ         0.0725
     40 H3          5.8845   11.0851   82.3168 H         1 5KZ         0.0712
     41 H4          6.9216    9.8548   81.1662 H         1 5KZ         0.0708
     42 H5          6.7459    7.6296   79.6090 H         1 5KZ         0.0640
     43 H6          5.6851    6.6661   80.6920 H         1 5KZ         0.0640
     44 H7          1.1706   14.3519   83.1037 H         1 5KZ         0.0483
     45 H8          0.4568   12.9243   82.2797 H         1 5KZ         0.0483
     46 H9          1.3034   14.1850   81.3202 H         1 5KZ         0.0483
     47 H10         5.5180   15.2094   78.8259 H         1 5KZ         0.0483
     48 H11         6.9026   14.6605   79.8300 H         1 5KZ         0.0483
     49 H12         5.4240   15.3095   80.6169 H         1 5KZ         0.0483
     50 H13         9.5147   10.4611   77.8073 H         1 5KZ         0.0483
     51 H14         8.0796   11.3549   77.2006 H         1 5KZ         0.0483
     52 H15         8.1045    9.5594   77.1555 H         1 5KZ         0.0483
     53 H16         4.5714    8.6153   79.6891 H         1 5KZ         0.0654
     54 H17         9.0935    5.2820   80.7601 H         1 5KZ         0.0483
     55 H18         8.1891    6.3374   79.6223 H         1 5KZ         0.0483
     56 H19         7.2974    5.2614   80.7510 H         1 5KZ         0.0483
     57 H20         2.4827    6.8512   83.9326 H         1 5KZ         0.1669
     58 H21         1.1357    6.5357   81.7847 H         1 5KZ         0.0475
     59 H22         0.9482    8.3216   81.7396 H         1 5KZ         0.0475
     60 H23        -1.1572    6.9989   82.5035 H         1 5KZ         0.0281
     61 H24        -0.6107    8.2937   83.6224 H         1 5KZ         0.0281
     62 H25         0.2438    6.7525   85.2080 H         1 5KZ         0.0266
     63 H26         0.4894    5.4658   83.9788 H         1 5KZ         0.0266
     64 H27        -1.9138    5.0595   83.8325 H         1 5KZ         0.0288
     65 H28        -2.2630    6.4735   84.8839 H         1 5KZ         0.0288
     66 H29        -2.4499    4.6472   86.4044 H         1 5KZ         0.0584
     67 H30        -0.7499    5.1686   86.6590 H         1 5KZ         0.0584
     68 H31        -0.8328   -0.0739   85.8990 H         1 5KZ         0.1654
     69 H32        -0.1686    1.0132   84.7255 H         1 5KZ         0.1654
@<TRIPOS>BOND
     1    1    2 1  
     2    1   23 1  
     3    1   24 1  
     4    2    3 1  
     5    2    6 1  
     6    3    4 1  
     7    3   10 1  
     8    4   14 1  
     9    4   18 1  
    10   18    5 1  
    11    5   19 1  
    12    6    8 1  
    13    8    7 1  
    14    8    9 2  
    15   10   11 1  
    16   11   12 2  
    17   11   13 1  
    18   14   15 1  
    19   15   16 2  
    20   15   17 1  
    21   18   23 1  
    22   19   20 1  
    23   20   21 2  
    24   20   22 1  
    25   24   25 2  
    26   24   26 2  
    27   24   27 am 
    28   27   28 1  
    29   28   29 1  
    30   29   30 1  
    31   30   31 1  
    32   31   32 1  
    33   32   33 1  
    34   33   34 1  
    35   34   35 2  
    36   34   36 2  
    37   34   37 am 
    38    1   38 1  
    39    2   39 1  
    40    3   40 1  
    41    4   41 1  
    42    5   42 1  
    43    5   43 1  
    44    7   44 1  
    45    7   45 1  
    46    7   46 1  
    47   13   47 1  
    48   13   48 1  
    49   13   49 1  
    50   17   50 1  
    51   17   51 1  
    52   17   52 1  
    53   18   53 1  
    54   22   54 1  
    55   22   55 1  
    56   22   56 1  
    57   27   57 1  
    58   28   58 1  
    59   28   59 1  
    60   29   60 1  
    61   29   61 1  
    62   30   62 1  
    63   30   63 1  
    64   31   64 1  
    65   31   65 1  
    66   32   66 1  
    67   32   67 1  
    68   37   68 1  
    69   37   69 1  
@<TRIPOS>SUBSTRUCTURE
     1 5KZ         1

