### 
### Created by X-TOOL on Mon Sep 10 21:13:20 2018
### 

@<TRIPOS>MOLECULE
4zwy_ligand
   59    59     1     0     0
SMALL
GAST_HUCK


@<TRIPOS>ATOM
      1 C1         -0.8200    8.4150   12.3860 C.3       1 4SN         0.2267
      2 C2         -0.1180    9.7120   12.5470 C.3       1 4SN         0.1634
      3 C3          0.6690    9.8930   11.3420 C.3       1 4SN         0.1181
      4 C4          1.7710    8.9150   11.1380 C.3       1 4SN         0.1125
      5 C6          1.9030    6.4290   10.9680 C.3       1 4SN         0.1055
      6 O2         -1.1590   10.7270   12.5480 O.3       1 4SN        -0.2666
      7 CBK        -0.0850   12.2220   14.4010 C.3       1 4SN         0.0372
      8 CBJ        -1.2610   11.6910   13.5510 C.2       1 4SN         0.2311
      9 OBL        -2.3340   12.1370   13.6710 O.2       1 4SN        -0.3707
     10 O3         -0.2330    9.8230   10.1540 O.3       1 4SN        -0.3861
     11 O4          2.2200    8.8280    9.7660 O.3       1 4SN        -0.3865
     12 C5          1.4590    7.5030   11.7110 C.3       1 4SN         0.1171
     13 O6          2.8340    6.3100   11.9850 O.3       1 4SN        -0.2744
     14 CAY         3.8530    5.3800   11.8680 C.2       1 4SN         0.2307
     15 OBE         3.9290    4.6480   10.9750 O.2       1 4SN        -0.3707
     16 CBA         4.8710    5.4220   13.0020 C.3       1 4SN         0.0372
     17 O5          0.0400    7.3020   12.2040 O.3       1 4SN        -0.3424
     18 SAL        -1.6180    7.9930   13.9240 S.o2      1 4SN         0.0691
     19 OAM        -0.6150    8.3780   15.0710 O.2       1 4SN        -0.1528
     20 OAN        -2.8860    8.9790   13.9790 O.2       1 4SN        -0.1528
     21 NAK        -2.1240    6.3780   13.9770 N.am      1 4SN        -0.2494
     22 CAJ        -3.1360    6.1830   12.9660 C.3       1 4SN         0.0263
     23 CAI        -4.5080    5.9180   13.5730 C.3       1 4SN        -0.0361
     24 CAH        -4.5310    4.8060   14.6520 C.3       1 4SN        -0.0494
     25 CAG        -5.9720    4.5640   15.1590 C.3       1 4SN        -0.0271
     26 CAF        -6.0520    3.6600   16.4080 C.3       1 4SN         0.0782
     27 OAA        -5.7060    2.3980   15.9420 O.3       1 4SN        -0.2228
     28 SAB        -6.0450    1.1000   16.8390 S.o2      1 4SN         0.1597
     29 OAC        -7.3690    0.9940   16.6120 O.2       1 4SN        -0.1270
     30 OAD        -5.2560    1.3870   18.1170 O.2       1 4SN        -0.1270
     31 NAE        -5.3420   -0.2780   16.2830 N.am      1 4SN        -0.2415
     32 H1         -1.5395    8.4915   11.5575 H         1 4SN         0.0893
     33 H2          0.4998    9.7479   13.4564 H         1 4SN         0.0721
     34 H3          1.1186   10.8958   11.3905 H         1 4SN         0.0651
     35 H4          2.6233    9.3007   11.7166 H         1 4SN         0.0647
     36 H5          2.3127    6.6754    9.9773 H         1 4SN         0.0640
     37 H6          1.1946    5.5927   10.8742 H         1 4SN         0.0640
     38 H7         -0.4571   12.9738   15.1126 H         1 4SN         0.0483
     39 H8          0.6660   12.6814   13.7415 H         1 4SN         0.0483
     40 H9          0.3732   11.3889   14.9541 H         1 4SN         0.0483
     41 H10        -0.9463   10.4410   10.2625 H         1 4SN         0.2100
     42 H11         1.4954    8.5597    9.2133 H         1 4SN         0.2100
     43 H12         2.0687    7.4618   12.6256 H         1 4SN         0.0650
     44 H13         5.6413    4.6554   12.8317 H         1 4SN         0.0483
     45 H14         4.3634    5.2257   13.9579 H         1 4SN         0.0483
     46 H15         5.3429    6.4151   13.0346 H         1 4SN         0.0483
     47 H16        -1.7801    5.6778   14.6027 H         1 4SN         0.1669
     48 H17        -2.8524    5.3232   12.3413 H         1 4SN         0.0475
     49 H18        -3.1928    7.0870   12.3418 H         1 4SN         0.0475
     50 H19        -5.1910    5.6240   12.7625 H         1 4SN         0.0281
     51 H20        -4.8656    6.8507   14.0336 H         1 4SN         0.0281
     52 H21        -3.8973    5.1108   15.4979 H         1 4SN         0.0266
     53 H22        -4.1399    3.8740   14.2180 H         1 4SN         0.0266
     54 H23        -6.5485    4.0900   14.3509 H         1 4SN         0.0288
     55 H24        -6.4201    5.5375   15.4068 H         1 4SN         0.0288
     56 H25        -7.0712    3.6565   16.8217 H         1 4SN         0.0584
     57 H26        -5.3443    3.9979   17.1794 H         1 4SN         0.0584
     58 H27        -5.4862   -1.1424   16.7647 H         1 4SN         0.1654
     59 H28        -4.7701   -0.2519   15.4631 H         1 4SN         0.1654
@<TRIPOS>BOND
     1    1    2 1  
     2    1   17 1  
     3    1   18 1  
     4    2    3 1  
     5    2    6 1  
     6    3    4 1  
     7    3   10 1  
     8    4   11 1  
     9    4   12 1  
    10   12    5 1  
    11    5   13 1  
    12    6    8 1  
    13    8    7 1  
    14    8    9 2  
    15   12   17 1  
    16   13   14 1  
    17   14   15 2  
    18   14   16 1  
    19   18   19 2  
    20   18   20 2  
    21   18   21 am 
    22   21   22 1  
    23   22   23 1  
    24   23   24 1  
    25   24   25 1  
    26   25   26 1  
    27   26   27 1  
    28   27   28 1  
    29   28   29 2  
    30   28   30 2  
    31   28   31 am 
    32    1   32 1  
    33    2   33 1  
    34    3   34 1  
    35    4   35 1  
    36    5   36 1  
    37    5   37 1  
    38    7   38 1  
    39    7   39 1  
    40    7   40 1  
    41   10   41 1  
    42   11   42 1  
    43   12   43 1  
    44   16   44 1  
    45   16   45 1  
    46   16   46 1  
    47   21   47 1  
    48   22   48 1  
    49   22   49 1  
    50   23   50 1  
    51   23   51 1  
    52   24   52 1  
    53   24   53 1  
    54   25   54 1  
    55   25   55 1  
    56   26   56 1  
    57   26   57 1  
    58   31   58 1  
    59   31   59 1  
@<TRIPOS>SUBSTRUCTURE
     1 4SN         1

