### 
### Created by X-TOOL on Mon Sep 10 21:13:21 2018
### 

@<TRIPOS>MOLECULE
4zwz_ligand
   50    51     1     0     0
SMALL
GAST_HUCK


@<TRIPOS>ATOM
      1 C1         16.6850    7.4890   12.7700 C.3       1 510         0.2223
      2 C2         15.4220    7.7350   12.1170 C.3       1 510         0.1313
      3 C3         15.3760    8.9740   11.3430 C.3       1 510         0.1134
      4 C4         16.3350   10.0840   11.5940 C.3       1 510         0.1118
      5 C5         17.2010    9.9910   12.8680 C.3       1 510         0.1124
      6 C6         18.5650   10.2510   12.7080 C.3       1 510         0.0730
      7 O2         15.1660    6.5760   11.2740 O.3       1 510        -0.3848
      8 O3         15.2300    8.7200    9.9030 O.3       1 510        -0.3864
      9 O4         17.1030   10.3690   10.4400 O.3       1 510        -0.3865
     10 O6         18.9980   10.8530   13.8680 O.3       1 510        -0.3924
     11 O5         17.0810    8.6330   13.4950 O.3       1 510        -0.3430
     12 SBN        16.3090    6.4170   14.2100 S.o2      1 510         0.0734
     13 OAN        14.9870    6.9960   14.8610 O.2       1 510        -0.1525
     14 OAO        17.5820    6.5720   15.1880 O.2       1 510        -0.1525
     15 N          16.1040    5.0970   13.7890 N.am      1 510        -0.2102
     16 CD1        15.5180    4.3610   14.5610 C.3       1 510         0.0611
     17 CG         16.3010    2.9200   14.6250 C.3       1 510         0.1101
     18 OD2        16.4730    2.5520   16.0990 O.3       1 510        -0.2177
     19 SBM        15.6000    1.3550   16.7360 S.o2      1 510         0.1600
     20 OAL        14.1100    1.6400   16.3570 O.2       1 510        -0.1270
     21 OAM        15.8550    1.4120   18.2680 O.2       1 510        -0.1270
     22 NAF        16.0680   -0.0330   15.9720 N.am      1 510        -0.2415
     23 CB         17.3500    3.1320   14.2180 C.3       1 510         0.0159
     24 CA         17.2050    4.2970   13.2240 C.3       1 510         0.1429
     25 C          16.9850    3.5920   11.8630 C.2       1 510         0.2557
     26 O          17.7430    3.7830   11.0130 O.2       1 510        -0.3683
     27 OAS        15.9190    2.7210   11.6700 O.3       1 510        -0.2787
     28 CAA        16.0680    1.6340   10.7670 C.3       1 510         0.0658
     29 H1         17.4498    7.0997   12.0819 H         1 510         0.0889
     30 H2         14.6392    7.7981   12.8872 H         1 510         0.0664
     31 H3         14.4134    9.4108   11.6472 H         1 510         0.0647
     32 H4         15.7020   10.9691   11.7552 H         1 510         0.0647
     33 H5         16.8053   10.7366   13.5734 H         1 510         0.0646
     34 H6         18.7238   10.9228   11.8516 H         1 510         0.0584
     35 H7         19.1121    9.3111   12.5431 H         1 510         0.0584
     36 H8         15.8245    6.5311   10.5907 H         1 510         0.2101
     37 H9         14.6143    8.0090    9.7688 H         1 510         0.2100
     38 H10        16.5302   10.4166    9.6836 H         1 510         0.2100
     39 H11        18.8509   10.2673   14.6014 H         1 510         0.2095
     40 H12        14.4869    4.2051   14.2109 H         1 510         0.0506
     41 H13        15.5004    4.8158   15.5624 H         1 510         0.0506
     42 H14        15.7788    2.1337   14.0601 H         1 510         0.0639
     43 H15        15.6465   -0.9058   16.2182 H         1 510         0.1654
     44 H16        16.7728   -0.0004   15.2633 H         1 510         0.1654
     45 H17        17.7460    2.2426   13.7060 H         1 510         0.0336
     46 H18        18.0262    3.4143   15.0384 H         1 510         0.0336
     47 H19        18.1125    4.9161   13.1690 H         1 510         0.0773
     48 H20        15.1351    1.0520   10.7368 H         1 510         0.0577
     49 H21        16.8924    0.9881   11.1035 H         1 510         0.0577
     50 H22        16.2918    2.0204    9.7617 H         1 510         0.0577
@<TRIPOS>BOND
     1    1    2 1  
     2    1   11 1  
     3    1   12 1  
     4    2    3 1  
     5    2    7 1  
     6    3    4 1  
     7    3    8 1  
     8    4    5 1  
     9    4    9 1  
    10    5    6 1  
    11    5   11 1  
    12    6   10 1  
    13   12   13 2  
    14   12   14 2  
    15   12   15 am 
    16   15   16 1  
    17   15   24 1  
    18   16   17 1  
    19   17   18 1  
    20   17   23 1  
    21   18   19 1  
    22   19   20 2  
    23   19   21 2  
    24   19   22 am 
    25   23   24 1  
    26   24   25 1  
    27   25   26 2  
    28   25   27 1  
    29   27   28 1  
    30    1   29 1  
    31    2   30 1  
    32    3   31 1  
    33    4   32 1  
    34    5   33 1  
    35    6   34 1  
    36    6   35 1  
    37    7   36 1  
    38    8   37 1  
    39    9   38 1  
    40   10   39 1  
    41   16   40 1  
    42   16   41 1  
    43   17   42 1  
    44   22   43 1  
    45   22   44 1  
    46   23   45 1  
    47   23   46 1  
    48   24   47 1  
    49   28   48 1  
    50   28   49 1  
    51   28   50 1  
@<TRIPOS>SUBSTRUCTURE
     1 510         1

