### 
### Created by X-TOOL on Mon Sep 10 21:13:20 2018
### 

@<TRIPOS>MOLECULE
4zx0_ligand
   53    54     1     0     0
SMALL
GAST_HUCK


@<TRIPOS>ATOM
      1 C1         -2.1120    5.2750   11.9850 C.3       1 5L2         0.2389
      2 C2         -0.7750    5.8950   11.9330 C.3       1 5L2         0.1369
      3 C3          0.1990    5.1520   11.0810 C.3       1 5L2         0.1212
      4 C4         -0.0080    3.7460   10.6720 C.3       1 5L2         0.1351
      5 C5         -1.1050    3.0430   11.4630 C.2       1 5L2         0.1115
      6 C6         -1.3690    1.7160   11.1600 C.2       1 5L2         0.0774
      7 O2         -0.8440    7.3450   11.6640 O.3       1 5L2        -0.3842
      8 O3          1.0560    5.8550   10.1590 O.3       1 5L2        -0.3845
      9 O4          0.1590    3.4160    9.3270 O.3       1 5L2        -0.3765
     10 O6         -2.6110    1.3990   11.7020 O.3       1 5L2        -0.2594
     11 CAZ        -3.3830    0.4860   11.0030 C.2       1 5L2         0.2412
     12 OAG        -3.2210    0.2870    9.8670 O.2       1 5L2        -0.3677
     13 CAB        -4.4310   -0.2420   11.8440 C.3       1 5L2         0.0396
     14 O5         -2.1550    3.8720   12.0900 O.3       1 5L2        -0.2998
     15 SBN        -2.8810    5.7780   13.5760 S.o2      1 5L2         0.0774
     16 OAN        -1.8170    5.8150   14.6920 O.2       1 5L2        -0.1522
     17 OAO        -3.4730    7.1430   13.1820 O.2       1 5L2        -0.1522
     18 N          -3.9370    4.9210   13.9680 N.am      1 5L2        -0.2099
     19 CD1        -3.7270    3.9060   14.5620 C.3       1 5L2         0.0611
     20 CG         -5.1730    3.1400   14.5860 C.3       1 5L2         0.1101
     21 OD2        -4.9830    1.7090   15.0960 O.3       1 5L2        -0.2177
     22 SBM        -5.6870    1.0490   16.4810 S.o2      1 5L2         0.1600
     23 OAL        -4.7970    1.5760   17.5790 O.2       1 5L2        -0.1270
     24 OAM        -7.1810    1.3700   16.6650 O.2       1 5L2        -0.1270
     25 NAF        -5.2550   -0.4960   16.4730 N.am      1 5L2        -0.2415
     26 CB         -5.5250    3.2560   13.4790 C.3       1 5L2         0.0159
     27 CA         -5.0470    4.6570   13.0340 C.3       1 5L2         0.1429
     28 C          -6.1490    5.6680   13.1830 C.2       1 5L2         0.2557
     29 O          -6.6220    5.8290   14.1980 O.2       1 5L2        -0.3683
     30 OAS        -6.4760    6.3960   12.0660 O.3       1 5L2        -0.2787
     31 CAA        -7.3360    7.4680   12.1820 C.3       1 5L2         0.0658
     32 H1         -2.6976    5.6090   11.1158 H         1 5L2         0.0939
     33 H2         -0.3764    5.8112   12.9548 H         1 5L2         0.0670
     34 H3          0.9372    4.9705   11.8760 H         1 5L2         0.0668
     35 H4          0.8895    3.2719   11.0959 H         1 5L2         0.0782
     36 H5         -0.7216    1.0434   10.5993 H         1 5L2         0.0582
     37 H6         -1.4826    7.7434   12.2435 H         1 5L2         0.2101
     38 H7          1.1665    6.7519   10.4521 H         1 5L2         0.2102
     39 H8          0.8724    3.9269    8.9630 H         1 5L2         0.2129
     40 H9         -4.9912   -0.9418   11.2064 H         1 5L2         0.0483
     41 H10        -5.1246    0.4915   12.2810 H         1 5L2         0.0483
     42 H11        -3.9316   -0.7998   12.6499 H         1 5L2         0.0483
     43 H12        -3.3821    4.1180   15.5848 H         1 5L2         0.0506
     44 H13        -2.9735    3.2983   14.0396 H         1 5L2         0.0506
     45 H14        -5.8813    3.6515   15.2543 H         1 5L2         0.0639
     46 H15        -5.5573   -1.1035   17.2076 H         1 5L2         0.1654
     47 H16        -4.6835   -0.8516   15.7334 H         1 5L2         0.1654
     48 H17        -6.6209    3.1864   13.4155 H         1 5L2         0.0336
     49 H18        -5.0710    2.4775   12.8484 H         1 5L2         0.0336
     50 H19        -4.6955    4.6479   11.9917 H         1 5L2         0.0773
     51 H20        -7.4827    7.9289   11.1941 H         1 5L2         0.0577
     52 H21        -6.9070    8.2092   12.8723 H         1 5L2         0.0577
     53 H22        -8.3042    7.1209   12.5720 H         1 5L2         0.0577
@<TRIPOS>BOND
     1    1    2 1  
     2    1   14 1  
     3    1   15 1  
     4    2    3 1  
     5    2    7 1  
     6    3    4 1  
     7    3    8 1  
     8    4    5 1  
     9    4    9 1  
    10    5    6 2  
    11    5   14 1  
    12    6   10 1  
    13   10   11 1  
    14   11   12 2  
    15   11   13 1  
    16   15   16 2  
    17   15   17 2  
    18   15   18 am 
    19   18   19 1  
    20   18   27 1  
    21   19   20 1  
    22   20   21 1  
    23   20   26 1  
    24   21   22 1  
    25   22   23 2  
    26   22   24 2  
    27   22   25 am 
    28   26   27 1  
    29   27   28 1  
    30   28   29 2  
    31   28   30 1  
    32   30   31 1  
    33    1   32 1  
    34    2   33 1  
    35    3   34 1  
    36    4   35 1  
    37    6   36 1  
    38    7   37 1  
    39    8   38 1  
    40    9   39 1  
    41   13   40 1  
    42   13   41 1  
    43   13   42 1  
    44   19   43 1  
    45   19   44 1  
    46   20   45 1  
    47   25   46 1  
    48   25   47 1  
    49   26   48 1  
    50   26   49 1  
    51   27   50 1  
    52   31   51 1  
    53   31   52 1  
    54   31   53 1  
@<TRIPOS>SUBSTRUCTURE
     1 5L2         1

