### 
### Created by X-TOOL on Mon Sep 10 21:13:27 2018
### 

@<TRIPOS>MOLECULE
4zx3_ligand
   36    36     1     0     0
SMALL
GAST_HUCK


@<TRIPOS>ATOM
      1 CA         89.0690  120.1930   12.2880 C.3       1 4TK         0.1674
      2 N          89.6730  118.9380   11.8080 N.am      1 4TK        -0.2536
      3 CAO        90.9750  118.9030   11.4880 C.2       1 4TK         0.2050
      4 OAE        91.7270  119.8640   11.6340 O.2       1 4TK        -0.3440
      5 CAS        91.4920  117.5870   10.8960 C.3       1 4TK         0.0432
      6 CAA        92.9980  117.4600   11.1350 C.3       1 4TK        -0.0534
      7 CAB        90.7570  116.3960   11.5140 C.3       1 4TK        -0.0534
      8 CAC        91.2390  117.6150    9.3850 C.3       1 4TK        -0.0534
      9 C          88.0510  120.6240   11.2310 C.2       1 4TK         0.2369
     10 O          87.0810  119.9180   10.9570 O.2       1 4TK        -0.3912
     11 NAL        88.3450  121.7790   10.6200 N.am      1 4TK        -0.1606
     12 OAF        87.4500  122.2410    9.6140 O.3       1 4TK        -0.2715
     13 BRG        86.4590  120.2880   17.7920 Br        1 4TK        -0.0559
     14 CAQ        88.4800  120.1450   13.5600 C.ar      1 4TK         0.0040
     15 CAJ        87.8050  121.2800   13.9960 C.ar      1 4TK        -0.0529
     16 CAH        87.2050  121.3170   15.2490 C.ar      1 4TK        -0.0585
     17 CAP        87.2830  120.2110   16.0850 C.ar      1 4TK         0.0059
     18 CAI        87.9640  119.0710   15.6580 C.ar      1 4TK        -0.0585
     19 CAK        88.5660  119.0350   14.3970 C.ar      1 4TK        -0.0529
     20 H1         89.8669  120.9487   12.3359 H         1 4TK         0.0968
     21 H2         89.1134  118.1138   11.7209 H         1 4TK         0.1915
     22 H3         93.3586  116.5131   10.7067 H         1 4TK         0.0221
     23 H4         93.2002  117.4739   12.2162 H         1 4TK         0.0221
     24 H5         93.5179  118.3015   10.6539 H         1 4TK         0.0221
     25 H6         89.6765  116.4992   11.3354 H         1 4TK         0.0221
     26 H7         90.9487  116.3685   12.5968 H         1 4TK         0.0221
     27 H8         91.1172  115.4640   11.0541 H         1 4TK         0.0221
     28 H9         91.7674  118.4713    8.9406 H         1 4TK         0.0221
     29 H10        90.1598  117.7118    9.1956 H         1 4TK         0.0221
     30 H11        91.6082  116.6821    8.9340 H         1 4TK         0.0221
     31 H12        89.1644  122.2986   10.8620 H         1 4TK         0.2219
     32 H13        86.5887  122.3706    9.9933 H         1 4TK         0.2490
     33 H14        87.7460  122.1481   13.3494 H         1 4TK         0.0569
     34 H15        86.6775  122.2069   15.5729 H         1 4TK         0.0627
     35 H16        88.0268  118.2065   16.3090 H         1 4TK         0.0627
     36 H17        89.0971  118.1476   14.0721 H         1 4TK         0.0569
@<TRIPOS>BOND
     1    1    2 1  
     2    1    9 1  
     3   14    1 1  
     4    2    3 am 
     5    3    4 2  
     6    3    5 1  
     7    5    6 1  
     8    5    7 1  
     9    5    8 1  
    10    9   10 2  
    11    9   11 am 
    12   11   12 1  
    13   17   13 1  
    14   15   14 ar 
    15   14   19 ar 
    16   16   15 ar 
    17   16   17 ar 
    18   17   18 ar 
    19   18   19 ar 
    20    1   20 1  
    21    2   21 1  
    22    6   22 1  
    23    6   23 1  
    24    6   24 1  
    25    7   25 1  
    26    7   26 1  
    27    7   27 1  
    28    8   28 1  
    29    8   29 1  
    30    8   30 1  
    31   11   31 1  
    32   12   32 1  
    33   15   33 1  
    34   16   34 1  
    35   18   35 1  
    36   19   36 1  
@<TRIPOS>SUBSTRUCTURE
     1 4TK         1

