### 
### Created by X-TOOL on Mon Sep 10 21:13:26 2018
### 

@<TRIPOS>MOLECULE
4zx4_ligand
   46    47     1     0     0
SMALL
GAST_HUCK


@<TRIPOS>ATOM
      1 CAA        18.4920  117.5020  129.7370 C.3       1 4TL        -0.0534
      2 CBA        16.9840  117.6870  129.5760 C.3       1 4TL         0.0432
      3 CAB        16.2420  116.3780  129.8260 C.3       1 4TL        -0.0534
      4 CAC        16.7610  118.1700  128.1260 C.3       1 4TL        -0.0534
      5 CAS        16.4630  118.8630  130.4350 C.2       1 4TL         0.2050
      6 OAE        17.2560  119.7300  130.7690 O.2       1 4TL        -0.3440
      7 N          15.1400  118.8990  130.7070 N.am      1 4TL        -0.2539
      8 CA         14.5020  120.1420  131.1880 C.3       1 4TL         0.1663
      9 C          13.5130  120.5140  130.0770 C.2       1 4TL         0.2366
     10 O          12.6940  119.6880  129.6810 O.2       1 4TL        -0.3913
     11 NAP        13.7870  121.6650  129.4960 N.am      1 4TL        -0.1606
     12 OAF        12.9760  122.1070  128.4570 O.3       1 4TL        -0.2715
     13 CAY        13.9750  120.2170  132.4770 C.ar      1 4TL         0.0016
     14 CAM        13.6890  121.5020  132.9140 C.ar      1 4TL        -0.0549
     15 CAK        13.2240  121.7180  134.2010 C.ar      1 4TL        -0.0606
     16 CAL        13.8400  119.1290  133.3330 C.ar      1 4TL        -0.0549
     17 CAJ        13.3610  119.3310  134.6250 C.ar      1 4TL        -0.0606
     18 CAV        13.0330  120.6170  135.0530 C.ar      1 4TL        -0.0282
     19 CAW        12.6570  120.8750  136.3770 C.ar      1 4TL        -0.0293
     20 CAN        11.5580  120.3310  137.0330 C.ar      1 4TL        -0.0274
     21 CAT        11.3560  120.6920  138.3810 C.ar      1 4TL         0.1638
     22 FAG        10.2990  120.1940  138.9960 F         1 4TL        -0.1855
     23 CAX        12.2500  121.5450  139.0600 C.ar      1 4TL         0.1978
     24 FAI        12.1100  121.9300  140.3830 F         1 4TL        -0.1851
     25 CAU        13.3430  122.0630  138.4150 C.ar      1 4TL         0.1638
     26 FAH        14.1850  122.8570  139.1520 F         1 4TL        -0.1855
     27 CAO        13.5430  121.7390  137.0690 C.ar      1 4TL        -0.0274
     28 H1         18.8267  116.6597  129.1137 H         1 4TL         0.0221
     29 H2         18.7253  117.2932  130.7915 H         1 4TL         0.0221
     30 H3         19.0098  118.4198  129.4216 H         1 4TL         0.0221
     31 H4         15.1609  116.5402  129.7036 H         1 4TL         0.0221
     32 H5         16.4470  116.0299  130.8491 H         1 4TL         0.0221
     33 H6         16.5829  115.6199  129.1055 H         1 4TL         0.0221
     34 H7         17.3034  119.1136  127.9664 H         1 4TL         0.0221
     35 H8         15.6865  118.3312  127.9543 H         1 4TL         0.0221
     36 H9         17.1343  117.4093  127.4246 H         1 4TL         0.0221
     37 H10        14.5866  118.0756  130.5814 H         1 4TL         0.1914
     38 H11        15.2941  120.9052  131.1826 H         1 4TL         0.0964
     39 H12        14.5672  122.2125  129.7983 H         1 4TL         0.2219
     40 H13        13.2955  122.9442  128.1415 H         1 4TL         0.2490
     41 H14        13.8302  122.3426  132.2442 H         1 4TL         0.0564
     42 H15        13.0103  122.7231  134.5462 H         1 4TL         0.0605
     43 H16        14.1052  118.1329  132.9975 H         1 4TL         0.0564
     44 H17        13.2432  118.4891  135.2975 H         1 4TL         0.0605
     45 H18        10.8806  119.6534  136.5260 H         1 4TL         0.0558
     46 H19        14.3938  122.1575  136.5436 H         1 4TL         0.0558
@<TRIPOS>BOND
     1    1    2 1  
     2    2    3 1  
     3    2    4 1  
     4    2    5 1  
     5    5    6 2  
     6    5    7 am 
     7    7    8 1  
     8    8    9 1  
     9    8   13 1  
    10    9   10 2  
    11    9   11 am 
    12   11   12 1  
    13   13   14 ar 
    14   13   16 ar 
    15   14   15 ar 
    16   15   18 ar 
    17   16   17 ar 
    18   17   18 ar 
    19   18   19 1  
    20   19   20 ar 
    21   19   27 ar 
    22   20   21 ar 
    23   21   22 1  
    24   21   23 ar 
    25   23   24 1  
    26   23   25 ar 
    27   25   26 1  
    28   25   27 ar 
    29    1   28 1  
    30    1   29 1  
    31    1   30 1  
    32    3   31 1  
    33    3   32 1  
    34    3   33 1  
    35    4   34 1  
    36    4   35 1  
    37    4   36 1  
    38    7   37 1  
    39    8   38 1  
    40   11   39 1  
    41   12   40 1  
    42   14   41 1  
    43   15   42 1  
    44   16   43 1  
    45   17   44 1  
    46   20   45 1  
    47   27   46 1  
@<TRIPOS>SUBSTRUCTURE
     1 4TL         1

