### 
### Created by X-TOOL on Mon Sep 10 21:13:26 2018
### 

@<TRIPOS>MOLECULE
4zx5_ligand
   43    44     1     0     0
SMALL
GAST_HUCK


@<TRIPOS>ATOM
      1 CAA        91.0160  116.5100   10.3560 C.3       1 4TM        -0.0534
      2 CAW        91.7920  117.8240   10.1920 C.3       1 4TM         0.0432
      3 CAB        91.5530  118.3860    8.7790 C.3       1 4TM        -0.0534
      4 CAC        93.2950  117.5620   10.3470 C.3       1 4TM        -0.0534
      5 CAR        91.2710  118.9010   11.1770 C.2       1 4TM         0.2049
      6 OAE        92.0150  119.7730   11.6240 O.2       1 4TM        -0.3440
      7 N          89.9600  118.8470   11.4640 N.am      1 4TM        -0.2542
      8 CA         89.2950  119.9420   12.2010 C.3       1 4TM         0.1652
      9 C          88.2700  120.4580   11.1820 C.2       1 4TM         0.2362
     10 O          87.3030  119.7750   10.8530 O.2       1 4TM        -0.3914
     11 NAN        88.6220  121.6050   10.5920 N.am      1 4TM        -0.1606
     12 OAF        87.7310  122.1550    9.6050 O.3       1 4TM        -0.2715
     13 CAU        88.7550  119.7350   13.4990 C.ar      1 4TM        -0.0009
     14 CAL        89.0460  118.6210   14.2890 C.ar      1 4TM        -0.0578
     15 CAJ        88.5060  118.5320   15.5750 C.ar      1 4TM        -0.0648
     16 CAK        87.9430  120.7390   14.0320 C.ar      1 4TM        -0.0578
     17 CAI        87.3960  120.6460   15.3230 C.ar      1 4TM        -0.0648
     18 CAS        87.6780  119.5220   16.1090 C.ar      1 4TM        -0.0386
     19 CAT        87.2000  119.3940   17.3670 C.2       1 4TM        -0.0355
     20 CAH        86.4230  120.3220   17.9800 C.2       1 4TM        -0.0702
     21 CAG        86.0340  120.0510   19.2560 C.2       1 4TM        -0.0068
     22 SAP        86.7250  118.5900   19.6340 S.3       1 4TM        -0.0434
     23 CAM        87.5000  118.3280   18.1330 C.2       1 4TM         0.0018
     24 H1         91.4044  115.7639    9.6471 H         1 4TM         0.0221
     25 H2         89.9491  116.6866   10.1546 H         1 4TM         0.0221
     26 H3         91.1384  116.1377   11.3838 H         1 4TM         0.0221
     27 H4         92.1087  119.3279    8.6602 H         1 4TM         0.0221
     28 H5         90.4786  118.5736    8.6359 H         1 4TM         0.0221
     29 H6         91.9010  117.6582    8.0312 H         1 4TM         0.0221
     30 H7         93.4953  117.1587   11.3506 H         1 4TM         0.0221
     31 H8         93.8471  118.5040   10.2135 H         1 4TM         0.0221
     32 H9         93.6207  116.8354    9.5882 H         1 4TM         0.0221
     33 H10        89.4253  118.0532   11.1744 H         1 4TM         0.1914
     34 H11        90.0542  120.7250   12.3440 H         1 4TM         0.0959
     35 H12        89.4772  122.0659   10.8291 H         1 4TM         0.2219
     36 H13        88.0960  122.9641    9.2663 H         1 4TM         0.2490
     37 H14        89.6849  117.8324   13.9083 H         1 4TM         0.0557
     38 H15        88.7382  117.6630   16.1800 H         1 4TM         0.0580
     39 H16        87.7285  121.6159   13.4319 H         1 4TM         0.0557
     40 H17        86.7617  121.4369   15.7068 H         1 4TM         0.0580
     41 H18        86.1248  121.2398   17.4754 H         1 4TM         0.0409
     42 H19        85.4013  120.6648   19.8955 H         1 4TM         0.0721
     43 H20        88.1124  117.4722   17.8530 H         1 4TM         0.0738
@<TRIPOS>BOND
     1    1    2 1  
     2    2    3 1  
     3    2    4 1  
     4    2    5 1  
     5    5    6 2  
     6    5    7 am 
     7    7    8 1  
     8    8    9 1  
     9    8   13 1  
    10    9   10 2  
    11    9   11 am 
    12   11   12 1  
    13   13   14 ar 
    14   13   16 ar 
    15   14   15 ar 
    16   15   18 ar 
    17   16   17 ar 
    18   17   18 ar 
    19   18   19 1  
    20   19   20 1  
    21   19   23 2  
    22   20   21 2  
    23   21   22 1  
    24   22   23 1  
    25    1   24 1  
    26    1   25 1  
    27    1   26 1  
    28    3   27 1  
    29    3   28 1  
    30    3   29 1  
    31    4   30 1  
    32    4   31 1  
    33    4   32 1  
    34    7   33 1  
    35    8   34 1  
    36   11   35 1  
    37   12   36 1  
    38   14   37 1  
    39   15   38 1  
    40   16   39 1  
    41   17   40 1  
    42   20   41 1  
    43   21   42 1  
    44   23   43 1  
@<TRIPOS>SUBSTRUCTURE
     1 4TM         1

