### 
### Created by X-TOOL on Mon Sep 10 21:13:27 2018
### 

@<TRIPOS>MOLECULE
4zx6_ligand
   53    54     1     0     0
SMALL
GAST_HUCK


@<TRIPOS>ATOM
      1 CAA        93.4650  117.2830   11.2420 C.3       1 4U6        -0.0534
      2 CBB        92.0210  117.5190   10.7980 C.3       1 4U6         0.0432
      3 CAB        91.1490  116.3370   11.2280 C.3       1 4U6        -0.0534
      4 CAC        91.9800  117.6580    9.2730 C.3       1 4U6        -0.0534
      5 CAV        91.4940  118.8120   11.4230 C.2       1 4U6         0.2050
      6 OAF        92.2380  119.7770   11.5910 O.2       1 4U6        -0.3440
      7 N          90.1950  118.8150   11.7500 N.am      1 4U6        -0.2538
      8 CA         89.5650  120.0180   12.3150 C.3       1 4U6         0.1665
      9 C          88.5220  120.5220   11.3130 C.2       1 4U6         0.2367
     10 O          87.4570  119.9290   11.1480 O.2       1 4U6        -0.3913
     11 NAR        88.8870  121.6180   10.6340 N.am      1 4U6        -0.1606
     12 OAH        87.9550  122.1400    9.6650 O.3       1 4U6        -0.2715
     13 CAZ        88.9860  119.7880   13.5650 C.ar      1 4U6         0.0021
     14 CAO        88.2330  120.7990   14.1530 C.ar      1 4U6        -0.0544
     15 CAM        87.6500  120.6090   15.4000 C.ar      1 4U6        -0.0596
     16 CAN        89.1620  118.5830   14.2370 C.ar      1 4U6        -0.0544
     17 CAL        88.5790  118.3920   15.4880 C.ar      1 4U6        -0.0596
     18 CAX        87.8200  119.4030   16.0700 C.ar      1 4U6        -0.0239
     19 CAY        87.2400  119.2240   17.3240 C.ar      1 4U6        -0.0220
     20 CAP        87.6760  118.1990   18.1560 C.ar      1 4U6        -0.0515
     21 CAK        86.2340  120.0810   17.7560 C.ar      1 4U6        -0.0556
     22 CAI        85.6580  119.9080   19.0120 C.ar      1 4U6        -0.0623
     23 CAJ        86.0930  118.8800   19.8400 C.ar      1 4U6        -0.0585
     24 CAW        87.1020  118.0250   19.4120 C.ar      1 4U6         0.0141
     25 CAT        87.5380  116.9970   20.2420 C.cat     1 4U6         0.2287
     26 NAD        87.0810  116.9550   21.4910 N.pl3     1 4U6        -0.3107
     27 NAQ        88.4110  116.1080   19.7520 N.pl3     1 4U6        -0.0651
     28 OAG        88.8530  115.0490   20.6520 O.3       1 4U6        -0.1071
     29 H1         93.8400  116.3526   10.7905 H         1 4U6         0.0221
     30 H2         93.5026  117.1997   12.3382 H         1 4U6         0.0221
     31 H3         94.0912  118.1268   10.9166 H         1 4U6         0.0221
     32 H4         90.1114  116.5108   10.9067 H         1 4U6         0.0221
     33 H5         91.1818  116.2363   12.3229 H         1 4U6         0.0221
     34 H6         91.5270  115.4143   10.7634 H         1 4U6         0.0221
     35 H7         92.6071  118.5078    8.9653 H         1 4U6         0.0221
     36 H8         90.9433  117.8308    8.9483 H         1 4U6         0.0221
     37 H9         92.3602  116.7353    8.8103 H         1 4U6         0.0221
     38 H10        89.6475  117.9902   11.6084 H         1 4U6         0.1914
     39 H11        90.3389  120.7899   12.4389 H         1 4U6         0.0965
     40 H12        89.7713  122.0570   10.7930 H         1 4U6         0.2219
     41 H13        87.1433  122.3718   10.1009 H         1 4U6         0.2490
     42 H14        88.1000  121.7418   13.6348 H         1 4U6         0.0565
     43 H15        87.0627  121.4011   15.8502 H         1 4U6         0.0610
     44 H16        89.7525  117.7928   13.7876 H         1 4U6         0.0565
     45 H17        88.7172  117.4521   16.0101 H         1 4U6         0.0610
     46 H18        88.4652  117.5334   17.8256 H         1 4U6         0.0614
     47 H19        85.8970  120.8862   17.1132 H         1 4U6         0.0615
     48 H20        84.8705  120.5750   19.3438 H         1 4U6         0.0615
     49 H21        85.6460  118.7451   20.8183 H         1 4U6         0.0609
     50 H22        87.3876  116.2047   22.1266 H         1 4U6         0.2225
     51 H23        86.4207  117.6728   21.8222 H         1 4U6         0.2225
     52 H24        88.7549  116.1693   18.7831 H         1 4U6         0.3854
     53 H25        89.4660  114.4836   20.1970 H         1 4U6         0.4009
@<TRIPOS>BOND
     1    1    2 1  
     2    2    3 1  
     3    2    4 1  
     4    2    5 1  
     5    5    6 2  
     6    5    7 am 
     7    7    8 1  
     8    8    9 1  
     9    8   13 1  
    10    9   10 2  
    11    9   11 am 
    12   11   12 1  
    13   13   14 ar 
    14   13   16 ar 
    15   14   15 ar 
    16   15   18 ar 
    17   16   17 ar 
    18   17   18 ar 
    19   18   19 1  
    20   19   20 ar 
    21   19   21 ar 
    22   20   24 ar 
    23   21   22 ar 
    24   22   23 ar 
    25   23   24 ar 
    26   24   25 1  
    27   25   26 ar 
    28   25   27 ar 
    29   27   28 1  
    30    1   29 1  
    31    1   30 1  
    32    1   31 1  
    33    3   32 1  
    34    3   33 1  
    35    3   34 1  
    36    4   35 1  
    37    4   36 1  
    38    4   37 1  
    39    7   38 1  
    40    8   39 1  
    41   11   40 1  
    42   12   41 1  
    43   14   42 1  
    44   15   43 1  
    45   16   44 1  
    46   17   45 1  
    47   20   46 1  
    48   21   47 1  
    49   22   48 1  
    50   23   49 1  
    51   26   50 1  
    52   26   51 1  
    53   27   52 1  
    54   28   53 1  
@<TRIPOS>SUBSTRUCTURE
     1 4U6         1

