### 
### Created by X-TOOL on Mon Sep 10 21:13:28 2018
### 

@<TRIPOS>MOLECULE
4zx8_ligand
   37    37     1     0     0
SMALL
GAST_HUCK


@<TRIPOS>ATOM
      1 C4         85.1950   15.6820   31.4880 C.ar      1 4TY         0.0038
      2 C5         83.7760   15.2460   31.1940 C.3       1 4TY         0.1690
      3 C6         81.7730   16.5170   31.2260 C.2       1 4TY         0.3242
      4 C11        83.7630   14.1430   30.1620 C.2       1 4TY         0.2367
      5 C7         79.6400   17.5200   30.7140 C.3       1 4TY         0.0905
      6 C8         78.8790   17.9170   29.4690 C.3       1 4TY        -0.0320
      7 C9         78.6790   16.8170   31.6490 C.3       1 4TY        -0.0320
      8 C10        80.1820   18.7680   31.3780 C.3       1 4TY        -0.0320
      9 C12        85.6860   16.8560   30.9310 C.ar      1 4TY        -0.0529
     10 C13        86.9870   17.2590   31.2020 C.ar      1 4TY        -0.0585
     11 N1         83.0020   16.3380   30.7190 N.am      1 4TY        -0.2301
     12 N2         83.5370   12.8820   30.5500 N.am      1 4TY        -0.1606
     13 C3         86.0030   14.9100   32.3180 C.ar      1 4TY        -0.0529
     14 BR1        89.5800   17.0570   32.3920 Br        1 4TY        -0.0559
     15 C1         87.7940   16.4870   32.0290 C.ar      1 4TY         0.0059
     16 C2         87.3060   15.3120   32.5900 C.ar      1 4TY        -0.0585
     17 O1         80.6970   16.6710   30.3280 O.3       1 4TY        -0.2579
     18 O2         81.5650   16.1330   32.3780 O.2       1 4TY        -0.3773
     19 O3         83.9510   14.4030   28.9750 O.2       1 4TY        -0.3913
     20 O4         83.5170   11.8090   29.5650 O.3       1 4TY        -0.2715
     21 H1         83.3255   14.8690   32.1240 H         1 4TY         0.0965
     22 H2         78.0467   18.5815   29.7443 H         1 4TY         0.0260
     23 H3         78.4820   17.0158   28.9789 H         1 4TY         0.0260
     24 H4         79.5547   18.4426   28.7782 H         1 4TY         0.0260
     25 H5         79.2108   16.5178   32.5643 H         1 4TY         0.0260
     26 H6         78.2721   15.9236   31.1528 H         1 4TY         0.0260
     27 H7         77.8560   17.4987   31.9094 H         1 4TY         0.0260
     28 H8         80.8792   19.2739   30.6939 H         1 4TY         0.0260
     29 H9         80.7108   18.4915   32.3021 H         1 4TY         0.0260
     30 H10        79.3498   19.4453   31.6203 H         1 4TY         0.0260
     31 H11        85.0548   17.4565   30.2860 H         1 4TY         0.0569
     32 H12        87.3727   18.1748   30.7689 H         1 4TY         0.0627
     33 H13        83.3644   16.9584   30.0235 H         1 4TY         0.1925
     34 H14        83.3819   12.6765   31.5163 H         1 4TY         0.2219
     35 H15        85.6163   13.9952   32.7524 H         1 4TY         0.0569
     36 H16        87.9378   14.7128   33.2357 H         1 4TY         0.0627
     37 H17        82.8342   11.9792   28.9267 H         1 4TY         0.2490
@<TRIPOS>BOND
     1    2    1 1  
     2    1    9 ar 
     3    1   13 ar 
     4    2    4 1  
     5   11    2 1  
     6    3   11 am 
     7   17    3 1  
     8    3   18 2  
     9    4   12 am 
    10    4   19 2  
    11    5    6 1  
    12    5    7 1  
    13    5    8 1  
    14    5   17 1  
    15    9   10 ar 
    16   10   15 ar 
    17   12   20 1  
    18   13   16 ar 
    19   15   14 1  
    20   15   16 ar 
    21    2   21 1  
    22    6   22 1  
    23    6   23 1  
    24    6   24 1  
    25    7   25 1  
    26    7   26 1  
    27    7   27 1  
    28    8   28 1  
    29    8   29 1  
    30    8   30 1  
    31    9   31 1  
    32   10   32 1  
    33   11   33 1  
    34   12   34 1  
    35   13   35 1  
    36   16   36 1  
    37   20   37 1  
@<TRIPOS>SUBSTRUCTURE
     1 4TY         1

