### 
### Created by X-TOOL on Mon Sep 10 21:13:29 2018
### 

@<TRIPOS>MOLECULE
4zx9_ligand
   36    36     1     0     0
SMALL
GAST_HUCK


@<TRIPOS>ATOM
      1 CA        174.5010   15.1510   83.9500 C.3       1 4TK         0.1674
      2 N         175.4350   16.2160   84.3530 N.am      1 4TK        -0.2536
      3 CAO       176.1830   16.8710   83.4540 C.2       1 4TK         0.2050
      4 OAE       176.1330   16.6660   82.2430 O.2       1 4TK        -0.3440
      5 CAS       177.1320   17.9220   84.0310 C.3       1 4TK         0.0432
      6 CAA       178.2480   18.1940   83.0220 C.3       1 4TK        -0.0534
      7 CAB       176.3680   19.2170   84.3090 C.3       1 4TK        -0.0534
      8 CAC       177.7430   17.3960   85.3320 C.3       1 4TK        -0.0534
      9 C         174.4900   14.0550   85.0160 C.2       1 4TK         0.2369
     10 O         174.1310   14.2930   86.1670 O.2       1 4TK        -0.3912
     11 NAL       174.8960   12.8550   84.5840 N.am      1 4TK        -0.1606
     12 OAF       174.9070   11.7920   85.5350 O.3       1 4TK        -0.2715
     13 BRG       168.8300   17.0440   83.0400 Br        1 4TK        -0.0559
     14 CAQ       173.2030   15.6180   83.7570 C.ar      1 4TK         0.0040
     15 CAJ       172.3130   14.8270   83.0400 C.ar      1 4TK        -0.0529
     16 CAH       171.0100   15.2520   82.8260 C.ar      1 4TK        -0.0585
     17 CAP       170.5940   16.4760   83.3330 C.ar      1 4TK         0.0059
     18 CAI       171.4810   17.2700   84.0530 C.ar      1 4TK        -0.0585
     19 CAK       172.7880   16.8420   84.2680 C.ar      1 4TK        -0.0529
     20 H1        174.8570   14.7222   83.0017 H         1 4TK         0.0968
     21 H2        175.5130   16.4563   85.3206 H         1 4TK         0.1915
     22 H3        178.9352   18.9496   83.4303 H         1 4TK         0.0221
     23 H4        177.8111   18.5649   82.0831 H         1 4TK         0.0221
     24 H5        178.8007   17.2632   82.8267 H         1 4TK         0.0221
     25 H6        175.5653   19.0205   85.0350 H         1 4TK         0.0221
     26 H7        175.9311   19.5933   83.3723 H         1 4TK         0.0221
     27 H8        177.0579   19.9688   84.7198 H         1 4TK         0.0221
     28 H9        178.2919   16.4646   85.1290 H         1 4TK         0.0221
     29 H10       176.9421   17.1984   86.0597 H         1 4TK         0.0221
     30 H11       178.4342   18.1469   85.7423 H         1 4TK         0.0221
     31 H12       175.1792   12.7100   83.6360 H         1 4TK         0.2219
     32 H13       175.4893   12.0157   86.2516 H         1 4TK         0.2490
     33 H14       172.6393   13.8716   82.6454 H         1 4TK         0.0569
     34 H15       170.3199   14.6316   82.2657 H         1 4TK         0.0627
     35 H16       171.1533   18.2249   84.4478 H         1 4TK         0.0627
     36 H17       173.4783   17.4599   84.8308 H         1 4TK         0.0569
@<TRIPOS>BOND
     1    1    2 1  
     2    1    9 1  
     3   14    1 1  
     4    2    3 am 
     5    3    4 2  
     6    3    5 1  
     7    5    6 1  
     8    5    7 1  
     9    5    8 1  
    10    9   10 2  
    11    9   11 am 
    12   11   12 1  
    13   17   13 1  
    14   15   14 ar 
    15   14   19 ar 
    16   16   15 ar 
    17   16   17 ar 
    18   17   18 ar 
    19   18   19 ar 
    20    1   20 1  
    21    2   21 1  
    22    6   22 1  
    23    6   23 1  
    24    6   24 1  
    25    7   25 1  
    26    7   26 1  
    27    7   27 1  
    28    8   28 1  
    29    8   29 1  
    30    8   30 1  
    31   11   31 1  
    32   12   32 1  
    33   15   33 1  
    34   16   34 1  
    35   18   35 1  
    36   19   36 1  
@<TRIPOS>SUBSTRUCTURE
     1 4TK         1

