### 
### Created by X-TOOL on Mon Sep 10 21:13:25 2018
### 

@<TRIPOS>MOLECULE
4zxx_ligand
   77    81     1     0     0
SMALL
GAST_HUCK


@<TRIPOS>ATOM
      1 C13         8.3450   35.3290   26.5820 C.ar      1 4T0         0.0448
      2 C18         7.2010   38.1390   24.3420 C.2       1 4T0         0.2175
      3 C17         7.0540   37.2810   25.6090 C.3       1 4T0         0.1598
      4 C15         9.3570   33.2790   27.3020 C.ar      1 4T0        -0.0511
      5 C21         5.7380   39.8710   22.1810 C.ar      1 4T0        -0.0069
      6 C22         4.5850   39.2450   22.6700 C.ar      1 4T0        -0.0366
      7 C23         3.5770   38.7720   21.8330 C.ar      1 4T0         0.0594
      8 C24         3.7260   38.9120   20.4610 C.ar      1 4T0        -0.0464
      9 C11         8.5380   34.8690   28.9590 C.ar      1 4T0        -0.0283
     10 C12         8.1050   35.6880   27.8910 C.ar      1 4T0        -0.0391
     11 C34         1.8190   38.3100   23.5730 C.2       1 4T0         0.2004
     12 N1          6.8050   39.4240   24.3810 N.am      1 4T0        -0.2556
     13 C2          6.8350   40.2500   23.1580 C.3       1 4T0         0.0771
     14 C3          6.6650   41.6640   23.7340 C.3       1 4T0        -0.0181
     15 C4          5.7750   41.4460   24.9280 C.3       1 4T0        -0.0284
     16 C5          6.3230   40.1890   25.5460 C.3       1 4T0         0.0368
     17 N6          9.6100   33.3690   31.0840 N.ar      1 4T0        -0.2974
     18 C7          9.0030   34.5440   31.2910 C.ar      1 4T0        -0.0195
     19 C8          8.4490   35.2980   30.3050 C.ar      1 4T0        -0.0566
     20 C9          9.6980   32.8890   29.7980 C.ar      1 4T0         0.1155
     21 C10         9.1780   33.6270   28.6670 C.ar      1 4T0         0.0242
     22 C14         8.9610   34.1120   26.3000 C.ar      1 4T0        -0.0354
     23 N16         7.9410   36.1310   25.5200 N.pl3     1 4T0        -0.2895
     24 O19         7.7140   37.6630   23.3510 O.2       1 4T0        -0.3912
     25 N20        10.3230   31.7070   29.6470 N.pl3     1 4T0        -0.3167
     26 C25         4.8350   39.5620   19.9450 C.ar      1 4T0        -0.0571
     27 C26         5.8260   40.0390   20.7950 C.ar      1 4T0         0.0765
     28 S27         7.1670   40.8690   19.9680 S.o2      1 4T0        -0.0095
     29 O28         6.6120   41.5360   18.8210 O.2       1 4T0        -0.1720
     30 O29         7.9120   41.6470   20.9200 O.2       1 4T0        -0.1720
     31 C30         8.2480   39.5470   19.3620 C.3       1 4T0         0.0736
     32 C31         8.9370   38.7710   20.4690 C.3       1 4T0        -0.0430
     33 C32         9.2270   40.1080   18.3480 C.3       1 4T0        -0.0430
     34 N33         2.3380   38.2750   22.3120 N.am      1 4T0        -0.2357
     35 O35         2.1820   39.1110   24.4280 O.2       1 4T0        -0.3852
     36 C36         5.6040   36.8340   25.7230 C.ar      1 4T0         0.0006
     37 C37         4.9080   36.9770   26.9170 C.ar      1 4T0        -0.0558
     38 C38         3.5990   36.5370   27.0300 C.ar      1 4T0        -0.0681
     39 C39         2.9680   35.9550   25.9520 C.ar      1 4T0        -0.0684
     40 C40         3.6480   35.8030   24.7590 C.ar      1 4T0        -0.0681
     41 C41         4.9570   36.2380   24.6450 C.ar      1 4T0        -0.0558
     42 C42         0.7130   37.3310   23.8310 C.3       1 4T0         0.0316
     43 H1          7.3228   37.8777   26.4931 H         1 4T0         0.0955
     44 H2          9.8185   32.3305   27.0523 H         1 4T0         0.0651
     45 H3          4.4724   39.1238   23.7413 H         1 4T0         0.0438
     46 H4          2.9732   38.5120   19.7914 H         1 4T0         0.0448
     47 H5          7.5773   36.6105   28.1044 H         1 4T0         0.0458
     48 H6          7.8048   40.1548   22.6478 H         1 4T0         0.0719
     49 H7          6.1870   42.3326   23.0029 H         1 4T0         0.0310
     50 H8          7.6348   42.0854   24.0370 H         1 4T0         0.0310
     51 H9          4.7283   41.3087   24.6190 H         1 4T0         0.0287
     52 H10         5.8426   42.2911   25.6289 H         1 4T0         0.0287
     53 H11         7.1478   40.4164   26.2374 H         1 4T0         0.0524
     54 H12         5.5365   39.6377   26.0821 H         1 4T0         0.0524
     55 H13         8.9500   34.9171   32.3074 H         1 4T0         0.0707
     56 H14         7.9411   36.2242   30.5485 H         1 4T0         0.0523
     57 H15         9.1276   33.8238   25.2684 H         1 4T0         0.0561
     58 H16         8.3023   35.8891   24.5863 H         1 4T0         0.1831
     59 H17        10.4221   31.2930   28.7091 H         1 4T0         0.1819
     60 H18        10.7023   31.2162   30.4693 H         1 4T0         0.1819
     61 H19         4.9304   39.6992   18.8740 H         1 4T0         0.0579
     62 H20         7.6076   38.8276   18.8306 H         1 4T0         0.0531
     63 H21         9.5730   37.9894   20.0278 H         1 4T0         0.0248
     64 H22         8.1796   38.3051   21.1165 H         1 4T0         0.0248
     65 H23         9.5580   39.4558   21.0652 H         1 4T0         0.0248
     66 H24         9.8802   39.3013   17.9839 H         1 4T0         0.0248
     67 H25         9.8389   40.8893   18.8224 H         1 4T0         0.0248
     68 H26         8.6718   40.5401   17.5024 H         1 4T0         0.0248
     69 H27         1.7604   37.8345   21.6248 H         1 4T0         0.2255
     70 H28         5.3943   37.4377   27.7692 H         1 4T0         0.0562
     71 H29         3.0697   36.6509   27.9691 H         1 4T0         0.0600
     72 H30         1.9416   35.6176   26.0398 H         1 4T0         0.0561
     73 H31         3.1553   35.3421   23.9105 H         1 4T0         0.0600
     74 H32         5.4837   36.1130   23.7059 H         1 4T0         0.0562
     75 H33         0.3642   37.4371   24.8688 H         1 4T0         0.0472
     76 H34         1.0843   36.3079   23.6718 H         1 4T0         0.0472
     77 H35        -0.1209   37.5299   23.1418 H         1 4T0         0.0472
@<TRIPOS>BOND
     1   10    1 ar 
     2    1   22 ar 
     3    1   23 1  
     4    3    2 1  
     5    2   12 am 
     6    2   24 2  
     7   23    3 1  
     8    3   36 1  
     9   21    4 ar 
    10    4   22 ar 
    11    5    6 ar 
    12   13    5 1  
    13    5   27 ar 
    14    6    7 ar 
    15    7    8 ar 
    16    7   34 1  
    17    8   26 ar 
    18    9   10 ar 
    19   19    9 ar 
    20    9   21 ar 
    21   34   11 am 
    22   11   35 2  
    23   11   42 1  
    24   12   13 1  
    25   12   16 1  
    26   13   14 1  
    27   15   14 1  
    28   16   15 1  
    29   18   17 ar 
    30   17   20 ar 
    31   18   19 ar 
    32   20   21 ar 
    33   20   25 1  
    34   26   27 ar 
    35   27   28 1  
    36   28   29 2  
    37   28   30 2  
    38   28   31 1  
    39   31   32 1  
    40   31   33 1  
    41   36   37 ar 
    42   36   41 ar 
    43   37   38 ar 
    44   38   39 ar 
    45   39   40 ar 
    46   40   41 ar 
    47    3   43 1  
    48    4   44 1  
    49    6   45 1  
    50    8   46 1  
    51   10   47 1  
    52   13   48 1  
    53   14   49 1  
    54   14   50 1  
    55   15   51 1  
    56   15   52 1  
    57   16   53 1  
    58   16   54 1  
    59   18   55 1  
    60   19   56 1  
    61   22   57 1  
    62   23   58 1  
    63   25   59 1  
    64   25   60 1  
    65   26   61 1  
    66   31   62 1  
    67   32   63 1  
    68   32   64 1  
    69   32   65 1  
    70   33   66 1  
    71   33   67 1  
    72   33   68 1  
    73   34   69 1  
    74   37   70 1  
    75   38   71 1  
    76   39   72 1  
    77   40   73 1  
    78   41   74 1  
    79   42   75 1  
    80   42   76 1  
    81   42   77 1  
@<TRIPOS>SUBSTRUCTURE
     1 4T0         1

