### 
### Created by X-TOOL on Mon Sep 10 21:13:24 2018
### 

@<TRIPOS>MOLECULE
4zxy_ligand
   62    66     1     0     0
SMALL
GAST_HUCK


@<TRIPOS>ATOM
      1 C13         7.9910   35.7660   25.7060 C.3       1 4T1         0.1565
      2 C18         4.4850   34.3880   25.0860 C.ar      1 4T1        -0.0663
      3 C17         5.8350   34.6550   24.9360 C.ar      1 4T1        -0.0622
      4 C15         8.1000   36.5630   24.3900 C.2       1 4T1         0.2137
      5 C19         3.7820   34.8700   26.1830 C.ar      1 4T1        -0.0493
      6 C20         4.4770   35.5950   27.1390 C.ar      1 4T1        -0.0663
      7 C21         5.8190   35.8750   26.9800 C.ar      1 4T1        -0.0622
      8 C22         2.2980   34.6370   26.3320 C.3       1 4T1        -0.0201
      9 C23         7.5270   38.6230   23.1890 C.3       1 4T1         0.0613
     10 C27         5.1010   37.9150   20.3470 C.ar      1 4T1        -0.0819
     11 C33         1.2330   36.4160   24.7630 C.3       1 4T1         0.0448
     12 C1         10.1970   33.1180   31.3830 C.ar      1 4T1        -0.0195
     13 N2         10.7770   31.9270   31.1760 N.ar      1 4T1        -0.2974
     14 C3         10.8620   31.4470   29.8790 C.ar      1 4T1         0.1155
     15 C4         10.3400   32.1910   28.7500 C.ar      1 4T1         0.0242
     16 C5          9.7130   33.4420   29.0460 C.ar      1 4T1        -0.0283
     17 C6          9.6650   33.8890   30.3930 C.ar      1 4T1        -0.0566
     18 C7         10.4350   31.8090   27.3850 C.ar      1 4T1        -0.0511
     19 C8          9.9420   32.5980   26.3880 C.ar      1 4T1        -0.0354
     20 C9          9.3070   33.8050   26.6800 C.ar      1 4T1         0.0447
     21 C10         9.1910   34.2210   27.9870 C.ar      1 4T1        -0.0391
     22 N11         8.8120   34.5690   25.6310 N.pl3     1 4T1        -0.2904
     23 N12        11.4250   30.2270   29.7440 N.pl3     1 4T1        -0.3167
     24 C14         6.5170   35.4260   25.8700 C.ar      1 4T1        -0.0062
     25 O16         8.5450   35.9990   23.3940 O.2       1 4T1        -0.3916
     26 N24         7.7340   37.8500   24.4060 N.am      1 4T1        -0.2725
     27 C25         6.3040   38.1790   22.4220 C.ar      1 4T1        -0.0349
     28 C26         6.2270   38.3290   21.0440 C.ar      1 4T1        -0.0737
     29 C28         4.0280   37.3550   21.0200 C.ar      1 4T1        -0.0481
     30 C29         4.0860   37.1970   22.3970 C.ar      1 4T1         0.0593
     31 C30         5.2270   37.6000   23.0870 C.ar      1 4T1        -0.0387
     32 N31         2.9710   36.6810   23.1040 N.am      1 4T1        -0.2355
     33 C32         2.4540   37.1450   24.2680 C.2       1 4T1         0.2036
     34 O34         2.8890   38.1230   24.8690 O.2       1 4T1        -0.3849
     35 C35         1.4350   34.9510   25.1080 C.3       1 4T1        -0.0267
     36 H1          8.3291   36.3818   26.5524 H         1 4T1         0.0942
     37 H2          3.9701   33.7956   24.3383 H         1 4T1         0.0540
     38 H3          6.3670   34.2577   24.0792 H         1 4T1         0.0545
     39 H4          3.9589   35.9468   28.0238 H         1 4T1         0.0540
     40 H5          6.3356   36.4556   27.7357 H         1 4T1         0.0545
     41 H6          1.9422   35.2644   27.1625 H         1 4T1         0.0415
     42 H7          2.1491   33.5766   26.5836 H         1 4T1         0.0415
     43 H8          8.4097   38.5069   22.5430 H         1 4T1         0.0681
     44 H9          7.4078   39.6824   23.4601 H         1 4T1         0.0681
     45 H10         5.0610   38.0305   19.2699 H         1 4T1         0.0561
     46 H11         0.4631   36.4755   23.9796 H         1 4T1         0.0509
     47 H12         0.8761   36.9300   25.6677 H         1 4T1         0.0509
     48 H13        10.1482   33.4904   32.3999 H         1 4T1         0.0707
     49 H14         9.2063   34.8413   30.6333 H         1 4T1         0.0523
     50 H15        10.9103   30.8687   27.1301 H         1 4T1         0.0651
     51 H16        10.0449   32.2832   25.3558 H         1 4T1         0.0561
     52 H17         8.6929   35.1582   28.2077 H         1 4T1         0.0458
     53 H18         9.0568   34.2478   24.6835 H         1 4T1         0.1830
     54 H19        11.5222   29.8052   28.8094 H         1 4T1         0.1819
     55 H20        11.7572   29.7182   30.5757 H         1 4T1         0.1819
     56 H21         7.5971   38.2991   25.2889 H         1 4T1         0.1880
     57 H22         7.0561   38.7747   20.5064 H         1 4T1         0.0431
     58 H23         3.1463   37.0414   20.4730 H         1 4T1         0.0447
     59 H24         5.2770   37.4602   24.1608 H         1 4T1         0.0437
     60 H25         2.5159   35.8876   22.6997 H         1 4T1         0.2255
     61 H26         0.4417   34.5111   25.2808 H         1 4T1         0.0310
     62 H27         1.9041   34.4672   24.2386 H         1 4T1         0.0310
@<TRIPOS>BOND
     1    4    1 1  
     2    1   22 1  
     3    1   24 1  
     4    3    2 ar 
     5    2    5 ar 
     6   24    3 ar 
     7    4   25 2  
     8   26    4 am 
     9    6    5 ar 
    10    5    8 1  
    11    7    6 ar 
    12   24    7 ar 
    13    8   35 1  
    14    9   26 1  
    15   27    9 1  
    16   28   10 ar 
    17   10   29 ar 
    18   11   33 1  
    19   35   11 1  
    20   12   13 ar 
    21   17   12 ar 
    22   14   13 ar 
    23   15   14 ar 
    24   14   23 1  
    25   16   15 ar 
    26   18   15 ar 
    27   16   17 ar 
    28   21   16 ar 
    29   19   18 ar 
    30   20   19 ar 
    31   20   21 ar 
    32   22   20 1  
    33   27   28 ar 
    34   27   31 ar 
    35   29   30 ar 
    36   30   31 ar 
    37   30   32 1  
    38   32   33 am 
    39   33   34 2  
    40    1   36 1  
    41    2   37 1  
    42    3   38 1  
    43    6   39 1  
    44    7   40 1  
    45    8   41 1  
    46    8   42 1  
    47    9   43 1  
    48    9   44 1  
    49   10   45 1  
    50   11   46 1  
    51   11   47 1  
    52   12   48 1  
    53   17   49 1  
    54   18   50 1  
    55   19   51 1  
    56   21   52 1  
    57   22   53 1  
    58   23   54 1  
    59   23   55 1  
    60   26   56 1  
    61   28   57 1  
    62   29   58 1  
    63   31   59 1  
    64   32   60 1  
    65   35   61 1  
    66   35   62 1  
@<TRIPOS>SUBSTRUCTURE
     1 4T1         1

