### 
### Created by X-TOOL on Mon Sep 10 21:13:29 2018
### 

@<TRIPOS>MOLECULE
4zy0_ligand
   43    44     1     0     0
SMALL
GAST_HUCK


@<TRIPOS>ATOM
      1 CAA       176.5980  245.4250   30.0900 C.3       1 4TM        -0.0534
      2 CAW       177.2230  246.4850   30.9990 C.3       1 4TM         0.0432
      3 CAB       178.1680  247.3660   30.1800 C.3       1 4TM        -0.0534
      4 CAC       178.0220  245.8050   32.1090 C.3       1 4TM        -0.0534
      5 CAR       176.1250  247.3780   31.6060 C.2       1 4TM         0.2049
      6 OAE       175.9960  247.5170   32.8220 O.2       1 4TM        -0.3440
      7 N         175.3480  247.9900   30.7100 N.am      1 4TM        -0.2542
      8 CA        174.3030  248.9510   31.1010 C.3       1 4TM         0.1652
      9 C         174.3070  250.0330   30.0220 C.2       1 4TM         0.2362
     10 O         174.0500  249.7610   28.8520 O.2       1 4TM        -0.3914
     11 NAN       174.6820  251.2470   30.4450 N.am      1 4TM        -0.1606
     12 OAF       174.7440  252.2270   29.5030 O.3       1 4TM        -0.2715
     13 CAU       173.0270  248.3930   31.2720 C.ar      1 4TM        -0.0009
     14 CAL       172.6330  247.2080   30.6500 C.ar      1 4TM        -0.0578
     15 CAJ       171.3460  246.7070   30.8590 C.ar      1 4TM        -0.0648
     16 CAK       172.1290  249.0550   32.1020 C.ar      1 4TM        -0.0578
     17 CAI       170.8500  248.5520   32.3120 C.ar      1 4TM        -0.0648
     18 CAS       170.4450  247.3740   31.6900 C.ar      1 4TM        -0.0386
     19 CAT       169.2090  246.8990   31.9020 C.2       1 4TM        -0.0355
     20 CAH       168.4880  247.2330   32.9960 C.2       1 4TM        -0.0702
     21 CAG       167.2680  246.6740   33.0720 C.2       1 4TM        -0.0068
     22 SAP       167.0950  245.7400   31.7230 S.3       1 4TM        -0.0434
     23 CAM       168.5980  246.0620   31.0550 C.2       1 4TM         0.0018
     24 H1        177.3915  244.7942   29.6630 H         1 4TM         0.0221
     25 H2        176.0449  245.9187   29.2774 H         1 4TM         0.0221
     26 H3        175.9082  244.7999   30.6760 H         1 4TM         0.0221
     27 H4        178.6174  248.1282   30.8336 H         1 4TM         0.0221
     28 H5        177.6037  247.8598   29.3752 H         1 4TM         0.0221
     29 H6        178.9625  246.7437   29.7424 H         1 4TM         0.0221
     30 H7        177.3522  245.1680   32.7054 H         1 4TM         0.0221
     31 H8        178.4736  246.5703   32.7573 H         1 4TM         0.0221
     32 H9        178.8155  245.1869   31.6637 H         1 4TM         0.0221
     33 H10       175.4800  247.7890   29.7393 H         1 4TM         0.1914
     34 H11       174.5912  249.4035   32.0613 H         1 4TM         0.0959
     35 H12       174.9049  251.4242   31.4036 H         1 4TM         0.2219
     36 H13       175.3701  251.9808   28.8323 H         1 4TM         0.2490
     37 H14       173.3244  246.6770   30.0057 H         1 4TM         0.0557
     38 H15       171.0433  245.7884   30.3695 H         1 4TM         0.0580
     39 H16       172.4298  249.9744   32.5912 H         1 4TM         0.0557
     40 H17       170.1638  249.0802   32.9641 H         1 4TM         0.0580
     41 H18       168.8689  247.9074   33.7616 H         1 4TM         0.0409
     42 H19       166.5372  246.8107   33.8677 H         1 4TM         0.0721
     43 H20       168.9968  245.6696   30.1207 H         1 4TM         0.0738
@<TRIPOS>BOND
     1    1    2 1  
     2    2    3 1  
     3    2    4 1  
     4    2    5 1  
     5    5    6 2  
     6    5    7 am 
     7    7    8 1  
     8    8    9 1  
     9    8   13 1  
    10    9   10 2  
    11    9   11 am 
    12   11   12 1  
    13   13   14 ar 
    14   13   16 ar 
    15   14   15 ar 
    16   15   18 ar 
    17   16   17 ar 
    18   17   18 ar 
    19   18   19 1  
    20   19   20 1  
    21   19   23 2  
    22   20   21 2  
    23   21   22 1  
    24   22   23 1  
    25    1   24 1  
    26    1   25 1  
    27    1   26 1  
    28    3   27 1  
    29    3   28 1  
    30    3   29 1  
    31    4   30 1  
    32    4   31 1  
    33    4   32 1  
    34    7   33 1  
    35    8   34 1  
    36   11   35 1  
    37   12   36 1  
    38   14   37 1  
    39   15   38 1  
    40   16   39 1  
    41   17   40 1  
    42   20   41 1  
    43   21   42 1  
    44   23   43 1  
@<TRIPOS>SUBSTRUCTURE
     1 4TM         1

