### 
### Created by X-TOOL on Mon Sep 10 21:13:29 2018
### 

@<TRIPOS>MOLECULE
4zy1_ligand
   46    47     1     0     0
SMALL
GAST_HUCK


@<TRIPOS>ATOM
      1 CAB        81.6630  246.9340   84.4550 C.3       1 4U5        -0.0534
      2 CAX        81.0400  248.2710   84.0530 C.3       1 4U5         0.0432
      3 CAC        80.4870  248.9750   85.2950 C.3       1 4U5        -0.0534
      4 CAD        79.8920  248.0370   83.0680 C.3       1 4U5        -0.0534
      5 CAR        82.0930  249.1670   83.3970 C.2       1 4U5         0.2049
      6 OAF        82.1920  249.2390   82.1740 O.2       1 4U5        -0.3440
      7 N          82.8670  249.8430   84.2580 N.am      1 4U5        -0.2545
      8 CA         83.8950  250.8060   83.8290 C.3       1 4U5         0.1643
      9 C          83.9260  251.9320   84.8640 C.2       1 4U5         0.2358
     10 O          84.1700  251.7030   86.0480 O.2       1 4U5        -0.3915
     11 NAO        83.6220  253.1440   84.3810 N.am      1 4U5        -0.1607
     12 OAG        83.6120  254.2270   85.3130 O.3       1 4U5        -0.2715
     13 CAU        85.1650  250.2380   83.6660 C.ar      1 4U5        -0.0029
     14 CAK        86.0980  250.8980   82.8700 C.ar      1 4U5        -0.0599
     15 CAI        87.3710  250.3710   82.6770 C.ar      1 4U5        -0.0676
     16 CAJ        85.5130  249.0370   84.2730 C.ar      1 4U5        -0.0599
     17 CAH        86.7870  248.5070   84.0810 C.ar      1 4U5        -0.0676
     18 CAS        87.7190  249.1710   83.2860 C.ar      1 4U5        -0.0412
     19 CAT        88.9350  248.6540   83.1040 C.2       1 4U5        -0.0031
     20 CAM        89.7980  249.0130   82.1650 C.2       1 4U5         0.0616
     21 CAL        89.4770  247.6870   83.8260 C.2       1 4U5         0.0048
     22 NAN        90.6850  247.4790   83.3030 N.2       1 4U5        -0.2144
     23 NAW        90.8720  248.2410   82.3450 N.pl3     1 4U5        -0.2070
     24 CAA        92.1130  248.2780   81.5300 C.3       1 4U5         0.0611
     25 H1         80.8973  246.2993   84.9249 H         1 4U5         0.0221
     26 H2         82.4813  247.1105   85.1686 H         1 4U5         0.0221
     27 H3         82.0586  246.4302   83.5608 H         1 4U5         0.0221
     28 H4         80.0395  249.9364   85.0027 H         1 4U5         0.0221
     29 H5         81.3039  249.1531   86.0098 H         1 4U5         0.0221
     30 H6         79.7202  248.3414   85.7647 H         1 4U5         0.0221
     31 H7         80.2767  247.5312   82.1701 H         1 4U5         0.0221
     32 H8         79.4502  249.0034   82.7835 H         1 4U5         0.0221
     33 H9         79.1242  247.4083   83.5424 H         1 4U5         0.0221
     34 H10        82.7403  249.6859   85.2374 H         1 4U5         0.1913
     35 H11        83.5916  251.2248   82.8581 H         1 4U5         0.0955
     36 H12        83.4119  253.2842   83.4134 H         1 4U5         0.2219
     37 H13        82.9710  254.0529   85.9922 H         1 4U5         0.2490
     38 H14        85.8288  251.8343   82.3947 H         1 4U5         0.0552
     39 H15        88.0882  250.8938   82.0546 H         1 4U5         0.0561
     40 H16        84.7949  248.5141   84.8942 H         1 4U5         0.0552
     41 H17        87.0557  247.5696   84.5544 H         1 4U5         0.0561
     42 H18        89.6597  249.7794   81.4038 H         1 4U5         0.1021
     43 H19        89.0289  247.1684   84.6723 H         1 4U5         0.0670
     44 H20        92.8239  247.5297   81.9104 H         1 4U5         0.0607
     45 H21        92.5646  249.2789   81.5948 H         1 4U5         0.0607
     46 H22        91.8698  248.0527   80.4812 H         1 4U5         0.0607
@<TRIPOS>BOND
     1    1    2 1  
     2    2    3 1  
     3    2    4 1  
     4    2    5 1  
     5    5    6 2  
     6    5    7 am 
     7    7    8 1  
     8    8    9 1  
     9    8   13 1  
    10    9   10 2  
    11    9   11 am 
    12   11   12 1  
    13   13   14 ar 
    14   13   16 ar 
    15   14   15 ar 
    16   15   18 ar 
    17   16   17 ar 
    18   17   18 ar 
    19   18   19 1  
    20   19   20 2  
    21   19   21 1  
    22   20   23 1  
    23   21   22 2  
    24   22   23 1  
    25   23   24 1  
    26    1   25 1  
    27    1   26 1  
    28    1   27 1  
    29    3   28 1  
    30    3   29 1  
    31    3   30 1  
    32    4   31 1  
    33    4   32 1  
    34    4   33 1  
    35    7   34 1  
    36    8   35 1  
    37   11   36 1  
    38   12   37 1  
    39   14   38 1  
    40   15   39 1  
    41   16   40 1  
    42   17   41 1  
    43   20   42 1  
    44   21   43 1  
    45   24   44 1  
    46   24   45 1  
    47   24   46 1  
@<TRIPOS>SUBSTRUCTURE
     1 4U5         1

