### 
### Created by X-TOOL on Mon Sep 10 21:13:28 2018
### 

@<TRIPOS>MOLECULE
4zy2_ligand
   46    47     1     0     0
SMALL
GAST_HUCK


@<TRIPOS>ATOM
      1 CAA        91.8040   71.1910   32.1660 C.3       1 4TL        -0.0534
      2 CBA        90.7950   71.2270   31.0390 C.3       1 4TL         0.0432
      3 CAB        90.3850   69.8150   30.6850 C.3       1 4TL        -0.0534
      4 CAC        91.4340   71.8890   29.8370 C.3       1 4TL        -0.0534
      5 CAS        89.5980   72.0460   31.4780 C.2       1 4TL         0.2050
      6 OAE        89.2520   72.0600   32.6600 O.2       1 4TL        -0.3440
      7 N          88.9220   72.7660   30.5720 N.am      1 4TL        -0.2539
      8 CA         87.8190   73.5830   30.9500 C.3       1 4TL         0.1663
      9 C          87.7130   74.6970   29.9310 C.2       1 4TL         0.2366
     10 O          87.3950   74.4630   28.7630 O.2       1 4TL        -0.3913
     11 NAP        87.9880   75.9470   30.3110 N.am      1 4TL        -0.1606
     12 OAF        87.8970   77.0190   29.3310 O.3       1 4TL        -0.2715
     13 CAY        86.4910   72.8700   31.0860 C.ar      1 4TL         0.0016
     14 CAM        85.4320   73.5650   31.6530 C.ar      1 4TL        -0.0549
     15 CAK        84.1940   72.9630   31.8030 C.ar      1 4TL        -0.0606
     16 CAL        86.3210   71.5590   30.6700 C.ar      1 4TL        -0.0549
     17 CAJ        85.0840   70.9550   30.8210 C.ar      1 4TL        -0.0606
     18 CAV        84.0240   71.6540   31.3830 C.ar      1 4TL        -0.0282
     19 CAW        82.6840   70.9700   31.5390 C.ar      1 4TL        -0.0293
     20 CAN        82.3670   69.9500   30.7190 C.ar      1 4TL        -0.0274
     21 CAT        81.0370   69.2480   30.8620 C.ar      1 4TL         0.1638
     22 FAG        80.7220   68.2340   30.0480 F         1 4TL        -0.1855
     23 CAX        80.1680   69.6450   31.8090 C.ar      1 4TL         0.1978
     24 FAI        78.9940   69.0190   31.9330 F         1 4TL        -0.1851
     25 CAU        80.5200   70.7890   32.7310 C.ar      1 4TL         0.1638
     26 FAH        79.6460   71.1740   33.6690 F         1 4TL        -0.1855
     27 CAO        81.7080   71.4170   32.6060 C.ar      1 4TL        -0.0274
     28 H1         92.6777   70.5983   31.8571 H         1 4TL         0.0221
     29 H2         91.3453   70.7323   33.0544 H         1 4TL         0.0221
     30 H3         92.1227   72.2162   32.4058 H         1 4TL         0.0221
     31 H4         89.6515   69.8407   29.8657 H         1 4TL         0.0221
     32 H5         89.9350   69.3323   31.5650 H         1 4TL         0.0221
     33 H6         91.2703   69.2450   30.3667 H         1 4TL         0.0221
     34 H7         91.7307   72.9155   30.0984 H         1 4TL         0.0221
     35 H8         90.7130   71.9160   29.0067 H         1 4TL         0.0221
     36 H9         92.3227   71.3167   29.5325 H         1 4TL         0.0221
     37 H10        89.1978   72.7286   29.6115 H         1 4TL         0.1914
     38 H11        88.0512   74.0228   31.9312 H         1 4TL         0.0964
     39 H12        88.2526   76.1437   31.2551 H         1 4TL         0.2219
     40 H13        87.0107   77.0621   28.9919 H         1 4TL         0.2490
     41 H14        85.5752   74.5881   31.9813 H         1 4TL         0.0564
     42 H15        83.3680   73.5094   32.2437 H         1 4TL         0.0605
     43 H16        87.1476   71.0121   30.2310 H         1 4TL         0.0564
     44 H17        84.9423   69.9299   30.4984 H         1 4TL         0.0605
     45 H18        83.0673   69.6321   29.9551 H         1 4TL         0.0558
     46 H19        81.9621   72.2379   33.2668 H         1 4TL         0.0558
@<TRIPOS>BOND
     1    1    2 1  
     2    2    3 1  
     3    2    4 1  
     4    2    5 1  
     5    5    6 2  
     6    5    7 am 
     7    7    8 1  
     8    8    9 1  
     9    8   13 1  
    10    9   10 2  
    11    9   11 am 
    12   11   12 1  
    13   13   14 ar 
    14   13   16 ar 
    15   14   15 ar 
    16   15   18 ar 
    17   16   17 ar 
    18   17   18 ar 
    19   18   19 1  
    20   19   20 ar 
    21   19   27 ar 
    22   20   21 ar 
    23   21   22 1  
    24   21   23 ar 
    25   23   24 1  
    26   23   25 ar 
    27   25   26 1  
    28   25   27 ar 
    29    1   28 1  
    30    1   29 1  
    31    1   30 1  
    32    3   31 1  
    33    3   32 1  
    34    3   33 1  
    35    4   34 1  
    36    4   35 1  
    37    4   36 1  
    38    7   37 1  
    39    8   38 1  
    40   11   39 1  
    41   12   40 1  
    42   14   41 1  
    43   15   42 1  
    44   16   43 1  
    45   17   44 1  
    46   20   45 1  
    47   27   46 1  
@<TRIPOS>SUBSTRUCTURE
     1 4TL         1

