### 
### Created by X-TOOL on Mon Sep 10 21:13:24 2018
### 

@<TRIPOS>MOLECULE
4zy4_ligand
   47    51     1     0     0
SMALL
GAST_HUCK


@<TRIPOS>ATOM
      1 C4         12.6900  -14.0630   17.1310 C.ar      1 4T3         0.0958
      2 C5         11.9290  -12.9910   16.6630 C.ar      1 4T3         0.0258
      3 C7         13.7090  -12.3740   15.3030 C.ar      1 4T3         0.1573
      4 C13        17.4430  -16.1740   14.8340 C.2       1 4T3         0.0621
      5 C17        18.2070  -16.1400   13.5340 C.3       1 4T3         0.0197
      6 C21        15.6410  -11.6660   13.9460 C.3       1 4T3         0.0373
      7 C22        16.3060  -10.2910   13.9700 C.3       1 4T3         0.0108
      8 C24        14.0670   -9.2010   13.6490 C.3       1 4T3         0.0108
      9 C1         10.6570  -12.9410   17.2450 C.2       1 4T3        -0.0447
     10 C2         10.3850  -13.8870   18.1250 C.2       1 4T3         0.0059
     11 S3         11.7510  -14.9670   18.3060 S.3       1 4T3        -0.0290
     12 N6         12.4830  -12.1670   15.7450 N.ar      1 4T3        -0.2950
     13 N8         14.4570  -13.3830   15.7370 N.ar      1 4T3        -0.2508
     14 C9         13.9970  -14.2470   16.6370 C.ar      1 4T3         0.1448
     15 N10        14.7740  -15.3080   17.0940 N.pl3     1 4T3        -0.2590
     16 C11        15.9070  -15.7900   16.4130 C.2       1 4T3         0.0969
     17 C12        16.3060  -15.4970   15.0960 C.2       1 4T3        -0.0253
     18 N14        17.7620  -16.8870   15.9350 N.pl3     1 4T3        -0.2331
     19 N16        16.7860  -16.6310   16.9070 N.2       1 4T3        -0.2284
     20 C18        17.9000  -14.9900   12.5770 C.3       1 4T3        -0.0344
     21 C19        19.2350  -15.0270   13.3250 C.3       1 4T3        -0.0344
     22 N20        14.2480  -11.5080   14.3610 N.pl3     1 4T3        -0.2832
     23 C23        15.4940   -9.3230   13.1050 C.3       1 4T3        -0.0206
     24 C25        13.3930  -10.5740   13.6260 C.3       1 4T3         0.0373
     25 N26        16.1460   -8.0070   13.1190 N.4       1 4T3         0.2208
     26 H1         18.3936  -17.1585   13.1626 H         1 4T3         0.0507
     27 H2         16.1613  -12.3433   14.6392 H         1 4T3         0.0526
     28 H3         15.6813  -12.0812   12.9282 H         1 4T3         0.0526
     29 H4         17.3286  -10.3700   13.5725 H         1 4T3         0.0340
     30 H5         16.3423   -9.9180   15.0042 H         1 4T3         0.0340
     31 H6         13.4945   -8.5011   13.0227 H         1 4T3         0.0340
     32 H7         14.0995   -8.8259   14.6825 H         1 4T3         0.0340
     33 H8          9.9347  -12.1678   16.9873 H         1 4T3         0.0447
     34 H9          9.4429  -13.9821   18.6629 H         1 4T3         0.0893
     35 H10        14.5052  -15.7643   17.9774 H         1 4T3         0.2122
     36 H11        15.7852  -14.8357   14.4051 H         1 4T3         0.0219
     37 H12        18.5769  -17.5079   16.0414 H         1 4T3         0.2454
     38 H13        17.1407  -14.2402   12.8439 H         1 4T3         0.0295
     39 H14        17.8723  -15.1698   11.4922 H         1 4T3         0.0295
     40 H15        20.1667  -15.2340   12.7781 H         1 4T3         0.0295
     41 H16        19.4350  -14.3044   14.1298 H         1 4T3         0.0295
     42 H17        15.4562   -9.7010   12.0727 H         1 4T3         0.0851
     43 H18        13.2744  -10.9147   12.5868 H         1 4T3         0.0526
     44 H19        12.4056  -10.5137   14.1071 H         1 4T3         0.0526
     45 H20        17.0841   -8.0930   12.7603 H         1 4T3         0.1997
     46 H21        16.1784   -7.6581   14.0641 H         1 4T3         0.1997
     47 H22        15.6231   -7.3668   12.5422 H         1 4T3         0.1997
@<TRIPOS>BOND
     1    1    2 ar 
     2    1   11 1  
     3   14    1 ar 
     4    2    9 1  
     5    2   12 ar 
     6    3   12 ar 
     7   13    3 ar 
     8    3   22 1  
     9    4    5 1  
    10   17    4 2  
    11    4   18 1  
    12    5   20 1  
    13    5   21 1  
    14    6    7 1  
    15   22    6 1  
    16    7   23 1  
    17   23    8 1  
    18    8   24 1  
    19   10    9 2  
    20   11   10 1  
    21   14   13 ar 
    22   15   14 1  
    23   16   15 1  
    24   16   17 1  
    25   16   19 2  
    26   18   19 1  
    27   20   21 1  
    28   22   24 1  
    29   23   25 1  
    30    5   26 1  
    31    6   27 1  
    32    6   28 1  
    33    7   29 1  
    34    7   30 1  
    35    8   31 1  
    36    8   32 1  
    37    9   33 1  
    38   10   34 1  
    39   15   35 1  
    40   17   36 1  
    41   18   37 1  
    42   20   38 1  
    43   20   39 1  
    44   21   40 1  
    45   21   41 1  
    46   23   42 1  
    47   24   43 1  
    48   24   44 1  
    49   25   45 1  
    50   25   46 1  
    51   25   47 1  
@<TRIPOS>SUBSTRUCTURE
     1 4T3         1

