### 
### Created by X-TOOL on Mon Sep 10 21:13:24 2018
### 

@<TRIPOS>MOLECULE
4zy5_ligand
   50    53     1     0     0
SMALL
GAST_HUCK


@<TRIPOS>ATOM
      1 N3         13.8640  -13.6780   15.4120 N.ar      1 4T5        -0.2379
      2 C4         12.9080  -12.9090   14.9080 C.ar      1 4T5         0.1744
      3 C6         11.3900  -13.6170   16.4970 C.ar      1 4T5         0.0002
      4 C8         14.4180  -12.4230   13.0470 C.3       1 4T5         0.0334
      5 C13        17.1120   -9.0120   13.1200 C.3       1 4T5        -0.0244
      6 C15        15.6010   -8.7570   13.1880 C.3       1 4T5        -0.0095
      7 C24        16.1550  -15.4650   15.0580 C.2       1 4T5        -0.0269
      8 C26        17.7360  -15.3350   12.3810 C.3       1 4T5        -0.0397
      9 C1         12.3620  -14.4260   17.0510 C.ar      1 4T5        -0.0020
     10 C2         13.6340  -14.4450   16.4680 C.ar      1 4T5         0.1369
     11 N5         11.6920  -12.8800   15.4360 N.ar      1 4T5        -0.2727
     12 N7         13.2000  -12.1310   13.8000 N.pl3     1 4T5        -0.2918
     13 C9         15.1650  -11.1400   12.6760 C.3       1 4T5        -0.0202
     14 C11        16.6710  -11.4140   12.6840 C.3       1 4T5        -0.0433
     15 C12        17.4050  -10.1750   12.1760 C.3       1 4T5        -0.0095
     16 C16        14.8750  -10.0170   13.6710 C.3       1 4T5        -0.0433
     17 N17        17.8050   -7.8070   12.6430 N.4       1 4T5         0.2207
     18 N18        14.6250  -15.2450   17.0200 N.pl3     1 4T5        -0.2297
     19 C19        15.7710  -15.6790   16.3550 C.2       1 4T5         0.1730
     20 N20        16.7350  -16.4330   16.9380 N.pl3     1 4T5        -0.2108
     21 N22        17.7260  -16.6800   15.9850 N.2       1 4T5        -0.2520
     22 C23        17.3830  -16.1080   14.8600 C.2       1 4T5        -0.0092
     23 C25        18.1990  -16.1540   13.5870 C.3       1 4T5        -0.0086
     24 C27        18.9680  -14.8950   13.1780 C.3       1 4T5        -0.0397
     25 H1         10.3938  -13.5845   16.9231 H         1 4T5         0.0846
     26 H2         14.1492  -12.9600   12.1254 H         1 4T5         0.0527
     27 H3         15.0758  -13.0554   13.6613 H         1 4T5         0.0527
     28 H4         17.4784   -9.2637   14.1262 H         1 4T5         0.0850
     29 H5         15.2325   -8.4859   12.1877 H         1 4T5         0.0320
     30 H6         15.4025   -7.9320   13.8880 H         1 4T5         0.0320
     31 H7         15.6027  -14.8952   14.3122 H         1 4T5         0.0178
     32 H8         16.8064  -14.7497   12.4378 H         1 4T5         0.0289
     33 H9         17.8539  -15.7382   11.3644 H         1 4T5         0.0289
     34 H10        12.1440  -15.0348   17.9210 H         1 4T5         0.0580
     35 H11        12.5738  -11.3650   13.5136 H         1 4T5         0.1860
     36 H12        14.8526  -10.8215   11.6705 H         1 4T5         0.0321
     37 H13        16.8937  -12.2690   12.0287 H         1 4T5         0.0270
     38 H14        16.9988  -11.6423   13.7089 H         1 4T5         0.0270
     39 H15        18.4874  -10.3695   12.1528 H         1 4T5         0.0320
     40 H16        17.0553   -9.9268   11.1630 H         1 4T5         0.0320
     41 H17        13.7921   -9.8294   13.7169 H         1 4T5         0.0270
     42 H18        15.2409  -10.2991   14.6692 H         1 4T5         0.0270
     43 H19        17.6114   -7.0391   13.2666 H         1 4T5         0.1997
     44 H20        17.4808   -7.5775   11.7166 H         1 4T5         0.1997
     45 H21        18.7981   -7.9779   12.6188 H         1 4T5         0.1997
     46 H22        14.5041  -15.5417   17.9989 H         1 4T5         0.2220
     47 H23        16.7365  -16.7655   17.9129 H         1 4T5         0.2465
     48 H24        18.6384  -17.1530   13.4497 H         1 4T5         0.0443
     49 H25        18.9231  -13.9941   13.8075 H         1 4T5         0.0289
     50 H26        19.9706  -14.9826   12.7341 H         1 4T5         0.0289
@<TRIPOS>BOND
     1    1    2 ar 
     2   10    1 ar 
     3    2   11 ar 
     4    2   12 1  
     5    9    3 ar 
     6    3   11 ar 
     7   12    4 1  
     8    4   13 1  
     9    6    5 1  
    10   15    5 1  
    11    5   17 1  
    12   16    6 1  
    13    7   19 2  
    14   22    7 1  
    15   23    8 1  
    16    8   24 1  
    17   10    9 ar 
    18   18   10 1  
    19   13   14 1  
    20   13   16 1  
    21   14   15 1  
    22   19   18 1  
    23   20   19 1  
    24   21   20 1  
    25   22   21 2  
    26   22   23 1  
    27   23   24 1  
    28    3   25 1  
    29    4   26 1  
    30    4   27 1  
    31    5   28 1  
    32    6   29 1  
    33    6   30 1  
    34    7   31 1  
    35    8   32 1  
    36    8   33 1  
    37    9   34 1  
    38   12   35 1  
    39   13   36 1  
    40   14   37 1  
    41   14   38 1  
    42   15   39 1  
    43   15   40 1  
    44   16   41 1  
    45   16   42 1  
    46   17   43 1  
    47   17   44 1  
    48   17   45 1  
    49   18   46 1  
    50   20   47 1  
    51   23   48 1  
    52   24   49 1  
    53   24   50 1  
@<TRIPOS>SUBSTRUCTURE
     1 4T5         1

