### 
### Created by X-TOOL on Mon Sep 10 21:13:23 2018
### 

@<TRIPOS>MOLECULE
4zy6_ligand
   44    48     1     0     0
SMALL
GAST_HUCK


@<TRIPOS>ATOM
      1 C4         16.7120  -12.1470   13.0380 C.ar      1 4T6         0.0400
      2 C5         15.7970  -13.1840   12.8160 C.ar      1 4T6         0.0424
      3 C6         14.6310  -13.2590   13.5680 C.ar      1 4T6        -0.0207
      4 C7         13.6480  -14.3840   13.2620 C.3       1 4T6         0.0593
      5 C13        13.5790  -15.9670   17.0880 C.ar      1 4T6         0.1369
      6 C17        16.3610  -16.6320   15.6630 C.2       1 4T6        -0.0269
      7 C22        18.5680  -17.1900   14.3930 C.3       1 4T6        -0.0086
      8 C24        18.0850  -17.0850   12.9540 C.3       1 4T6        -0.0397
      9 C1         14.3820  -12.2850   14.5540 C.ar      1 4T6        -0.0686
     10 C2         15.2840  -11.2540   14.7980 C.ar      1 4T6        -0.0437
     11 C3         16.4570  -11.1840   14.0310 C.ar      1 4T6         0.0780
     12 N8         12.4520  -14.3080   14.1190 N.pl3     1 4T6        -0.2821
     13 C9         12.4670  -14.8160   15.4120 C.ar      1 4T6         0.1762
     14 N10        11.3900  -14.6550   16.1830 N.ar      1 4T6        -0.2726
     15 C11        11.3430  -15.1470   17.4250 C.ar      1 4T6         0.0002
     16 C12        12.4440  -15.8350   17.9180 C.ar      1 4T6        -0.0020
     17 N14        13.5490  -15.4780   15.8490 N.ar      1 4T6        -0.2378
     18 N15        14.6750  -16.6300   17.5880 N.pl3     1 4T6        -0.2297
     19 C16        15.8610  -16.9860   16.9360 C.2       1 4T6         0.1730
     20 C18        17.5690  -17.2390   15.5290 C.2       1 4T6        -0.0092
     21 N19        17.8060  -17.9290   16.6610 N.2       1 4T6        -0.2520
     22 N21        16.7300  -17.7630   17.5220 N.pl3     1 4T6        -0.2108
     23 C23        18.7700  -15.8850   13.6240 C.3       1 4T6        -0.0397
     24 CL1        16.1650  -14.3740   11.6040 Cl        1 4T6        -0.0845
     25 N26        17.9000  -11.8320   12.4650 N.2       1 4T6        -0.3086
     26 C27        18.3750  -10.7430   12.9930 C.2       1 4T6         0.1019
     27 N28        17.5380  -10.3200   13.9830 N.pl3     1 4T6        -0.2537
     28 H1         14.1470  -15.3497   13.4306 H         1 4T6         0.0670
     29 H2         13.3378  -14.3104   12.2092 H         1 4T6         0.0670
     30 H3         15.8713  -15.9940   14.9288 H         1 4T6         0.0178
     31 H4         19.4320  -17.8260   14.6357 H         1 4T6         0.0443
     32 H5         17.0072  -17.0522   12.7365 H         1 4T6         0.0289
     33 H6         18.6030  -17.6401   12.1580 H         1 4T6         0.0289
     34 H7         13.4685  -12.3395   15.1351 H         1 4T6         0.0500
     35 H8         15.0839  -10.5173   15.5676 H         1 4T6         0.0542
     36 H9         11.5929  -13.8722   13.7545 H         1 4T6         0.1885
     37 H10        10.4592  -15.0111   18.0378 H         1 4T6         0.0846
     38 H11        12.4325  -16.2601   18.9151 H         1 4T6         0.0580
     39 H12        14.6147  -16.9023   18.5795 H         1 4T6         0.2220
     40 H13        16.6344  -18.1800   18.4590 H         1 4T6         0.2465
     41 H14        19.7794  -15.5807   13.3102 H         1 4T6         0.0289
     42 H15        18.1837  -14.9928   13.8887 H         1 4T6         0.0289
     43 H16        19.2964  -10.2467   12.6920 H         1 4T6         0.1347
     44 H17        17.6844   -9.5005   14.5895 H         1 4T6         0.2329
@<TRIPOS>BOND
     1    2    1 ar 
     2    1   11 ar 
     3    1   25 1  
     4    3    2 ar 
     5    2   24 1  
     6    4    3 1  
     7    3    9 ar 
     8   12    4 1  
     9    5   16 ar 
    10    5   17 ar 
    11   18    5 1  
    12   19    6 2  
    13    6   20 1  
    14    7    8 1  
    15   20    7 1  
    16    7   23 1  
    17   23    8 1  
    18    9   10 ar 
    19   10   11 ar 
    20   11   27 1  
    21   13   12 1  
    22   13   14 ar 
    23   17   13 ar 
    24   15   14 ar 
    25   16   15 ar 
    26   18   19 1  
    27   19   22 1  
    28   20   21 2  
    29   21   22 1  
    30   25   26 2  
    31   26   27 1  
    32    4   28 1  
    33    4   29 1  
    34    6   30 1  
    35    7   31 1  
    36    8   32 1  
    37    8   33 1  
    38    9   34 1  
    39   10   35 1  
    40   12   36 1  
    41   15   37 1  
    42   16   38 1  
    43   18   39 1  
    44   22   40 1  
    45   23   41 1  
    46   23   42 1  
    47   26   43 1  
    48   27   44 1  
@<TRIPOS>SUBSTRUCTURE
     1 4T6         1

