### 
### Created by X-TOOL on Mon Sep 10 21:13:25 2018
### 

@<TRIPOS>MOLECULE
4zyc_ligand
   66    70     1     0     0
SMALL
GAST_HUCK


@<TRIPOS>ATOM
      1 C2          5.2310    0.4620   18.9470 C.ar      1 4SS         0.0331
      2 C3          5.1780    1.8380   18.7020 C.ar      1 4SS        -0.0543
      3 C44         3.2550    3.4730   22.8240 C.ar      1 4SS         0.0970
      4 C45         2.9680    4.8270   23.0070 C.ar      1 4SS         0.1111
      5 C46         3.9370    5.6740   23.5730 C.ar      1 4SS        -0.0439
      6 C48         5.1820    5.1430   23.9350 C.ar      1 4SS        -0.0695
      7 C49         5.4590    3.7770   23.7420 C.ar      1 4SS        -0.0849
      8 C51         4.4900    2.9280   23.1820 C.ar      1 4SS        -0.0549
      9 C53         6.2260    6.0800   24.5410 C.3       1 4SS        -0.0405
     10 C58         1.1940    6.5810   22.6560 C.3       1 4SS         0.1532
     11 C12         2.0960    2.8080   20.7640 C.3       1 4SS         0.1206
     12 C15         1.4130    1.9340   23.0250 C.2       1 4SS         0.2137
     13 C16         0.2950    1.1290   22.4050 C.3       1 4SS         0.0666
     14 C19        -0.1360    1.6250   21.0080 C.ar      1 4SS        -0.0364
     15 C20         0.7310    2.4010   20.2200 C.ar      1 4SS        -0.0166
     16 C21         0.3410    2.8350   18.9450 C.ar      1 4SS        -0.0409
     17 C23        -0.9230    2.4900   18.4450 C.ar      1 4SS         0.1072
     18 C24        -1.7840    1.7100   19.2150 C.ar      1 4SS         0.1072
     19 C25        -1.3880    1.2760   20.4960 C.ar      1 4SS        -0.0431
     20 C28        -4.0010    0.5590   19.2000 C.3       1 4SS         0.0636
     21 CL1         6.4850   -0.5300   18.2320 Cl        1 4SS        -0.0770
     22 C5          4.1640    2.6110   19.2770 C.ar      1 4SS        -0.0556
     23 C7          3.2140    1.9970   20.1090 C.ar      1 4SS        -0.0044
     24 C8          3.2720    0.6250   20.3500 C.ar      1 4SS        -0.0556
     25 C10         4.2820   -0.1460   19.7700 C.ar      1 4SS        -0.0543
     26 N14         2.2240    2.6930   22.2390 N.am      1 4SS        -0.2021
     27 O27        -3.0210    1.4210   18.6270 O.3       1 4SS        -0.3278
     28 C31        -5.3030    0.6040   18.3550 C.3       1 4SS        -0.0378
     29 O35        -1.3880    2.8750   17.1840 O.3       1 4SS        -0.3278
     30 C36        -0.7420    3.8540   16.3440 C.3       1 4SS         0.0636
     31 C39         0.1540    3.1120   15.3280 C.3       1 4SS        -0.0378
     32 O43         1.5510    1.8600   24.2410 O.2       1 4SS        -0.3843
     33 O57         1.6870    5.2420   22.6110 O.3       1 4SS        -0.3038
     34 C61         1.5660    7.2460   21.3630 C.2       1 4SS         0.1931
     35 N62         1.8500    8.4720   21.2250 N.2       1 4SS        -0.2203
     36 N63         2.1280    8.6920   19.9300 N.2       1 4SS        -0.1531
     37 N65         2.0090    7.5530   19.2260 N.2       1 4SS        -0.0729
     38 N66         1.6540    6.5760   20.0850 N.pl3     1 4SS        -0.1491
     39 H1          5.9222    2.3050   18.0670 H         1 4SS         0.0606
     40 H2          3.7234    6.7255   23.7275 H         1 4SS         0.0439
     41 H3          6.4256    3.3776   24.0270 H         1 4SS         0.0426
     42 H4          4.6960    1.8745   23.0313 H         1 4SS         0.0451
     43 H5          5.8124    7.0973   24.6052 H         1 4SS         0.0362
     44 H6          7.1238    6.0887   23.9055 H         1 4SS         0.0362
     45 H7          6.4932    5.7287   25.5485 H         1 4SS         0.0362
     46 H8          1.6497    7.1202   23.4996 H         1 4SS         0.0879
     47 H9          0.1003    6.5742   22.7730 H         1 4SS         0.0879
     48 H10         2.2437    3.8661   20.5020 H         1 4SS         0.0905
     49 H11        -0.5774    1.1767   23.0733 H         1 4SS         0.0628
     50 H12         0.6300    0.0853   22.3133 H         1 4SS         0.0628
     51 H13         1.0157    3.4364   18.3465 H         1 4SS         0.0440
     52 H14        -2.0604    0.6664   21.0888 H         1 4SS         0.0439
     53 H15        -4.2208    0.8879   20.2264 H         1 4SS         0.0604
     54 H16        -3.6144   -0.4706   19.2197 H         1 4SS         0.0604
     55 H17         4.1119    3.6760   19.0818 H         1 4SS         0.0561
     56 H18         2.5321    0.1559   20.9885 H         1 4SS         0.0561
     57 H19         4.3285   -1.2125   19.9584 H         1 4SS         0.0606
     58 H20        -6.0541   -0.0632   18.8030 H         1 4SS         0.0255
     59 H21        -5.0855    0.2742   17.3284 H         1 4SS         0.0255
     60 H22        -5.6918    1.6328   18.3351 H         1 4SS         0.0255
     61 H23        -0.1263    4.5246   16.9615 H         1 4SS         0.0604
     62 H24        -1.5014    4.4427   15.8086 H         1 4SS         0.0604
     63 H25         0.6554    3.8442   14.6780 H         1 4SS         0.0255
     64 H26        -0.4651    2.4408   14.7147 H         1 4SS         0.0255
     65 H27         0.9099    2.5226   15.8676 H         1 4SS         0.0255
     66 H28         1.4845    5.5813   19.8782 H         1 4SS         0.2710
@<TRIPOS>BOND
     1    2    1 ar 
     2    1   21 1  
     3    1   25 ar 
     4   22    2 ar 
     5    3    4 ar 
     6    3    8 ar 
     7   26    3 1  
     8    4    5 ar 
     9    4   33 1  
    10    5    6 ar 
    11    7    6 ar 
    12    6    9 1  
    13    8    7 ar 
    14   33   10 1  
    15   10   34 1  
    16   11   15 1  
    17   23   11 1  
    18   11   26 1  
    19   12   13 1  
    20   26   12 am 
    21   12   32 2  
    22   14   13 1  
    23   15   14 ar 
    24   14   19 ar 
    25   15   16 ar 
    26   16   17 ar 
    27   17   18 ar 
    28   17   29 1  
    29   19   18 ar 
    30   18   27 1  
    31   27   20 1  
    32   20   28 1  
    33   22   23 ar 
    34   23   24 ar 
    35   24   25 ar 
    36   29   30 1  
    37   30   31 1  
    38   34   35 2  
    39   34   38 1  
    40   35   36 1  
    41   36   37 2  
    42   37   38 1  
    43    2   39 1  
    44    5   40 1  
    45    7   41 1  
    46    8   42 1  
    47    9   43 1  
    48    9   44 1  
    49    9   45 1  
    50   10   46 1  
    51   10   47 1  
    52   11   48 1  
    53   13   49 1  
    54   13   50 1  
    55   16   51 1  
    56   19   52 1  
    57   20   53 1  
    58   20   54 1  
    59   22   55 1  
    60   24   56 1  
    61   25   57 1  
    62   28   58 1  
    63   28   59 1  
    64   28   60 1  
    65   30   61 1  
    66   30   62 1  
    67   31   63 1  
    68   31   64 1  
    69   31   65 1  
    70   38   66 1  
@<TRIPOS>SUBSTRUCTURE
     1 4SS         1

