### 
### Created by X-TOOL on Mon Sep 10 21:13:25 2018
### 

@<TRIPOS>MOLECULE
4zyf_ligand
   95   100     1     0     0
SMALL
GAST_HUCK


@<TRIPOS>ATOM
      1 C1        -21.7040   -7.8800   -6.0020 C.3       1 4T4         0.0230
      2 C2         -5.2110  -14.6160   -1.5050 C.ar      1 4T4         0.0331
      3 C3         -6.2030  -14.2090   -0.5900 C.ar      1 4T4        -0.0543
      4 C4         -9.0020  -10.9940   -2.7120 C.ar      1 4T4         0.0609
      5 C5         -9.3180  -12.3150   -3.0850 C.ar      1 4T4        -0.0513
      6 C6        -10.5760  -12.8010   -2.7320 C.ar      1 4T4        -0.0567
      7 C7        -11.5260  -12.0120   -2.0490 C.ar      1 4T4         0.0254
      8 C8        -11.1870  -10.6920   -1.6790 C.ar      1 4T4        -0.0567
      9 C9         -9.9310  -10.1960   -2.0230 C.ar      1 4T4        -0.0513
     10 C10       -13.7780  -11.8610   -1.0250 C.3       1 4T4         0.0266
     11 C11       -14.7300  -11.0470   -1.9170 C.3       1 4T4        -0.0215
     12 C12       -15.7550  -10.3120   -0.9860 C.3       1 4T4        -0.0434
     13 C13        -6.8160  -10.5590   -1.8480 C.3       1 4T4         0.1214
     14 C14        -7.3810   -9.9000   -4.2010 C.2       1 4T4         0.2148
     15 C15        -6.0080   -9.3300   -4.4450 C.3       1 4T4         0.0668
     16 C16        -5.2590   -8.9980   -3.1360 C.ar      1 4T4        -0.0364
     17 C17        -5.6380   -9.5910   -1.9170 C.ar      1 4T4        -0.0164
     18 C18        -4.9680   -9.3080   -0.7190 C.ar      1 4T4        -0.0409
     19 C19        -3.8710   -8.4160   -0.7160 C.ar      1 4T4         0.1076
     20 C20        -3.4730   -7.8180   -1.9180 C.ar      1 4T4         0.1068
     21 C21        -4.1570   -8.1020   -3.1440 C.ar      1 4T4        -0.0431
     22 C22        -1.8240   -6.2570   -2.9220 C.3       1 4T4         0.0553
     23 CL1        -4.4870  -16.2250   -1.4770 Cl        1 4T4        -0.0770
     24 C23        -6.7350  -12.8900   -0.6840 C.ar      1 4T4        -0.0556
     25 C24        -6.2610  -12.0020   -1.6940 C.ar      1 4T4        -0.0043
     26 C25        -5.2720  -12.4480   -2.6020 C.ar      1 4T4        -0.0556
     27 C26        -4.7420  -13.7480   -2.5100 C.ar      1 4T4        -0.0543
     28 N1         -7.7350  -10.4500   -3.0090 N.am      1 4T4        -0.2031
     29 O1         -2.3840   -6.9550   -1.7890 O.3       1 4T4        -0.3307
     30 O2         -3.1590   -8.0960    0.4550 O.3       1 4T4        -0.3249
     31 C27        -3.4870   -8.6750    1.7420 C.3       1 4T4         0.0717
     32 C28        -2.9080   -7.7230    2.8210 C.3       1 4T4        -0.0351
     33 C29        -2.8910  -10.0910    1.9590 C.3       1 4T4        -0.0351
     34 O3         -8.1810   -9.8490   -5.1180 O.2       1 4T4        -0.3838
     35 N2        -12.7080  -12.5810   -1.7270 N.pl3     1 4T4        -0.3194
     36 C30       -16.8050   -9.5210   -1.8420 C.3       1 4T4        -0.0093
     37 C31       -17.5270  -10.4100   -2.9300 C.3       1 4T4        -0.0190
     38 C32       -16.4380  -11.0540   -3.8470 C.3       1 4T4        -0.0093
     39 C33       -15.4790  -11.9220   -2.9710 C.3       1 4T4        -0.0434
     40 N3        -18.6220   -9.6970   -3.6940 N.4       1 4T4         0.2556
     41 C34       -19.8640   -9.2410   -2.9800 C.3       1 4T4        -0.0090
     42 C35       -21.0340   -9.1660   -4.0030 C.3       1 4T4         0.0737
     43 N4        -20.6400   -8.3990   -5.1930 N.am      1 4T4        -0.2668
     44 C36       -19.3330   -8.1560   -5.5510 C.2       1 4T4         0.2239
     45 C37       -18.1930   -8.6930   -4.7130 C.3       1 4T4         0.0584
     46 O4        -18.9940   -7.5080   -6.5420 O.2       1 4T4        -0.3910
     47 C38       -12.9380  -14.0120   -2.0390 C.3       1 4T4         0.0127
     48 H1        -22.6712   -8.1710   -5.5664 H         1 4T4         0.0486
     49 H2        -21.6229   -8.2880   -7.0203 H         1 4T4         0.0486
     50 H3        -21.6342   -6.7829   -6.0399 H         1 4T4         0.0486
     51 H4         -6.5567  -14.8904    0.1753 H         1 4T4         0.0606
     52 H5         -8.6092  -12.9309   -3.6265 H         1 4T4         0.0474
     53 H6        -10.8337  -13.8215   -2.9914 H         1 4T4         0.0481
     54 H7        -11.8929  -10.0741   -1.1358 H         1 4T4         0.0481
     55 H8         -9.6667   -9.1794   -1.7551 H         1 4T4         0.0474
     56 H9        -14.3790  -12.6005   -0.4756 H         1 4T4         0.0510
     57 H10       -13.3077  -11.1681   -0.3118 H         1 4T4         0.0510
     58 H11       -14.1388  -10.2951   -2.4604 H         1 4T4         0.0319
     59 H12       -15.2140   -9.6085   -0.3361 H         1 4T4         0.0270
     60 H13       -16.2788  -11.0549   -0.3665 H         1 4T4         0.0270
     61 H14        -7.3986  -10.3170   -0.9469 H         1 4T4         0.0906
     62 H15        -6.1098   -8.4077   -5.0357 H         1 4T4         0.0628
     63 H16        -5.4174  -10.0650   -5.0115 H         1 4T4         0.0628
     64 H17        -5.2909   -9.7730    0.2054 H         1 4T4         0.0440
     65 H18        -3.8365   -7.6374   -4.0695 H         1 4T4         0.0439
     66 H19        -0.9788   -5.6365   -2.5892 H         1 4T4         0.0570
     67 H20        -2.5942   -5.6151   -3.3745 H         1 4T4         0.0570
     68 H21        -1.4722   -6.9875   -3.6654 H         1 4T4         0.0570
     69 H22        -7.4991  -12.5623    0.0116 H         1 4T4         0.0561
     70 H23        -4.9181  -11.7796   -3.3785 H         1 4T4         0.0561
     71 H24        -3.9797  -14.0785   -3.2062 H         1 4T4         0.0606
     72 H25        -4.5810   -8.7350    1.8398 H         1 4T4         0.0637
     73 H26        -3.1328   -8.1223    3.8210 H         1 4T4         0.0258
     74 H27        -3.3624   -6.7271    2.7133 H         1 4T4         0.0258
     75 H28        -1.8182   -7.6445    2.6941 H         1 4T4         0.0258
     76 H29        -3.1815  -10.4627    2.9527 H         1 4T4         0.0258
     77 H30        -1.7942  -10.0414    1.8924 H         1 4T4         0.0258
     78 H31        -3.2749  -10.7729    1.1859 H         1 4T4         0.0258
     79 H32       -16.2872   -8.6963   -2.3536 H         1 4T4         0.0320
     80 H33       -17.5685   -9.1106   -1.1648 H         1 4T4         0.0320
     81 H34       -18.0221  -11.2323   -2.3927 H         1 4T4         0.0851
     82 H35       -15.8628  -10.2614   -4.3479 H         1 4T4         0.0320
     83 H36       -16.9222  -11.6895   -4.6031 H         1 4T4         0.0320
     84 H37       -16.0677  -12.6894   -2.4471 H         1 4T4         0.0270
     85 H38       -14.7395  -12.4092   -3.6235 H         1 4T4         0.0270
     86 H39       -18.9746  -10.4497   -4.2642 H         1 4T4         0.2056
     87 H40       -19.6935   -8.2472   -2.5404 H         1 4T4         0.0835
     88 H41       -20.1156   -9.9562   -2.1830 H         1 4T4         0.0835
     89 H42       -21.8971   -8.6764   -3.5282 H         1 4T4         0.0575
     90 H43       -21.3125  -10.1857   -4.3074 H         1 4T4         0.0575
     91 H44       -17.4622   -9.1685   -5.3837 H         1 4T4         0.1063
     92 H45       -17.7173   -7.8494   -4.1914 H         1 4T4         0.1063
     93 H46       -12.0598  -14.4191   -2.5615 H         1 4T4         0.0472
     94 H47       -13.8250  -14.1091   -2.6823 H         1 4T4         0.0472
     95 H48       -13.0998  -14.5696   -1.1047 H         1 4T4         0.0472
@<TRIPOS>BOND
     1   43    1 1  
     2    3    2 ar 
     3    2   23 1  
     4   27    2 ar 
     5   24    3 ar 
     6    5    4 ar 
     7    9    4 ar 
     8    4   28 1  
     9    6    5 ar 
    10    7    6 ar 
    11    7    8 ar 
    12   35    7 1  
    13    8    9 ar 
    14   11   10 1  
    15   10   35 1  
    16   12   11 1  
    17   39   11 1  
    18   36   12 1  
    19   13   17 1  
    20   13   25 1  
    21   28   13 1  
    22   14   15 1  
    23   28   14 am 
    24   14   34 2  
    25   15   16 1  
    26   17   16 ar 
    27   16   21 ar 
    28   17   18 ar 
    29   18   19 ar 
    30   19   20 ar 
    31   19   30 1  
    32   21   20 ar 
    33   20   29 1  
    34   29   22 1  
    35   25   24 ar 
    36   25   26 ar 
    37   26   27 ar 
    38   30   31 1  
    39   31   32 1  
    40   31   33 1  
    41   35   47 1  
    42   37   36 1  
    43   37   38 1  
    44   40   37 1  
    45   38   39 1  
    46   41   40 1  
    47   40   45 1  
    48   42   41 1  
    49   42   43 1  
    50   43   44 am 
    51   44   45 1  
    52   44   46 2  
    53    1   48 1  
    54    1   49 1  
    55    1   50 1  
    56    3   51 1  
    57    5   52 1  
    58    6   53 1  
    59    8   54 1  
    60    9   55 1  
    61   10   56 1  
    62   10   57 1  
    63   11   58 1  
    64   12   59 1  
    65   12   60 1  
    66   13   61 1  
    67   15   62 1  
    68   15   63 1  
    69   18   64 1  
    70   21   65 1  
    71   22   66 1  
    72   22   67 1  
    73   22   68 1  
    74   24   69 1  
    75   26   70 1  
    76   27   71 1  
    77   31   72 1  
    78   32   73 1  
    79   32   74 1  
    80   32   75 1  
    81   33   76 1  
    82   33   77 1  
    83   33   78 1  
    84   36   79 1  
    85   36   80 1  
    86   37   81 1  
    87   38   82 1  
    88   38   83 1  
    89   39   84 1  
    90   39   85 1  
    91   40   86 1  
    92   41   87 1  
    93   41   88 1  
    94   42   89 1  
    95   42   90 1  
    96   45   91 1  
    97   45   92 1  
    98   47   93 1  
    99   47   94 1  
   100   47   95 1  
@<TRIPOS>SUBSTRUCTURE
     1 4T4         1

