### 
### Created by X-TOOL on Mon Sep 10 21:13:25 2018
### 

@<TRIPOS>MOLECULE
4zyi_ligand
   74    78     1     0     0
SMALL
GAST_HUCK


@<TRIPOS>ATOM
      1 C2          5.0520   14.6800   -1.1380 C.ar      1 4TH         0.0331
      2 C3          5.9910   14.2940   -0.1920 C.ar      1 4TH        -0.0543
      3 C41         3.0550   10.8000    3.1040 C.3       1 4TH        -0.0626
      4 C11         5.9590    9.4720   -4.0750 C.3       1 4TH         0.0668
      5 C12         5.2430    9.0730   -2.7750 C.ar      1 4TH        -0.0364
      6 C13         5.5650    9.6450   -1.5140 C.ar      1 4TH        -0.0164
      7 C14         4.9280    9.3100   -0.3190 C.ar      1 4TH        -0.0409
      8 C15         3.9070    8.3430   -0.3730 C.ar      1 4TH         0.1076
      9 C16         3.5700    7.7640   -1.6080 C.ar      1 4TH         0.1068
     10 C17         4.2270    8.1140   -2.8170 C.ar      1 4TH        -0.0431
     11 C19         1.9770    6.2290   -2.7170 C.3       1 4TH         0.0553
     12 C22         3.2850    8.5240    2.0890 C.3       1 4TH         0.0742
     13 C23         2.4740    9.8510    2.0880 C.3       1 4TH        -0.0259
     14 C25         8.8740   11.1250   -2.2000 C.ar      1 4TH         0.0609
     15 C26         9.7940   10.3860   -1.4440 C.ar      1 4TH        -0.0513
     16 C27        11.0420   10.9270   -1.0940 C.ar      1 4TH        -0.0565
     17 C28        11.3890   12.2260   -1.5270 C.ar      1 4TH         0.0274
     18 C29        10.4330   12.9500   -2.2900 C.ar      1 4TH        -0.0565
     19 C30         9.1790   12.4350   -2.6400 C.ar      1 4TH        -0.0513
     20 CL1         4.4130   16.2880   -1.0610 Cl        1 4TH        -0.0770
     21 C4          6.4830   12.9790   -0.3070 C.ar      1 4TH        -0.0556
     22 C5          6.0440   12.1040   -1.3180 C.ar      1 4TH        -0.0043
     23 C6          5.1010   12.5320   -2.2690 C.ar      1 4TH        -0.0556
     24 C7          4.6010   13.8470   -2.1590 C.ar      1 4TH        -0.0543
     25 C8          6.6370   10.6790   -1.3930 C.3       1 4TH         0.1214
     26 N9          7.6100   10.5720   -2.5270 N.am      1 4TH        -0.2031
     27 C10         7.3170   10.0490   -3.7540 C.2       1 4TH         0.2148
     28 O18         2.5470    6.8160   -1.5500 O.3       1 4TH        -0.3307
     29 O21         3.2120    7.9330    0.7800 O.3       1 4TH        -0.3246
     30 O24         8.1560   10.0120   -4.6270 O.2       1 4TH        -0.3838
     31 C31         2.6510    7.5410    3.0560 C.3       1 4TH        -0.0349
     32 N32        12.6390   12.8260   -1.1860 N.pl3     1 4TH        -0.3066
     33 C33        12.8680   14.1880   -1.5710 C.3       1 4TH         0.0151
     34 C34        13.6390   12.0940   -0.4530 C.3       1 4TH         0.0647
     35 N35        16.5750   10.0480   -2.7990 N.ar      1 4TH        -0.3066
     36 C36        15.6310   10.5990   -0.6760 C.ar      1 4TH        -0.0306
     37 C37        16.5950    9.9220   -1.4440 C.ar      1 4TH         0.0031
     38 C38        15.6550   10.7970   -3.4560 C.ar      1 4TH         0.0031
     39 C39        14.6690   11.4810   -2.7130 C.ar      1 4TH        -0.0306
     40 C40        14.6570   11.3820   -1.3210 C.ar      1 4TH        -0.0021
     41 H1          6.3265   14.9654    0.5901 H         1 4TH         0.0606
     42 H2          2.4796   11.7375    3.1011 H         1 4TH         0.0231
     43 H3          4.1038   11.0128    2.8494 H         1 4TH         0.0231
     44 H4          3.0057   10.3427    4.1032 H         1 4TH         0.0231
     45 H5          5.3586   10.2250   -4.6064 H         1 4TH         0.0628
     46 H6          6.0809    8.5838   -4.7123 H         1 4TH         0.0628
     47 H7          5.2094    9.7777    0.6175 H         1 4TH         0.0440
     48 H8          3.9463    7.6468   -3.7540 H         1 4TH         0.0439
     49 H9          1.1935    5.5151   -2.4230 H         1 4TH         0.0570
     50 H10         2.7598    5.7019   -3.2821 H         1 4TH         0.0570
     51 H11         1.5377    7.0168   -3.3466 H         1 4TH         0.0570
     52 H12         4.3307    8.7195    2.3686 H         1 4TH         0.0640
     53 H13         2.5232   10.3091    1.0892 H         1 4TH         0.0291
     54 H14         1.4252    9.6390    2.3430 H         1 4TH         0.0291
     55 H15         9.5386    9.3821   -1.1247 H         1 4TH         0.0474
     56 H16        11.7362   10.3499   -0.4939 H         1 4TH         0.0481
     57 H17        10.6877   13.9515   -2.6175 H         1 4TH         0.0481
     58 H18         8.4723   13.0146   -3.2228 H         1 4TH         0.0474
     59 H19         7.2223   12.6305    0.4050 H         1 4TH         0.0561
     60 H20         4.7683   11.8722   -3.0622 H         1 4TH         0.0561
     61 H21         3.8661   14.2087   -2.8690 H         1 4TH         0.0606
     62 H22         7.1831   10.4906   -0.4569 H         1 4TH         0.0906
     63 H23         3.2260    6.6033    3.0552 H         1 4TH         0.0258
     64 H24         1.6159    7.3366    2.7450 H         1 4TH         0.0258
     65 H25         2.6516    7.9706    4.0686 H         1 4TH         0.0258
     66 H26        13.8688   14.4999   -1.2377 H         1 4TH         0.0474
     67 H27        12.1088   14.8334   -1.1051 H         1 4TH         0.0474
     68 H28        12.8022   14.2757   -2.6655 H         1 4TH         0.0474
     69 H29        13.1292   11.3415    0.1665 H         1 4TH         0.0698
     70 H30        14.1757   12.8012    0.1965 H         1 4TH         0.0698
     71 H31        15.6386   10.5180    0.4049 H         1 4TH         0.0652
     72 H32        17.3459    9.3064   -0.9620 H         1 4TH         0.0803
     73 H33        15.6766   10.8694   -4.5374 H         1 4TH         0.0803
     74 H34        13.9235   12.0813   -3.2219 H         1 4TH         0.0652
@<TRIPOS>BOND
     1    2    1 ar 
     2    1   20 1  
     3   24    1 ar 
     4   21    2 ar 
     5   13    3 1  
     6    4    5 1  
     7   27    4 1  
     8    6    5 ar 
     9    5   10 ar 
    10    6    7 ar 
    11   25    6 1  
    12    7    8 ar 
    13    8    9 ar 
    14    8   29 1  
    15   10    9 ar 
    16    9   28 1  
    17   28   11 1  
    18   12   13 1  
    19   29   12 1  
    20   12   31 1  
    21   15   14 ar 
    22   19   14 ar 
    23   14   26 1  
    24   16   15 ar 
    25   17   16 ar 
    26   17   18 ar 
    27   32   17 1  
    28   18   19 ar 
    29   22   21 ar 
    30   22   23 ar 
    31   25   22 1  
    32   23   24 ar 
    33   26   25 1  
    34   26   27 am 
    35   27   30 2  
    36   32   33 1  
    37   34   32 1  
    38   40   34 1  
    39   37   35 ar 
    40   35   38 ar 
    41   36   37 ar 
    42   36   40 ar 
    43   38   39 ar 
    44   39   40 ar 
    45    2   41 1  
    46    3   42 1  
    47    3   43 1  
    48    3   44 1  
    49    4   45 1  
    50    4   46 1  
    51    7   47 1  
    52   10   48 1  
    53   11   49 1  
    54   11   50 1  
    55   11   51 1  
    56   12   52 1  
    57   13   53 1  
    58   13   54 1  
    59   15   55 1  
    60   16   56 1  
    61   18   57 1  
    62   19   58 1  
    63   21   59 1  
    64   23   60 1  
    65   24   61 1  
    66   25   62 1  
    67   31   63 1  
    68   31   64 1  
    69   31   65 1  
    70   33   66 1  
    71   33   67 1  
    72   33   68 1  
    73   34   69 1  
    74   34   70 1  
    75   36   71 1  
    76   37   72 1  
    77   38   73 1  
    78   39   74 1  
@<TRIPOS>SUBSTRUCTURE
     1 4TH         1

