### 
### Created by X-TOOL on Mon Sep 10 21:13:28 2018
### 

@<TRIPOS>MOLECULE
4zyq_ligand
   53    54     1     0     0
SMALL
GAST_HUCK


@<TRIPOS>ATOM
      1 CAA       177.1560   18.9770   84.9970 C.3       1 4U6        -0.0534
      2 CBB       177.7890   17.6380   84.6190 C.3       1 4U6         0.0432
      3 CAB       178.4290   16.9970   85.8530 C.3       1 4U6        -0.0534
      4 CAC       178.8690   17.8610   83.5640 C.3       1 4U6        -0.0534
      5 CAV       176.7180   16.7010   84.0500 C.2       1 4U6         0.2050
      6 OAF       176.5980   16.5400   82.8360 O.2       1 4U6        -0.3440
      7 N         175.9460   16.0940   84.9620 N.am      1 4U6        -0.2538
      8 CA        174.9000   15.1320   84.5790 C.3       1 4U6         0.1665
      9 C         174.8270   14.0360   85.6520 C.2       1 4U6         0.2367
     10 O         174.5370   14.3020   86.8170 O.2       1 4U6        -0.3913
     11 NAR       175.1330   12.8050   85.2200 N.am      1 4U6        -0.1606
     12 OAH       175.0990   11.7600   86.1790 O.3       1 4U6        -0.2715
     13 CAZ       173.6550   15.7410   84.3980 C.ar      1 4U6         0.0021
     14 CAO       172.6720   15.0550   83.6930 C.ar      1 4U6        -0.0544
     15 CAM       171.4280   15.6350   83.4950 C.ar      1 4U6        -0.0596
     16 CAN       173.3870   17.0100   84.9000 C.ar      1 4U6        -0.0544
     17 CAL       172.1390   17.5920   84.7010 C.ar      1 4U6        -0.0596
     18 CAX       171.1590   16.9040   83.9960 C.ar      1 4U6        -0.0239
     19 CAY       169.9000   17.4650   83.7940 C.ar      1 4U6        -0.0220
     20 CAP       169.6040   18.7410   84.2600 C.ar      1 4U6        -0.0515
     21 CAK       168.9240   16.7310   83.1300 C.ar      1 4U6        -0.0556
     22 CAI       167.6590   17.2650   82.9230 C.ar      1 4U6        -0.0623
     23 CAJ       167.3620   18.5390   83.3850 C.ar      1 4U6        -0.0585
     24 CAW       168.3340   19.2740   84.0510 C.ar      1 4U6         0.0141
     25 CAT       168.0250   20.5470   84.5070 C.cat     1 4U6         0.2287
     26 NAD       166.7430   20.8620   84.6610 N.pl3     1 4U6        -0.3107
     27 NAQ       169.0310   21.3950   84.7620 N.pl3     1 4U6        -0.0651
     28 OAG       168.6700   22.7150   85.2320 O.3       1 4U6        -0.1071
     29 H1        177.9285   19.6456   85.4047 H         1 4U6         0.0221
     30 H2        176.3760   18.8129   85.7550 H         1 4U6         0.0221
     31 H3        176.7081   19.4362   84.1034 H         1 4U6         0.0221
     32 H4        178.8820   16.0345   85.5729 H         1 4U6         0.0221
     33 H5        177.6590   16.8302   86.6206 H         1 4U6         0.0221
     34 H6        179.2060   17.6655   86.2522 H         1 4U6         0.0221
     35 H7        178.4202   18.3217   82.6716 H         1 4U6         0.0221
     36 H8        179.3197   16.8955   83.2908 H         1 4U6         0.0221
     37 H9        179.6455   18.5266   83.9691 H         1 4U6         0.0221
     38 H10       176.0846   16.3006   85.9305 H         1 4U6         0.1914
     39 H11       175.1898   14.6689   83.6243 H         1 4U6         0.0965
     40 H12       175.3743   12.6309   84.2653 H         1 4U6         0.2219
     41 H13       175.7185   11.9492   86.8739 H         1 4U6         0.2490
     42 H14       172.8782   14.0667   83.2982 H         1 4U6         0.0565
     43 H15       170.6624   15.0971   82.9476 H         1 4U6         0.0610
     44 H16       174.1527   17.5472   85.4479 H         1 4U6         0.0565
     45 H17       171.9316   18.5803   85.0952 H         1 4U6         0.0610
     46 H18       170.3577   19.3182   84.7833 H         1 4U6         0.0614
     47 H19       169.1522   15.7340   82.7710 H         1 4U6         0.0615
     48 H20       166.9047   16.6873   82.4012 H         1 4U6         0.0615
     49 H21       166.3753   18.9590   83.2268 H         1 4U6         0.0609
     50 H22       166.4798   21.7991   84.9979 H         1 4U6         0.2225
     51 H23       166.0127   20.1690   84.4435 H         1 4U6         0.2225
     52 H24       170.0148   21.1200   84.6296 H         1 4U6         0.3854
     53 H25       168.1855   22.6387   86.0456 H         1 4U6         0.4009
@<TRIPOS>BOND
     1    1    2 1  
     2    2    3 1  
     3    2    4 1  
     4    2    5 1  
     5    5    6 2  
     6    5    7 am 
     7    7    8 1  
     8    8    9 1  
     9    8   13 1  
    10    9   10 2  
    11    9   11 am 
    12   11   12 1  
    13   13   14 ar 
    14   13   16 ar 
    15   14   15 ar 
    16   15   18 ar 
    17   16   17 ar 
    18   17   18 ar 
    19   18   19 1  
    20   19   20 ar 
    21   19   21 ar 
    22   20   24 ar 
    23   21   22 ar 
    24   22   23 ar 
    25   23   24 ar 
    26   24   25 1  
    27   25   26 ar 
    28   25   27 ar 
    29   27   28 1  
    30    1   29 1  
    31    1   30 1  
    32    1   31 1  
    33    3   32 1  
    34    3   33 1  
    35    3   34 1  
    36    4   35 1  
    37    4   36 1  
    38    4   37 1  
    39    7   38 1  
    40    8   39 1  
    41   11   40 1  
    42   12   41 1  
    43   14   42 1  
    44   15   43 1  
    45   16   44 1  
    46   17   45 1  
    47   20   46 1  
    48   21   47 1  
    49   22   48 1  
    50   23   49 1  
    51   26   50 1  
    52   26   51 1  
    53   27   52 1  
    54   28   53 1  
@<TRIPOS>SUBSTRUCTURE
     1 4U6         1

