### 
### Created by X-TOOL on Mon Sep 10 21:13:25 2018
### 

@<TRIPOS>MOLECULE
4zyr_ligand
   36    37     1     0     0
SMALL
GAST_HUCK


@<TRIPOS>ATOM
      1 C6         26.9250  -17.3060   50.6780 C.3       1 9PG         0.0730
      2 C5         27.8070  -18.2230   51.5230 C.3       1 9PG         0.1134
      3 C4         27.4680  -18.0290   53.0070 C.3       1 9PG         0.1119
      4 C3         28.4260  -18.8360   53.8860 C.3       1 9PG         0.1145
      5 C2         29.8580  -18.4960   53.4900 C.3       1 9PG         0.1388
      6 C1         30.0130  -18.7930   52.0070 C.3       1 9PG         0.2111
      7 O8         33.2340  -23.7960   48.1850 O.2       1 9PG         0.1732
      8 N          33.5110  -22.7810   48.7070 N.2       1 9PG         0.3062
      9 O7         34.5910  -22.3330   48.5880 O.2       1 9PG         0.1732
     10 C9         32.5140  -22.0860   49.5000 C.ar      1 9PG         0.1882
     11 C14        32.8380  -20.9170   50.1700 C.ar      1 9PG        -0.0271
     12 C13        31.8780  -20.2610   50.9240 C.ar      1 9PG        -0.0239
     13 C12        30.5950  -20.7740   51.0060 C.ar      1 9PG         0.1016
     14 C11        30.2710  -21.9420   50.3370 C.ar      1 9PG        -0.0239
     15 C10        31.2300  -22.5990   49.5840 C.ar      1 9PG        -0.0271
     16 O1         29.6260  -20.1170   51.7670 O.3       1 9PG        -0.2805
     17 O2         30.7680  -19.2650   54.2370 O.3       1 9PG        -0.3837
     18 O3         28.2110  -18.5120   55.2340 O.3       1 9PG        -0.3864
     19 O4         27.5870  -16.6750   53.3310 O.3       1 9PG        -0.3865
     20 O5         29.1630  -17.9390   51.2980 O.3       1 9PG        -0.3367
     21 O6         27.4380  -16.0020   50.6670 O.3       1 9PG        -0.3924
     22 H1         25.9094  -17.2914   51.1003 H         1 9PG         0.0584
     23 H2         26.8882  -17.6887   49.6474 H         1 9PG         0.0584
     24 H3         27.6105  -19.2683   51.2425 H         1 9PG         0.0647
     25 H4         26.4362  -18.3632   53.1908 H         1 9PG         0.0647
     26 H5         28.2483  -19.9111   53.7362 H         1 9PG         0.0648
     27 H6         30.0495  -17.4289   53.6759 H         1 9PG         0.0675
     28 H7         31.0563  -18.6397   51.6940 H         1 9PG         0.0996
     29 H8         33.8428  -20.5156   50.1043 H         1 9PG         0.0666
     30 H9         32.1315  -19.3471   51.4490 H         1 9PG         0.0561
     31 H10        29.2659  -22.3427   50.4026 H         1 9PG         0.0561
     32 H11        30.9760  -23.5138   49.0609 H         1 9PG         0.0666
     33 H12        30.6615  -19.0707   55.1608 H         1 9PG         0.2101
     34 H13        27.3167  -18.7272   55.4715 H         1 9PG         0.2100
     35 H14        27.3665  -16.5490   54.2464 H         1 9PG         0.2100
     36 H15        27.4687  -15.6675   51.5556 H         1 9PG         0.2095
@<TRIPOS>BOND
     1    2    1 1  
     2    1   21 1  
     3    2    3 1  
     4   20    2 1  
     5    4    3 1  
     6    3   19 1  
     7    5    4 1  
     8    4   18 1  
     9    6    5 1  
    10    5   17 1  
    11   16    6 1  
    12    6   20 1  
    13    8    7 2  
    14    8    9 2  
    15   10    8 1  
    16   11   10 ar 
    17   10   15 ar 
    18   12   11 ar 
    19   13   12 ar 
    20   13   14 ar 
    21   13   16 1  
    22   14   15 ar 
    23    1   22 1  
    24    1   23 1  
    25    2   24 1  
    26    3   25 1  
    27    4   26 1  
    28    5   27 1  
    29    6   28 1  
    30   11   29 1  
    31   12   30 1  
    32   14   31 1  
    33   15   32 1  
    34   17   33 1  
    35   18   34 1  
    36   19   35 1  
    37   21   36 1  
@<TRIPOS>SUBSTRUCTURE
     1 9PG         1

