### 
### Created by X-TOOL on Mon Sep 10 21:13:26 2018
### 

@<TRIPOS>MOLECULE
4zyt_ligand
   57    59     1     0     0
SMALL
GAST_HUCK


@<TRIPOS>ATOM
      1 C13       -21.1700   16.6520   16.0870 C.ar      1 3Y9        -0.0485
      2 C15       -22.2040   15.8230   16.5240 C.ar      1 3Y9        -0.0544
      3 C17       -20.3790   18.9160   15.1590 C.2       1 3Y9         0.2016
      4 C20       -19.8640   21.3780   15.0240 C.3       1 3Y9         0.0953
      5 C21       -20.6730   22.6020   14.6600 C.3       1 3Y9        -0.0064
      6 N1        -22.2920   16.7320   23.3870 N.pl3     1 3Y9        -0.2068
      7 C6        -25.1100   16.8000   21.1670 C.2       1 3Y9         0.1366
      8 C7        -25.1810   15.6080   21.8540 C.2       1 3Y9         0.0390
      9 C8        -24.1570   15.4000   22.7740 C.2       1 3Y9         0.1590
     10 C9        -23.3970   16.5750   22.6320 C.2       1 3Y9         0.2721
     11 C14       -22.7790   18.3820   15.6070 C.ar      1 3Y9        -0.0485
     12 C16       -23.8030   17.5580   16.0380 C.ar      1 3Y9        -0.0544
     13 C2        -21.9120   15.7920   24.2590 C.cat     1 3Y9         0.1958
     14 N3        -22.6250   14.6630   24.4130 N.am      1 3Y9        -0.2566
     15 C4        -23.7330   14.4470   23.6880 C.2       1 3Y9         0.2163
     16 N5        -23.9980   17.3420   21.6990 N.pl3     1 3Y9        -0.1623
     17 O10       -24.3370   13.3900   23.8640 O.2       1 3Y9        -0.3846
     18 N11       -20.7430   15.9730   25.0480 N.pl3     1 3Y9        -0.3348
     19 C12       -21.4680   17.9280   15.6160 C.ar      1 3Y9         0.0428
     20 O18       -19.2980   18.5520   14.7370 O.2       1 3Y9        -0.3877
     21 N19       -20.7170   20.2920   15.3270 N.am      1 3Y9        -0.2716
     22 C22       -21.2690   22.5050   13.2740 C.3       1 3Y9         0.0038
     23 C23       -21.7460   23.8880   12.8790 C.2       1 3Y9         0.0350
     24 O24       -22.0460   24.1430   11.6830 O.co2     1 3Y9        -0.5690
     25 O25       -21.8440   24.7870   13.7560 O.co2     1 3Y9        -0.5690
     26 C26       -19.1200   21.7060   16.3010 C.2       1 3Y9         0.0601
     27 O27       -19.3990   21.0840   17.3650 O.co2     1 3Y9        -0.5666
     28 O28       -18.2360   22.6060   16.3080 O.co2     1 3Y9        -0.5666
     29 C29       -26.0190   17.3590   20.0900 C.3       1 3Y9         0.0448
     30 C30       -25.3760   17.1450   18.7220 C.3       1 3Y9        -0.0261
     31 C31       -25.1700   15.6660   18.4000 C.3       1 3Y9        -0.0385
     32 C32       -24.6610   15.4260   16.9800 C.3       1 3Y9        -0.0166
     33 C33       -23.5160   16.2830   16.4940 C.ar      1 3Y9        -0.0383
     34 H1        -20.1432   16.3054   16.1140 H         1 3Y9         0.0652
     35 H2        -21.9854   14.8246   16.8853 H         1 3Y9         0.0570
     36 H3        -19.1718   21.1146   14.2107 H         1 3Y9         0.0726
     37 H4        -20.0177   23.4845   14.7022 H         1 3Y9         0.0323
     38 H5        -21.4891   22.7161   15.3887 H         1 3Y9         0.0323
     39 H6        -21.7307   17.5903   23.2909 H         1 3Y9         0.2419
     40 H7        -25.9774   14.8836   21.6899 H         1 3Y9         0.0724
     41 H8        -23.0014   19.3851   15.2613 H         1 3Y9         0.0652
     42 H9        -24.8281   17.9100   16.0187 H         1 3Y9         0.0570
     43 H10       -22.3262   13.9762   25.0756 H         1 3Y9         0.1812
     44 H11       -23.6367   18.2645   21.4173 H         1 3Y9         0.2626
     45 H12       -20.1811   16.8303   24.9469 H         1 3Y9         0.1762
     46 H13       -20.4581   15.2468   25.7206 H         1 3Y9         0.1762
     47 H14       -21.6258   20.5042   15.6862 H         1 3Y9         0.1866
     48 H15       -22.1165   21.8038   13.2790 H         1 3Y9         0.0432
     49 H16       -20.5071   22.1543   12.5624 H         1 3Y9         0.0432
     50 H17       -26.1705   18.4352   20.2599 H         1 3Y9         0.0656
     51 H18       -26.9894   16.8422   20.1242 H         1 3Y9         0.0656
     52 H19       -24.3983   17.6489   18.7085 H         1 3Y9         0.0316
     53 H20       -26.0267   17.5866   17.9529 H         1 3Y9         0.0316
     54 H21       -26.1311   15.1446   18.5199 H         1 3Y9         0.0292
     55 H22       -24.4375   15.2523   19.1088 H         1 3Y9         0.0292
     56 H23       -25.5067   15.5875   16.2954 H         1 3Y9         0.0436
     57 H24       -24.3356   14.3770   16.9198 H         1 3Y9         0.0436
@<TRIPOS>BOND
     1    2    1 ar 
     2    1   19 ar 
     3   33    2 ar 
     4   19    3 1  
     5    3   20 2  
     6    3   21 am 
     7    4    5 1  
     8   21    4 1  
     9    4   26 1  
    10    5   22 1  
    11   10    6 1  
    12    6   13 ar 
    13    7    8 2  
    14    7   16 1  
    15   29    7 1  
    16    8    9 1  
    17   10    9 2  
    18    9   15 1  
    19   16   10 1  
    20   12   11 ar 
    21   11   19 ar 
    22   33   12 ar 
    23   13   14 ar 
    24   13   18 ar 
    25   15   14 am 
    26   15   17 2  
    27   22   23 1  
    28   23   24 ar 
    29   23   25 ar 
    30   26   27 ar 
    31   26   28 ar 
    32   30   29 1  
    33   31   30 1  
    34   32   31 1  
    35   32   33 1  
    36    1   34 1  
    37    2   35 1  
    38    4   36 1  
    39    5   37 1  
    40    5   38 1  
    41    6   39 1  
    42    8   40 1  
    43   11   41 1  
    44   12   42 1  
    45   14   43 1  
    46   16   44 1  
    47   18   45 1  
    48   18   46 1  
    49   21   47 1  
    50   22   48 1  
    51   22   49 1  
    52   29   50 1  
    53   29   51 1  
    54   30   52 1  
    55   30   53 1  
    56   31   54 1  
    57   31   55 1  
    58   32   56 1  
    59   32   57 1  
@<TRIPOS>SUBSTRUCTURE
     1 3Y9         1

