### 
### Created by X-TOOL on Mon Sep 10 21:13:27 2018
### 

@<TRIPOS>MOLECULE
4zyu_ligand
   56    58     1     0     0
SMALL
GAST_HUCK


@<TRIPOS>ATOM
      1 C13        21.8780  -16.0030  -34.4060 C.ar      1 3YA        -0.0485
      2 C14        23.2540  -17.9560  -34.7780 C.ar      1 3YA        -0.0485
      3 C16        24.3400  -17.2880  -34.2360 C.ar      1 3YA        -0.0544
      4 N1         22.3040  -17.1390  -27.0280 N.pl3     1 3YA        -0.2120
      5 C2         21.8970  -16.1220  -26.2580 C.cat     1 3YA         0.1980
      6 N3         22.5750  -14.9660  -26.1940 N.am      1 3YA        -0.2545
      7 C4         23.6990  -14.7460  -26.8970 C.2       1 3YA         0.2242
      8 S5         24.1630  -18.0070  -28.7620 S.3       1 3YA         0.1254
      9 C6         25.4330  -16.9740  -29.2070 C.2       1 3YA         0.1153
     10 C7         25.3100  -15.7660  -28.5360 C.2       1 3YA         0.0404
     11 C8         24.1890  -15.7470  -27.7220 C.2       1 3YA         0.1609
     12 C9         23.4220  -16.9040  -27.7210 C.2       1 3YA         0.2465
     13 O10        24.2690  -13.6650  -26.7860 O.2       1 3YA        -0.3801
     14 N11        20.7240  -16.2580  -25.4770 N.pl3     1 3YA        -0.3342
     15 C12        22.0270  -17.3080  -34.8660 C.ar      1 3YA         0.0428
     16 C17        20.8230  -18.0570  -35.4560 C.2       1 3YA         0.2016
     17 O18        20.7650  -18.3220  -36.6430 O.2       1 3YA        -0.3877
     18 N19        19.7850  -18.4350  -34.5630 N.am      1 3YA        -0.2716
     19 C20        18.6370  -19.1450  -35.0030 C.3       1 3YA         0.0953
     20 C21        18.3990  -20.2870  -34.0370 C.3       1 3YA        -0.0064
     21 C22        19.6420  -21.1490  -34.0200 C.3       1 3YA         0.0038
     22 C23        19.9680  -21.5460  -35.4460 C.2       1 3YA         0.0350
     23 O24        21.0290  -21.1520  -35.9990 O.co2     1 3YA        -0.5690
     24 O25        19.1680  -22.2730  -36.0890 O.co2     1 3YA        -0.5690
     25 C26        17.4180  -18.2480  -35.1160 C.2       1 3YA         0.0601
     26 O27        17.0380  -17.5580  -34.1300 O.co2     1 3YA        -0.5666
     27 O28        16.7790  -18.1930  -36.2030 O.co2     1 3YA        -0.5666
     28 C29        26.5240  -17.3520  -30.1770 C.3       1 3YA         0.0363
     29 C30        26.0540  -17.0660  -31.5930 C.3       1 3YA        -0.0260
     30 C31        25.6990  -15.5970  -31.7350 C.3       1 3YA        -0.0383
     31 C32        25.3790  -15.2670  -33.1820 C.3       1 3YA        -0.0166
     32 C33        24.1950  -15.9790  -33.7870 C.ar      1 3YA        -0.0383
     33 C15        22.9660  -15.3350  -33.8630 C.ar      1 3YA        -0.0544
     34 H1         20.9148  -15.5100  -34.4718 H         1 3YA         0.0652
     35 H2         23.3600  -18.9756  -35.1306 H         1 3YA         0.0652
     36 H3         25.3009  -17.7842  -34.1618 H         1 3YA         0.0570
     37 H4         21.7950  -18.0328  -27.0819 H         1 3YA         0.2446
     38 H5         22.2303  -14.2394  -25.5997 H         1 3YA         0.1815
     39 H6         26.0077  -14.9360  -28.6366 H         1 3YA         0.0811
     40 H7         20.1841  -17.1346  -25.5070 H         1 3YA         0.1764
     41 H8         20.4105  -15.4803  -24.8788 H         1 3YA         0.1764
     42 H9         19.8652  -18.1939  -33.5958 H         1 3YA         0.1866
     43 H10        18.8429  -19.5623  -35.9997 H         1 3YA         0.0726
     44 H11        17.5357  -20.8828  -34.3682 H         1 3YA         0.0323
     45 H12        18.2058  -19.8901  -33.0295 H         1 3YA         0.0323
     46 H13        19.4611  -22.0501  -33.4156 H         1 3YA         0.0432
     47 H14        20.4814  -20.5822  -33.5910 H         1 3YA         0.0432
     48 H15        26.7527  -18.4231  -30.0745 H         1 3YA         0.0665
     49 H16        27.4274  -16.7620  -29.9630 H         1 3YA         0.0665
     50 H17        25.1669  -17.6781  -31.8131 H         1 3YA         0.0319
     51 H18        26.8574  -17.3167  -32.3012 H         1 3YA         0.0319
     52 H19        26.5506  -14.9847  -31.4035 H         1 3YA         0.0292
     53 H20        24.8217  -15.3741  -31.1100 H         1 3YA         0.0292
     54 H21        26.2639  -15.5170  -33.7857 H         1 3YA         0.0436
     55 H22        25.1864  -14.1858  -33.2438 H         1 3YA         0.0436
     56 H23        22.8582  -14.3189  -33.5010 H         1 3YA         0.0570
@<TRIPOS>BOND
     1   15    1 ar 
     2    1   33 ar 
     3    3    2 ar 
     4    2   15 ar 
     5   32    3 ar 
     6    4    5 ar 
     7   12    4 1  
     8    6    5 ar 
     9    5   14 ar 
    10    7    6 am 
    11   11    7 1  
    12    7   13 2  
    13    9    8 1  
    14    8   12 1  
    15    9   10 2  
    16   28    9 1  
    17   10   11 1  
    18   11   12 2  
    19   15   16 1  
    20   16   17 2  
    21   16   18 am 
    22   18   19 1  
    23   19   20 1  
    24   19   25 1  
    25   20   21 1  
    26   21   22 1  
    27   22   23 ar 
    28   22   24 ar 
    29   25   26 ar 
    30   25   27 ar 
    31   29   28 1  
    32   30   29 1  
    33   31   30 1  
    34   31   32 1  
    35   32   33 ar 
    36    1   34 1  
    37    2   35 1  
    38    3   36 1  
    39    4   37 1  
    40    6   38 1  
    41   10   39 1  
    42   14   40 1  
    43   14   41 1  
    44   18   42 1  
    45   19   43 1  
    46   20   44 1  
    47   20   45 1  
    48   21   46 1  
    49   21   47 1  
    50   28   48 1  
    51   28   49 1  
    52   29   50 1  
    53   29   51 1  
    54   30   52 1  
    55   30   53 1  
    56   31   54 1  
    57   31   55 1  
    58   33   56 1  
@<TRIPOS>SUBSTRUCTURE
     1 3YA         1

