### 
### Created by X-TOOL on Mon Sep 10 21:13:26 2018
### 

@<TRIPOS>MOLECULE
4zyv_ligand
   53    55     1     0     0
SMALL
GAST_HUCK


@<TRIPOS>ATOM
      1 N1         15.2600   48.2600   60.6040 N.2       1 G71        -0.2869
      2 C2         15.6820   49.1630   59.7130 C.2       1 G71         0.2289
      3 N3         14.9910   50.2970   59.5170 N.am      1 G71        -0.1872
      4 C4         13.8610   50.5770   60.1980 C.2       1 G71         0.1988
      5 N5         13.5480   47.7150   62.2350 N.pl3     1 G71        -0.2805
      6 C6         12.4450   48.3250   62.6890 C.2       1 G71         0.0265
      7 C7         12.3080   49.5460   62.0150 C.2       1 G71        -0.0802
      8 C8         13.3940   49.6430   61.1330 C.2       1 G71         0.0223
      9 C9         14.1410   48.4690   61.3150 C.2       1 G71         0.0827
     10 O10        13.2080   51.7680   59.9480 O.2       1 G71        -0.4096
     11 N11        16.8740   48.9200   58.9670 N.pl3     1 G71        -0.2831
     12 S12        14.4890   47.1550   67.8280 S.3       1 G71        -0.0233
     13 C13        16.1080   47.3200   68.2280 C.2       1 G71         0.0886
     14 C14        16.4020   48.6860   68.0520 C.2       1 G71        -0.0678
     15 C15        15.3060   49.4990   67.6140 C.2       1 G71        -0.0676
     16 C16        14.1290   48.7540   67.4370 C.2       1 G71         0.0227
     17 C17        17.0370   46.2240   68.6450 C.2       1 G71         0.1990
     18 O18        18.2040   46.4860   68.8890 O.2       1 G71        -0.3975
     19 N19        16.5670   44.8680   68.7070 N.am      1 G71        -0.2742
     20 C20        17.4260   43.7770   69.0610 C.3       1 G71         0.0946
     21 C21        16.5950   42.5920   69.4400 C.3       1 G71        -0.0065
     22 C22        17.0040   42.0490   70.7690 C.3       1 G71         0.0038
     23 C23        15.8310   41.4510   71.4810 C.2       1 G71         0.0350
     24 O24        15.6690   40.2030   71.5160 O.co2     1 G71        -0.5690
     25 O25        14.9980   42.1970   72.0610 O.co2     1 G71        -0.5690
     26 C26        18.2740   43.4330   67.8690 C.2       1 G71         0.0600
     27 O27        19.2040   42.5870   67.9710 O.co2     1 G71        -0.5666
     28 O28        18.0710   43.9820   66.7470 O.co2     1 G71        -0.5666
     29 C29        11.5360   47.7870   63.7430 C.3       1 G71        -0.0045
     30 C30        12.2070   47.7860   65.0880 C.3       1 G71        -0.0407
     31 C31        12.6890   49.1480   65.4870 C.3       1 G71        -0.0382
     32 C32        12.8070   49.2770   66.9810 C.3       1 G71        -0.0021
     33 H1         15.3353   50.9761   58.8233 H         1 G71         0.2499
     34 H2         13.8870   46.7957   62.5526 H         1 G71         0.2286
     35 H3         11.5126   50.2775   62.1499 H         1 G71         0.0164
     36 H4         17.4062   48.0507   59.1154 H         1 G71         0.1885
     37 H5         17.2022   49.6139   58.2802 H         1 G71         0.1885
     38 H6         17.3938   49.0963   68.2360 H         1 G71         0.0489
     39 H7         15.3778   50.5714   67.4386 H         1 G71         0.0319
     40 H8         15.6080   44.6790   68.4960 H         1 G71         0.1856
     41 H9         18.0681   44.0652   69.9064 H         1 G71         0.0725
     42 H10        16.7194   41.8081   68.6784 H         1 G71         0.0323
     43 H11        15.5384   42.8945   69.4857 H         1 G71         0.0323
     44 H12        17.4195   42.8642   71.3796 H         1 G71         0.0432
     45 H13        17.7704   41.2738   70.6218 H         1 G71         0.0432
     46 H14        11.2535   46.7565   63.4819 H         1 G71         0.0424
     47 H15        10.6331   48.4134   63.7926 H         1 G71         0.0424
     48 H16        13.0684   47.1028   65.0526 H         1 G71         0.0288
     49 H17        11.4882   47.4310   65.8412 H         1 G71         0.0288
     50 H18        11.9767   49.9010   65.1187 H         1 G71         0.0294
     51 H19        13.6759   49.3244   65.0343 H         1 G71         0.0294
     52 H20        12.7176   50.3364   67.2631 H         1 G71         0.0476
     53 H21        12.0023   48.7006   67.4608 H         1 G71         0.0476
@<TRIPOS>BOND
     1    1    2 2  
     2    9    1 1  
     3    3    2 am 
     4    2   11 1  
     5    4    3 am 
     6    8    4 1  
     7    4   10 2  
     8    6    5 1  
     9    5    9 1  
    10    6    7 2  
    11   29    6 1  
    12    7    8 1  
    13    8    9 2  
    14   12   13 1  
    15   16   12 1  
    16   14   13 2  
    17   13   17 1  
    18   15   14 1  
    19   16   15 2  
    20   32   16 1  
    21   17   18 2  
    22   17   19 am 
    23   19   20 1  
    24   20   21 1  
    25   20   26 1  
    26   21   22 1  
    27   22   23 1  
    28   23   24 ar 
    29   23   25 ar 
    30   26   27 ar 
    31   26   28 ar 
    32   30   29 1  
    33   31   30 1  
    34   31   32 1  
    35    3   33 1  
    36    5   34 1  
    37    7   35 1  
    38   11   36 1  
    39   11   37 1  
    40   14   38 1  
    41   15   39 1  
    42   19   40 1  
    43   20   41 1  
    44   21   42 1  
    45   21   43 1  
    46   22   44 1  
    47   22   45 1  
    48   29   46 1  
    49   29   47 1  
    50   30   48 1  
    51   30   49 1  
    52   31   50 1  
    53   31   51 1  
    54   32   52 1  
    55   32   53 1  
@<TRIPOS>SUBSTRUCTURE
     1 G71         1

