### 
### Created by X-TOOL on Mon Sep 10 21:13:26 2018
### 

@<TRIPOS>MOLECULE
4zyw_ligand
   50    52     1     0     0
SMALL
GAST_HUCK


@<TRIPOS>ATOM
      1 N1         11.8600   76.1270  127.3810 N.2       1 G94        -0.2869
      2 C2         12.8890   76.2540  126.5560 C.2       1 G94         0.2289
      3 N3         13.5450   77.4220  126.4110 N.am      1 G94        -0.1872
      4 C4         13.1960   78.5150  127.1100 C.2       1 G94         0.1988
      5 N5         10.4420   77.2680  129.0020 N.pl3     1 G94        -0.2805
      6 C6         10.3930   78.5030  129.5020 C.2       1 G94         0.0267
      7 C7         11.4150   79.2960  128.9150 C.2       1 G94        -0.0802
      8 C8         12.0950   78.4210  128.0110 C.2       1 G94         0.0223
      9 C9         11.4340   77.1670  128.1250 C.2       1 G94         0.0827
     10 O10        13.9370   79.7340  126.9310 O.2       1 G94        -0.4096
     11 N11        13.3150   75.1550  125.7950 N.pl3     1 G94        -0.2831
     12 S12        10.6110   76.3830  134.3050 S.3       1 G94        -0.0233
     13 C13        11.7390   75.9240  135.5130 C.2       1 G94         0.0886
     14 C14        12.9300   76.6320  135.1860 C.2       1 G94        -0.0678
     15 C15        12.8460   77.4760  134.0220 C.2       1 G94        -0.0676
     16 C16        11.5740   77.4450  133.3990 C.2       1 G94         0.0228
     17 C17        11.7100   74.9860  136.7690 C.2       1 G94         0.1990
     18 O18        12.7790   74.9060  137.4090 O.2       1 G94        -0.3975
     19 N19        10.6390   74.1980  137.3490 N.am      1 G94        -0.2742
     20 C20         9.2830   74.0150  136.9220 C.3       1 G94         0.0946
     21 C21         9.1080   72.5620  136.6630 C.3       1 G94        -0.0065
     22 C22         8.8400   72.2320  135.2030 C.3       1 G94         0.0038
     23 C23        10.0930   72.1040  134.2970 C.2       1 G94         0.0350
     24 O24        10.0060   71.4840  133.1700 O.co2     1 G94        -0.5690
     25 O25        11.2340   72.6270  134.6720 O.co2     1 G94        -0.5690
     26 C26         8.3260   74.3990  138.0660 C.2       1 G94         0.0600
     27 O27         8.0250   75.6490  138.3060 O.co2     1 G94        -0.5666
     28 O28         7.8200   73.4700  138.7940 O.co2     1 G94        -0.5666
     29 C29         9.3620   78.9810  130.5630 C.3       1 G94        -0.0024
     30 C30         9.7320   78.4940  132.0080 C.3       1 G94        -0.0299
     31 C31        11.2300   78.2350  132.1610 C.3       1 G94        -0.0005
     32 H1         14.3092   77.4766  125.7683 H         1 G94         0.2499
     33 H2          9.8025   76.5025  129.2590 H         1 G94         0.2286
     34 H3         11.6336   80.3446  129.1112 H         1 G94         0.0164
     35 H4         12.8332   74.2490  125.8842 H         1 G94         0.1885
     36 H5         14.1095   75.2542  125.1471 H         1 G94         0.1885
     37 H6         13.8414   76.5417  135.7752 H         1 G94         0.0489
     38 H7         13.6771   78.0778  133.6572 H         1 G94         0.0319
     39 H8         10.8868   73.7023  138.1814 H         1 G94         0.1856
     40 H9          9.0718   74.6100  136.0212 H         1 G94         0.0725
     41 H10         8.2590   72.2016  137.2625 H         1 G94         0.0323
     42 H11        10.0248   72.0402  136.9748 H         1 G94         0.0323
     43 H12         8.2042   73.0282  134.7885 H         1 G94         0.0432
     44 H13         8.2990   71.2749  135.1674 H         1 G94         0.0432
     45 H14         8.3708   78.5843  130.2981 H         1 G94         0.0426
     46 H15         9.3306   80.0805  130.5567 H         1 G94         0.0426
     47 H16         9.1875   77.5617  132.2184 H         1 G94         0.0314
     48 H17         9.4299   79.2662  132.7308 H         1 G94         0.0314
     49 H18        11.5794   77.6752  131.2809 H         1 G94         0.0478
     50 H19        11.7489   79.2037  132.2092 H         1 G94         0.0478
@<TRIPOS>BOND
     1    1    2 2  
     2    9    1 1  
     3    3    2 am 
     4    2   11 1  
     5    4    3 am 
     6    8    4 1  
     7    4   10 2  
     8    6    5 1  
     9    5    9 1  
    10    6    7 2  
    11   29    6 1  
    12    7    8 1  
    13    8    9 2  
    14   12   13 1  
    15   16   12 1  
    16   14   13 2  
    17   13   17 1  
    18   15   14 1  
    19   16   15 2  
    20   31   16 1  
    21   17   18 2  
    22   17   19 am 
    23   19   20 1  
    24   20   21 1  
    25   20   26 1  
    26   21   22 1  
    27   22   23 1  
    28   23   24 ar 
    29   23   25 ar 
    30   26   27 ar 
    31   26   28 ar 
    32   30   29 1  
    33   30   31 1  
    34    3   32 1  
    35    5   33 1  
    36    7   34 1  
    37   11   35 1  
    38   11   36 1  
    39   14   37 1  
    40   15   38 1  
    41   19   39 1  
    42   20   40 1  
    43   21   41 1  
    44   21   42 1  
    45   22   43 1  
    46   22   44 1  
    47   29   45 1  
    48   29   46 1  
    49   30   47 1  
    50   30   48 1  
    51   31   49 1  
    52   31   50 1  
@<TRIPOS>SUBSTRUCTURE
     1 G94         1

