### 
### Created by X-TOOL on Mon Sep 10 21:13:26 2018
### 

@<TRIPOS>MOLECULE
4zyx_ligand
   54    56     1     0     0
SMALL
GAST_HUCK


@<TRIPOS>ATOM
      1 N1        -22.2790   16.8580   23.7540 N.pl3     1 3YB        -0.2068
      2 C2        -21.8590   15.8350   24.5000 C.cat     1 3YB         0.1958
      3 N3        -22.5880   14.7100   24.6020 N.am      1 3YB        -0.2566
      4 C4        -23.7620   14.5570   23.9400 C.2       1 3YB         0.2163
      5 N5        -24.0280   17.6570   22.2890 N.pl3     1 3YB        -0.1623
      6 C6        -25.1800   17.1520   21.8050 C.2       1 3YB         0.1366
      7 C7        -25.3520   15.8760   22.3360 C.2       1 3YB         0.0390
      8 C8        -24.2280   15.6150   23.1520 C.2       1 3YB         0.1590
      9 C9        -23.4390   16.7750   23.0760 C.2       1 3YB         0.2721
     10 O10       -24.3660   13.4880   24.0790 O.2       1 3YB        -0.3846
     11 N11       -20.6280   15.9230   25.2190 N.pl3     1 3YB        -0.3348
     12 C12       -22.9640   17.0150   16.6820 C.2       1 3YB        -0.0498
     13 C13       -21.7310   16.6910   16.2040 C.2       1 3YB         0.0968
     14 S14       -21.6620   14.9930   16.3340 S.3       1 3YB        -0.0381
     15 C15       -23.2090   14.7070   17.0020 C.2       1 3YB        -0.0046
     16 C16       -23.7810   15.9380   17.1130 C.2       1 3YB        -0.0503
     17 C17       -20.7030   17.5860   15.7160 C.2       1 3YB         0.2089
     18 O18       -19.7160   17.1050   15.1820 O.2       1 3YB        -0.3907
     19 N19       -20.8320   19.0060   15.8880 N.am      1 3YB        -0.2721
     20 C20       -19.8830   19.8710   15.4580 C.3       1 3YB         0.0949
     21 C21       -20.4570   20.9590   14.7560 C.3       1 3YB        -0.0065
     22 C22       -21.6910   20.5560   14.0280 C.3       1 3YB         0.0038
     23 C23       -22.3480   21.7740   13.4650 C.2       1 3YB         0.0350
     24 O24       -22.2020   22.8960   14.0290 O.co2     1 3YB        -0.5690
     25 O25       -23.0500   21.6740   12.4240 O.co2     1 3YB        -0.5690
     26 C26       -19.1570   20.4110   16.5460 C.2       1 3YB         0.0601
     27 O27       -17.9670   20.7880   16.3710 O.co2     1 3YB        -0.5666
     28 O28       -19.6770   20.5400   17.6910 O.co2     1 3YB        -0.5666
     29 C29       -26.1060   17.8780   20.8880 C.3       1 3YB         0.0448
     30 C30       -26.2840   17.0920   19.6230 C.3       1 3YB        -0.0266
     31 C31       -24.9750   16.9510   18.9350 C.3       1 3YB        -0.0424
     32 C32       -25.1440   16.1660   17.6680 C.3       1 3YB        -0.0293
     33 H1        -21.7125   17.7163   23.6964 H         1 3YB         0.2419
     34 H2        -22.2558   13.9659   25.1816 H         1 3YB         0.1812
     35 H3        -23.6601   18.5952   22.0759 H         1 3YB         0.2626
     36 H4        -26.1923   15.2070   22.1566 H         1 3YB         0.0724
     37 H5        -20.0540   16.7758   25.1549 H         1 3YB         0.1762
     38 H6        -20.3143   15.1336   25.8016 H         1 3YB         0.1762
     39 H7        -23.3056   18.0479   16.7310 H         1 3YB         0.0501
     40 H8        -23.6435   13.7476   17.2790 H         1 3YB         0.0661
     41 H9        -21.6480   19.3672   16.3393 H         1 3YB         0.1860
     42 H10       -19.1939   19.3314   14.7917 H         1 3YB         0.0726
     43 H11       -19.7241   21.3413   14.0303 H         1 3YB         0.0323
     44 H12       -20.7102   21.7527   15.4743 H         1 3YB         0.0323
     45 H13       -22.3805   20.0536   14.7223 H         1 3YB         0.0432
     46 H14       -21.4282   19.8685   13.2106 H         1 3YB         0.0432
     47 H15       -25.6841   18.8653   20.6487 H         1 3YB         0.0656
     48 H16       -27.0818   18.0056   21.3795 H         1 3YB         0.0656
     49 H17       -26.9900   17.6166   18.9624 H         1 3YB         0.0316
     50 H18       -26.6798   16.0945   19.8645 H         1 3YB         0.0316
     51 H19       -24.2700   16.4269   19.5970 H         1 3YB         0.0285
     52 H20       -24.5800   17.9492   18.6952 H         1 3YB         0.0285
     53 H21       -25.6308   15.2031   17.8821 H         1 3YB         0.0379
     54 H22       -25.7542   16.7338   16.9502 H         1 3YB         0.0379
@<TRIPOS>BOND
     1    1    2 ar 
     2    9    1 1  
     3    3    2 ar 
     4    2   11 ar 
     5    4    3 am 
     6    8    4 1  
     7    4   10 2  
     8    6    5 1  
     9    5    9 1  
    10    6    7 2  
    11   29    6 1  
    12    7    8 1  
    13    8    9 2  
    14   12   13 2  
    15   16   12 1  
    16   14   13 1  
    17   13   17 1  
    18   15   14 1  
    19   16   15 2  
    20   32   16 1  
    21   17   18 2  
    22   17   19 am 
    23   19   20 1  
    24   20   21 1  
    25   20   26 1  
    26   21   22 1  
    27   22   23 1  
    28   23   24 ar 
    29   23   25 ar 
    30   26   27 ar 
    31   26   28 ar 
    32   30   29 1  
    33   31   30 1  
    34   31   32 1  
    35    1   33 1  
    36    3   34 1  
    37    5   35 1  
    38    7   36 1  
    39   11   37 1  
    40   11   38 1  
    41   12   39 1  
    42   15   40 1  
    43   19   41 1  
    44   20   42 1  
    45   21   43 1  
    46   21   44 1  
    47   22   45 1  
    48   22   46 1  
    49   29   47 1  
    50   29   48 1  
    51   30   49 1  
    52   30   50 1  
    53   31   51 1  
    54   31   52 1  
    55   32   53 1  
    56   32   54 1  
@<TRIPOS>SUBSTRUCTURE
     1 3YB         1

