### 
### Created by X-TOOL on Mon Sep 10 21:13:27 2018
### 

@<TRIPOS>MOLECULE
4zyy_ligand
   54    56     1     0     0
SMALL
GAST_HUCK


@<TRIPOS>ATOM
      1 N1         25.6940  -10.7300   26.8370 N.pl3     1 3YC        -0.2068
      2 C2         24.5990  -10.8590   26.0900 C.cat     1 3YC         0.1958
      3 N3         23.9760  -12.0470   25.9960 N.am      1 3YC        -0.2566
      4 C4         24.4180  -13.1390   26.6640 C.2       1 3YC         0.2163
      5 N5         27.2390  -11.8710   28.3160 N.pl3     1 3YC        -0.1623
      6 C6         27.3530  -13.1150   28.7880 C.2       1 3YC         0.1366
      7 C7         26.3150  -13.8870   28.2700 C.2       1 3YC         0.0390
      8 C8         25.5600  -13.0240   27.4510 C.2       1 3YC         0.1590
      9 C9         26.1820  -11.7740   27.5230 C.2       1 3YC         0.2721
     10 O10        23.8120  -14.1970   26.5550 O.2       1 3YC        -0.3846
     11 N11        24.0920   -9.7330   25.3720 N.pl3     1 3YC        -0.3348
     12 C12        26.3990  -11.0470   33.9710 C.2       1 3YC        -0.0637
     13 C13        25.3940  -10.1610   34.4150 C.2       1 3YC         0.0217
     14 C14        24.1150  -10.6340   34.3740 C.2       1 3YC         0.0077
     15 S15        24.2370  -12.2210   33.7520 S.3       1 3YC        -0.0325
     16 C16        25.9310  -12.2580   33.5740 C.2       1 3YC         0.0162
     17 C17        25.7210   -8.8320   34.8610 C.2       1 3YC         0.1872
     18 O18        24.8620   -8.1400   35.3870 O.2       1 3YC        -0.3937
     19 N19        27.0510   -8.3350   34.6490 N.am      1 3YC        -0.2737
     20 C20        27.4530   -7.0990   35.0180 C.3       1 3YC         0.0950
     21 C21        28.8150   -7.1470   35.4020 C.3       1 3YC        -0.0064
     22 C22        28.9530   -7.3520   36.8710 C.3       1 3YC         0.0038
     23 C23        30.3210   -7.8720   37.1620 C.2       1 3YC         0.0350
     24 O24        31.3360   -7.2460   36.7480 O.co2     1 3YC        -0.5690
     25 O25        30.4590   -8.9400   37.8190 O.co2     1 3YC        -0.5690
     26 C26        27.3360   -6.1980   33.9340 C.2       1 3YC         0.0601
     27 O27        26.8700   -5.0450   34.1330 O.co2     1 3YC        -0.5666
     28 O28        27.6990   -6.5250   32.7670 O.co2     1 3YC        -0.5666
     29 C29        28.4200  -13.5860   29.7070 C.3       1 3YC         0.0448
     30 C30        27.7840  -14.0720   30.9650 C.3       1 3YC        -0.0259
     31 C31        27.3550  -12.8980   31.7680 C.3       1 3YC        -0.0374
     32 C32        26.7610  -13.3750   33.0510 C.3       1 3YC        -0.0069
     33 H1         26.1712   -9.8187   26.8884 H         1 3YC         0.2419
     34 H2         23.1644  -12.1263   25.4172 H         1 3YC         0.1812
     35 H3         27.8815  -11.0969   28.5370 H         1 3YC         0.2626
     36 H4         26.1258  -14.9426   28.4596 H         1 3YC         0.0724
     37 H5         24.5666   -8.8215   25.4417 H         1 3YC         0.1762
     38 H6         23.2518   -9.8325   24.7846 H         1 3YC         0.1762
     39 H7         27.4553  -10.7829   33.9489 H         1 3YC         0.0295
     40 H8         23.2082  -10.1109   34.6741 H         1 3YC         0.0727
     41 H9         27.7155   -8.9357   34.2044 H         1 3YC         0.1863
     42 H10        26.8375   -6.7490   35.8598 H         1 3YC         0.0726
     43 H11        29.2997   -6.1993   35.1248 H         1 3YC         0.0323
     44 H12        29.3072   -7.9782   34.8759 H         1 3YC         0.0323
     45 H13        28.2016   -8.0783   37.2143 H         1 3YC         0.0432
     46 H14        28.8034   -6.3952   37.3927 H         1 3YC         0.0432
     47 H15        29.1056  -12.7565   29.9349 H         1 3YC         0.0656
     48 H16        28.9807  -14.4060   29.2345 H         1 3YC         0.0656
     49 H17        28.5084  -14.6681   31.5393 H         1 3YC         0.0316
     50 H18        26.9093  -14.6929   30.7213 H         1 3YC         0.0316
     51 H19        26.6048  -12.3219   31.2065 H         1 3YC         0.0294
     52 H20        28.2248  -12.2589   31.9800 H         1 3YC         0.0294
     53 H21        26.1355  -14.2622   32.8732 H         1 3YC         0.0452
     54 H22        27.5567  -13.6251   33.7681 H         1 3YC         0.0452
@<TRIPOS>BOND
     1    1    2 ar 
     2    9    1 1  
     3    3    2 ar 
     4    2   11 ar 
     5    4    3 am 
     6    8    4 1  
     7    4   10 2  
     8    6    5 1  
     9    5    9 1  
    10    6    7 2  
    11   29    6 1  
    12    7    8 1  
    13    8    9 2  
    14   12   13 1  
    15   16   12 2  
    16   14   13 2  
    17   13   17 1  
    18   15   14 1  
    19   16   15 1  
    20   32   16 1  
    21   17   18 2  
    22   17   19 am 
    23   19   20 1  
    24   20   21 1  
    25   20   26 1  
    26   21   22 1  
    27   22   23 1  
    28   23   24 ar 
    29   23   25 ar 
    30   26   27 ar 
    31   26   28 ar 
    32   30   29 1  
    33   31   30 1  
    34   31   32 1  
    35    1   33 1  
    36    3   34 1  
    37    5   35 1  
    38    7   36 1  
    39   11   37 1  
    40   11   38 1  
    41   12   39 1  
    42   14   40 1  
    43   19   41 1  
    44   20   42 1  
    45   21   43 1  
    46   21   44 1  
    47   22   45 1  
    48   22   46 1  
    49   29   47 1  
    50   29   48 1  
    51   30   49 1  
    52   30   50 1  
    53   31   51 1  
    54   31   52 1  
    55   32   53 1  
    56   32   54 1  
@<TRIPOS>SUBSTRUCTURE
     1 3YC         1

