### 
### Created by X-TOOL on Mon Sep 10 21:13:26 2018
### 

@<TRIPOS>MOLECULE
4zyz_ligand
   53    54     1     0     0
SMALL
GAST_HUCK


@<TRIPOS>ATOM
      1 N1        -22.3710   16.9520   23.8900 N.pl3     1 3YD        -0.2068
      2 C2        -21.9590   15.8880   24.6740 C.cat     1 3YD         0.1958
      3 N3        -22.7530   14.7120   24.7690 N.am      1 3YD        -0.2566
      4 C4        -23.9090   14.5640   24.0160 C.2       1 3YD         0.2163
      5 N5        -24.2120   17.5770   22.3450 N.pl3     1 3YD        -0.1623
      6 C6        -25.2530   17.0840   21.8790 C.2       1 3YD         0.1366
      7 C7        -25.4060   15.9120   22.3580 C.2       1 3YD         0.0390
      8 C8        -24.3400   15.5890   23.2370 C.2       1 3YD         0.1590
      9 C9        -23.4900   16.8110   23.2030 C.2       1 3YD         0.2721
     10 O10       -24.5030   13.5040   24.1350 O.2       1 3YD        -0.3846
     11 N11       -20.7620   15.9810   25.4380 N.pl3     1 3YD        -0.3348
     12 C12       -22.0020   18.2750   16.9360 C.3       1 3YD         0.0373
     13 C13       -22.9680   17.0750   17.0780 C.3       1 3YD        -0.0361
     14 C14       -24.3690   17.5320   17.5560 C.3       1 3YD        -0.0507
     15 C15       -24.4900   17.3780   19.0800 C.3       1 3YD        -0.0488
     16 C16       -25.9710   17.2130   19.4750 C.3       1 3YD        -0.0280
     17 C17       -20.9210   17.9100   15.8870 C.2       1 3YD         0.1777
     18 O18       -20.9900   16.8060   15.3940 O.2       1 3YD        -0.3970
     19 N19       -19.8350   18.7720   15.4440 N.am      1 3YD        -0.2713
     20 C20       -19.4910   20.1260   15.8410 C.3       1 3YD         0.0958
     21 C21       -20.6340   21.0930   15.6850 C.3       1 3YD        -0.0064
     22 C22       -20.8270   21.5460   14.2420 C.3       1 3YD         0.0038
     23 C23       -22.1120   22.3490   14.1730 C.2       1 3YD         0.0350
     24 O24       -23.1860   21.7870   13.8230 O.co2     1 3YD        -0.5690
     25 O25       -22.1110   23.5730   14.4680 O.co2     1 3YD        -0.5690
     26 C26       -18.9660   20.1940   17.2540 C.2       1 3YD         0.0602
     27 O27       -17.8200   19.7580   17.5160 O.co2     1 3YD        -0.5666
     28 O28       -19.6650   20.7090   18.1700 O.co2     1 3YD        -0.5666
     29 C29       -26.2180   17.7620   20.8900 C.3       1 3YD         0.0446
     30 H1        -21.8238   17.8234   23.8441 H         1 3YD         0.2419
     31 H2        -22.4734   13.9791   25.3892 H         1 3YD         0.1812
     32 H3        -23.9090   18.5280   22.0909 H         1 3YD         0.2626
     33 H4        -26.2393   15.2508   22.1247 H         1 3YD         0.0724
     34 H5        -20.1776   16.8271   25.3786 H         1 3YD         0.1762
     35 H6        -20.4801   15.2022   26.0503 H         1 3YD         0.1762
     36 H7        -21.5243   18.4843   17.9045 H         1 3YD         0.0502
     37 H8        -22.5589   19.1630   16.6023 H         1 3YD         0.0502
     38 H9        -22.5535   16.3663   17.8100 H         1 3YD         0.0290
     39 H10       -23.0673   16.5778   16.1018 H         1 3YD         0.0290
     40 H11       -25.1379   16.9158   17.0671 H         1 3YD         0.0267
     41 H12       -24.5181   18.5876   17.2852 H         1 3YD         0.0267
     42 H13       -24.0792   18.2727   19.5707 H         1 3YD         0.0269
     43 H14       -23.9255   16.4908   19.4029 H         1 3YD         0.0269
     44 H15       -26.2350   16.1455   19.4503 H         1 3YD         0.0315
     45 H16       -26.5996   17.7629   18.7591 H         1 3YD         0.0315
     46 H17       -19.2301   18.3680   14.7578 H         1 3YD         0.1875
     47 H18       -18.6844   20.4591   15.1714 H         1 3YD         0.0727
     48 H19       -20.4346   21.9774   16.3080 H         1 3YD         0.0323
     49 H20       -21.5581   20.6042   16.0272 H         1 3YD         0.0323
     50 H21       -20.8983   20.6693   13.5815 H         1 3YD         0.0432
     51 H22       -19.9780   22.1720   13.9301 H         1 3YD         0.0432
     52 H23       -26.0465   18.8485   20.8968 H         1 3YD         0.0656
     53 H24       -27.2558   17.5527   21.1885 H         1 3YD         0.0656
@<TRIPOS>BOND
     1    1    2 ar 
     2    9    1 1  
     3    3    2 ar 
     4    2   11 ar 
     5    4    3 am 
     6    8    4 1  
     7    4   10 2  
     8    6    5 1  
     9    5    9 1  
    10    6    7 2  
    11   29    6 1  
    12    7    8 1  
    13    8    9 2  
    14   13   12 1  
    15   12   17 1  
    16   14   13 1  
    17   15   14 1  
    18   16   15 1  
    19   16   29 1  
    20   17   18 2  
    21   17   19 am 
    22   19   20 1  
    23   20   21 1  
    24   20   26 1  
    25   21   22 1  
    26   22   23 1  
    27   23   24 ar 
    28   23   25 ar 
    29   26   27 ar 
    30   26   28 ar 
    31    1   30 1  
    32    3   31 1  
    33    5   32 1  
    34    7   33 1  
    35   11   34 1  
    36   11   35 1  
    37   12   36 1  
    38   12   37 1  
    39   13   38 1  
    40   13   39 1  
    41   14   40 1  
    42   14   41 1  
    43   15   42 1  
    44   15   43 1  
    45   16   44 1  
    46   16   45 1  
    47   19   46 1  
    48   20   47 1  
    49   21   48 1  
    50   21   49 1  
    51   22   50 1  
    52   22   51 1  
    53   29   52 1  
    54   29   53 1  
@<TRIPOS>SUBSTRUCTURE
     1 3YD         1

