### 
### Created by X-TOOL on Mon Sep 10 21:13:26 2018
### 

@<TRIPOS>MOLECULE
4zz0_ligand
   56    57     1     0     0
SMALL
GAST_HUCK


@<TRIPOS>ATOM
      1 N1        -22.2130   16.9110  -26.4850 N.pl3     1 3YE        -0.2068
      2 C2        -21.7980   15.8740  -25.6850 C.cat     1 3YE         0.1958
      3 N3        -22.5370   14.7090  -25.6070 N.am      1 3YE        -0.2566
      4 C4        -23.6930   14.5650  -26.3540 C.2       1 3YE         0.2163
      5 N5        -23.9890   17.6720  -28.1160 N.pl3     1 3YE        -0.1623
      6 C6        -25.0650   17.0530  -28.5840 C.2       1 3YE         0.1366
      7 C7        -25.1760   15.8670  -28.0510 C.2       1 3YE         0.0390
      8 C8        -24.1360   15.6130  -27.1870 C.2       1 3YE         0.1590
      9 C9        -23.3290   16.7930  -27.2180 C.2       1 3YE         0.2721
     10 O10       -24.2880   13.5090  -26.2370 O.2       1 3YE        -0.3846
     11 N11       -20.6250   16.0090  -24.9210 N.pl3     1 3YE        -0.3348
     12 C12       -21.9540   17.1510  -35.7110 C.3       1 3YE         0.0373
     13 C13       -22.2440   16.4520  -34.3650 C.3       1 3YE        -0.0361
     14 C14       -23.0840   17.4220  -33.5070 C.3       1 3YE        -0.0510
     15 C17       -20.8730   18.2250  -35.5210 C.2       1 3YE         0.1777
     16 O18       -20.8420   19.1820  -36.2960 O.2       1 3YE        -0.3970
     17 N19       -19.9220   18.0740  -34.4290 N.am      1 3YE        -0.2713
     18 C20       -18.8510   19.0110  -34.1320 C.3       1 3YE         0.0958
     19 C21       -17.9370   19.1790  -35.3290 C.3       1 3YE        -0.0064
     20 C22       -17.5290   17.8060  -35.8480 C.3       1 3YE         0.0038
     21 C23       -17.6900   17.7530  -37.3450 C.2       1 3YE         0.0350
     22 O24       -17.9790   18.8090  -37.9920 O.co2     1 3YE        -0.5690
     23 O25       -17.5340   16.6490  -37.9660 O.co2     1 3YE        -0.5690
     24 C26       -19.4090   20.3360  -33.6710 C.2       1 3YE         0.0602
     25 O27       -19.2050   20.7260  -32.4770 O.co2     1 3YE        -0.5666
     26 O28       -20.0770   21.0550  -34.4580 O.co2     1 3YE        -0.5666
     27 C29       -26.0530   17.6690  -29.5810 C.3       1 3YE         0.0446
     28 C30       -25.8550   17.0590  -30.9380 C.3       1 3YE        -0.0280
     29 C16       -24.4900   17.4390  -31.4460 C.3       1 3YE        -0.0490
     30 C15       -24.1700   16.6330  -32.7210 C.3       1 3YE        -0.0526
     31 H1        -21.6646   17.7821  -26.5216 H         1 3YE         0.2419
     32 H2        -22.2352   13.9670  -25.0084 H         1 3YE         0.1812
     33 H3        -23.6853   18.6250  -28.3617 H         1 3YE         0.2626
     34 H4        -25.9855   15.1699  -28.2624 H         1 3YE         0.0724
     35 H5        -20.0713   16.8758  -24.9763 H         1 3YE         0.1762
     36 H6        -20.3196   15.2411  -24.3062 H         1 3YE         0.1762
     37 H7        -22.8754   17.6230  -36.0827 H         1 3YE         0.0502
     38 H8        -21.6035   16.4061  -36.4406 H         1 3YE         0.0502
     39 H9        -21.2992   16.2194  -33.8519 H         1 3YE         0.0290
     40 H10       -22.8056   15.5222  -34.5385 H         1 3YE         0.0290
     41 H11       -23.5718   18.1588  -34.1621 H         1 3YE         0.0267
     42 H12       -22.4258   17.9426  -32.7958 H         1 3YE         0.0267
     43 H13       -20.0118   17.2693  -33.8421 H         1 3YE         0.1875
     44 H14       -18.2535   18.5930  -33.3084 H         1 3YE         0.0727
     45 H15       -17.0395   19.7403  -35.0300 H         1 3YE         0.0323
     46 H16       -18.4663   19.7287  -36.1212 H         1 3YE         0.0323
     47 H17       -18.1660   17.0376  -35.3856 H         1 3YE         0.0432
     48 H18       -16.4773   17.6158  -35.5877 H         1 3YE         0.0432
     49 H19       -25.8827   18.7541  -29.6404 H         1 3YE         0.0656
     50 H20       -27.0815   17.4773  -29.2413 H         1 3YE         0.0656
     51 H21       -26.6243   17.4352  -31.6283 H         1 3YE         0.0315
     52 H22       -25.9310   15.9640  -30.8658 H         1 3YE         0.0315
     53 H23       -23.7376   17.2179  -30.6746 H         1 3YE         0.0269
     54 H24       -24.4720   18.5140  -31.6783 H         1 3YE         0.0269
     55 H25       -23.7899   15.6367  -32.4509 H         1 3YE         0.0265
     56 H26       -25.0759   16.5256  -33.3356 H         1 3YE         0.0265
@<TRIPOS>BOND
     1    1    2 ar 
     2    9    1 1  
     3    3    2 ar 
     4    2   11 ar 
     5    4    3 am 
     6    8    4 1  
     7    4   10 2  
     8    6    5 1  
     9    5    9 1  
    10    6    7 2  
    11   27    6 1  
    12    7    8 1  
    13    8    9 2  
    14   13   12 1  
    15   12   15 1  
    16   14   13 1  
    17   30   14 1  
    18   15   16 2  
    19   15   17 am 
    20   17   18 1  
    21   18   19 1  
    22   18   24 1  
    23   19   20 1  
    24   20   21 1  
    25   21   22 ar 
    26   21   23 ar 
    27   24   25 ar 
    28   24   26 ar 
    29   28   27 1  
    30   29   28 1  
    31   29   30 1  
    32    1   31 1  
    33    3   32 1  
    34    5   33 1  
    35    7   34 1  
    36   11   35 1  
    37   11   36 1  
    38   12   37 1  
    39   12   38 1  
    40   13   39 1  
    41   13   40 1  
    42   14   41 1  
    43   14   42 1  
    44   17   43 1  
    45   18   44 1  
    46   19   45 1  
    47   19   46 1  
    48   20   47 1  
    49   20   48 1  
    50   27   49 1  
    51   27   50 1  
    52   28   51 1  
    53   28   52 1  
    54   29   53 1  
    55   29   54 1  
    56   30   55 1  
    57   30   56 1  
@<TRIPOS>SUBSTRUCTURE
     1 3YE         1

