### 
### Created by X-TOOL on Mon Sep 10 21:13:20 2018
### 

@<TRIPOS>MOLECULE
4zz1_ligand
   51    53     1     0     0
SMALL
GAST_HUCK


@<TRIPOS>ATOM
      1 N1         25.6520  -10.8740  -23.8710 N.pl3     1 3YF        -0.2068
      2 C2         24.5820  -11.0170  -24.6440 C.cat     1 3YF         0.1958
      3 N3         23.9470  -12.1960  -24.7730 N.am      1 3YF        -0.2566
      4 C4         24.3830  -13.3070  -24.1400 C.2       1 3YF         0.2163
      5 N5         27.2010  -12.0270  -22.3820 N.pl3     1 3YF        -0.1623
      6 C6         27.3310  -13.2700  -21.9270 C.2       1 3YF         0.1368
      7 C7         26.3090  -14.0720  -22.4850 C.2       1 3YF         0.0390
      8 C8         25.5360  -13.2000  -23.3040 C.2       1 3YF         0.1590
      9 C9         26.1590  -11.9320  -23.1960 C.2       1 3YF         0.2721
     10 O10        23.8010  -14.3860  -24.2700 O.2       1 3YF        -0.3846
     11 N11        24.0790   -9.9060  -25.3250 N.pl3     1 3YF        -0.3348
     12 C12        26.1330  -11.4310  -17.5810 C.2       1 3YF        -0.0498
     13 C13        25.4000  -10.9250  -16.5390 C.2       1 3YF         0.0968
     14 S14        24.2060  -12.0790  -16.1900 S.3       1 3YF        -0.0381
     15 C15        24.6630  -13.2210  -17.3810 C.2       1 3YF        -0.0046
     16 C16        25.7420  -12.7070  -18.0570 C.2       1 3YF        -0.0499
     17 C17        25.5640   -9.6680  -15.8570 C.2       1 3YF         0.2089
     18 O18        24.6730   -9.2630  -15.0880 O.2       1 3YF        -0.3907
     19 N19        26.7560   -8.9200  -16.0900 N.am      1 3YF        -0.2721
     20 C20        26.9240   -7.6640  -15.4220 C.3       1 3YF         0.0949
     21 C21        28.1350   -7.7210  -14.5710 C.3       1 3YF        -0.0065
     22 C22        27.8740   -8.5250  -13.3050 C.3       1 3YF         0.0038
     23 C23        29.1800   -8.9830  -12.6130 C.2       1 3YF         0.0350
     24 O24        29.2340  -10.1280  -12.0330 O.co2     1 3YF        -0.5690
     25 O25        30.2290   -8.2000  -12.6180 O.co2     1 3YF        -0.5690
     26 C26        27.0690   -6.5900  -16.5010 C.2       1 3YF         0.0601
     27 O27        26.6820   -5.3740  -16.2540 O.co2     1 3YF        -0.5666
     28 O28        27.5590   -6.8950  -17.6480 O.co2     1 3YF        -0.5666
     29 C29        28.4160  -13.6830  -20.9080 C.3       1 3YF         0.0460
     30 C30        27.9070  -13.1030  -19.5180 C.3       1 3YF        -0.0214
     31 C31        26.4250  -13.4230  -19.2260 C.3       1 3YF        -0.0255
     32 H1         26.0999   -9.9505  -23.7843 H         1 3YF         0.2419
     33 H2         23.1329  -12.2513  -25.3512 H         1 3YF         0.1812
     34 H3         27.8246  -11.2452  -22.1356 H         1 3YF         0.2626
     35 H4         26.1464  -15.1364  -22.3222 H         1 3YF         0.0724
     36 H5         24.5495   -8.9936  -25.2404 H         1 3YF         0.1762
     37 H6         23.2376   -9.9991  -25.9118 H         1 3YF         0.1762
     38 H7         26.9674  -10.8840  -18.0176 H         1 3YF         0.0501
     39 H8         24.1846  -14.1811  -17.5684 H         1 3YF         0.0661
     40 H9         27.4615   -9.2661  -16.7084 H         1 3YF         0.1860
     41 H10        26.0460   -7.4476  -14.7957 H         1 3YF         0.0726
     42 H11        28.4282   -6.6978  -14.2934 H         1 3YF         0.0323
     43 H12        28.9504   -8.1954  -15.1368 H         1 3YF         0.0323
     44 H13        27.2835   -9.4150  -13.5680 H         1 3YF         0.0432
     45 H14        27.3029   -7.9006  -12.6022 H         1 3YF         0.0432
     46 H15        29.3884  -13.2453  -21.1781 H         1 3YF         0.0658
     47 H16        28.5072  -14.7782  -20.8611 H         1 3YF         0.0658
     48 H17        28.0321  -12.0102  -19.5293 H         1 3YF         0.0332
     49 H18        28.5217  -13.5341  -18.7141 H         1 3YF         0.0332
     50 H19        25.8546  -13.1795  -20.1345 H         1 3YF         0.0383
     51 H20        26.3582  -14.5032  -19.0295 H         1 3YF         0.0383
@<TRIPOS>BOND
     1    1    2 ar 
     2    9    1 1  
     3    3    2 ar 
     4    2   11 ar 
     5    4    3 am 
     6    8    4 1  
     7    4   10 2  
     8    6    5 1  
     9    5    9 1  
    10    6    7 2  
    11   29    6 1  
    12    7    8 1  
    13    8    9 2  
    14   12   13 2  
    15   16   12 1  
    16   14   13 1  
    17   13   17 1  
    18   15   14 1  
    19   16   15 2  
    20   31   16 1  
    21   17   18 2  
    22   17   19 am 
    23   19   20 1  
    24   20   21 1  
    25   20   26 1  
    26   21   22 1  
    27   22   23 1  
    28   23   24 ar 
    29   23   25 ar 
    30   26   27 ar 
    31   26   28 ar 
    32   30   29 1  
    33   30   31 1  
    34    1   32 1  
    35    3   33 1  
    36    5   34 1  
    37    7   35 1  
    38   11   36 1  
    39   11   37 1  
    40   12   38 1  
    41   15   39 1  
    42   19   40 1  
    43   20   41 1  
    44   21   42 1  
    45   21   43 1  
    46   22   44 1  
    47   22   45 1  
    48   29   46 1  
    49   29   47 1  
    50   30   48 1  
    51   30   49 1  
    52   31   50 1  
    53   31   51 1  
@<TRIPOS>SUBSTRUCTURE
     1 3YF         1

