### 
### Created by X-TOOL on Mon Sep 10 21:13:20 2018
### 

@<TRIPOS>MOLECULE
4zz2_ligand
   51    53     1     0     0
SMALL
GAST_HUCK


@<TRIPOS>ATOM
      1 N1         49.8180   11.0110   26.6430 N.pl3     1 3YG        -0.2068
      2 C2         50.8700   11.1690   25.8560 C.cat     1 3YG         0.1958
      3 N3         51.5040   12.3520   25.7390 N.am      1 3YG        -0.2566
      4 C4         51.0970   13.4490   26.4030 C.2       1 3YG         0.2163
      5 C6         48.1930   13.3620   28.6800 C.2       1 3YG         0.1368
      6 C8         49.9580   13.3290   27.2620 C.2       1 3YG         0.1590
      7 N5         48.3070   12.1170   28.1980 N.pl3     1 3YG        -0.1623
      8 C7         49.2070   14.1820   28.1260 C.2       1 3YG         0.0390
      9 C9         49.3320   12.0560   27.3510 C.2       1 3YG         0.2721
     10 O10        51.6990   14.5170   26.2720 O.2       1 3YG        -0.3846
     11 N11        51.3530   10.0700   25.1370 N.pl3     1 3YG        -0.3348
     12 C12        49.2810   11.3710   32.9680 C.2       1 3YG        -0.0637
     13 C13        50.0990   10.8740   34.0160 C.2       1 3YG         0.0217
     14 C14        51.1130   11.6870   34.4210 C.2       1 3YG         0.0077
     15 S15        50.9840   13.0760   33.4410 S.3       1 3YG        -0.0325
     16 C16        49.6340   12.6090   32.5180 C.2       1 3YG         0.0165
     17 C17        49.8830    9.5870   34.6240 C.2       1 3YG         0.1872
     18 O18        50.7560    9.0760   35.3600 O.2       1 3YG        -0.3937
     19 N19        48.6570    8.8760   34.3830 N.am      1 3YG        -0.2737
     20 C20        48.4340    7.5890   34.9810 C.3       1 3YG         0.0950
     21 C21        47.1980    7.6060   35.8030 C.3       1 3YG        -0.0064
     22 C22        47.1960    8.7440   36.8140 C.3       1 3YG         0.0038
     23 C23        45.8930    8.7750   37.6510 C.2       1 3YG         0.0350
     24 O24        45.3810    7.6770   38.0730 O.co2     1 3YG        -0.5690
     25 O25        45.3110    9.9160   37.9230 O.co2     1 3YG        -0.5690
     26 C26        48.2720    6.5320   33.8830 C.2       1 3YG         0.0601
     27 O27        48.5640    5.2920   34.1480 O.co2     1 3YG        -0.5666
     28 O28        47.8480    6.8720   32.7190 O.co2     1 3YG        -0.5666
     29 C29        47.1190   13.7740   29.7200 C.3       1 3YG         0.0467
     30 C30        47.5410   13.0970   31.0850 C.3       1 3YG        -0.0165
     31 C31        49.0060   13.4150   31.4180 C.3       1 3YG        -0.0031
     32 H1         49.3671   10.0879   26.7168 H         1 3YG         0.2419
     33 H2         52.3020   12.4167   25.1399 H         1 3YG         0.1812
     34 H3         47.6943   11.3269   28.4454 H         1 3YG         0.2626
     35 H4         49.3776   15.2402   28.3187 H         1 3YG         0.0724
     36 H5         50.8819    9.1573   25.2134 H         1 3YG         0.1762
     37 H6         52.1797   10.1738   24.5314 H         1 3YG         0.1762
     38 H7         48.4420   10.8108   32.5577 H         1 3YG         0.0295
     39 H8         51.8471   11.4924   35.2015 H         1 3YG         0.0727
     40 H9         47.9554    9.2796   33.7957 H         1 3YG         0.1863
     41 H10        49.2935    7.3316   35.6173 H         1 3YG         0.0726
     42 H11        47.1190    6.6514   36.3439 H         1 3YG         0.0323
     43 H12        46.3307    7.7227   35.1365 H         1 3YG         0.0323
     44 H13        47.2945    9.6979   36.2751 H         1 3YG         0.0432
     45 H14        48.0515    8.6167   37.4936 H         1 3YG         0.0432
     46 H15        46.1277   13.4143   29.4069 H         1 3YG         0.0658
     47 H16        47.0944   14.8683   29.8292 H         1 3YG         0.0658
     48 H17        47.4182   12.0071   31.0008 H         1 3YG         0.0340
     49 H18        46.8966   13.4774   31.8912 H         1 3YG         0.0340
     50 H19        49.5986   13.2535   30.5054 H         1 3YG         0.0455
     51 H20        49.0602   14.4748   31.7077 H         1 3YG         0.0455
@<TRIPOS>BOND
     1    1    2 ar 
     2    9    1 1  
     3    3    2 ar 
     4    2   11 ar 
     5    4    3 am 
     6    6    4 1  
     7    4   10 2  
     8    5    7 1  
     9    5    8 2  
    10   29    5 1  
    11    8    6 1  
    12    6    9 2  
    13    7    9 1  
    14   12   13 1  
    15   16   12 2  
    16   14   13 2  
    17   13   17 1  
    18   15   14 1  
    19   16   15 1  
    20   31   16 1  
    21   17   18 2  
    22   17   19 am 
    23   19   20 1  
    24   20   21 1  
    25   20   26 1  
    26   21   22 1  
    27   22   23 1  
    28   23   24 ar 
    29   23   25 ar 
    30   26   27 ar 
    31   26   28 ar 
    32   30   29 1  
    33   30   31 1  
    34    1   32 1  
    35    3   33 1  
    36    7   34 1  
    37    8   35 1  
    38   11   36 1  
    39   11   37 1  
    40   12   38 1  
    41   14   39 1  
    42   19   40 1  
    43   20   41 1  
    44   21   42 1  
    45   21   43 1  
    46   22   44 1  
    47   22   45 1  
    48   29   46 1  
    49   29   47 1  
    50   30   48 1  
    51   30   49 1  
    52   31   50 1  
    53   31   51 1  
@<TRIPOS>SUBSTRUCTURE
     1 3YG         1

