### 
### Created by X-TOOL on Mon Sep 10 21:13:24 2018
### 

@<TRIPOS>MOLECULE
4zz3_ligand
   51    53     1     0     0
SMALL
GAST_HUCK


@<TRIPOS>ATOM
      1 C1         62.1970   48.2070   18.6850 C.ar      1 4DW        -0.0358
      2 C2         61.0110   48.9110   18.8520 C.ar      1 4DW        -0.0542
      3 C3         59.8670   48.5330   18.1590 C.ar      1 4DW        -0.0485
      4 C4         59.9370   47.4440   17.3000 C.ar      1 4DW         0.0428
      5 C5         61.1170   46.7320   17.1240 C.ar      1 4DW        -0.0485
      6 C6         62.2570   47.1190   17.8210 C.ar      1 4DW        -0.0542
      7 C7         63.4070   48.6700   19.4680 C.3       1 4DW        -0.0044
      8 C8         63.4080   48.5630   20.9790 C.3       1 4DW         0.0083
      9 C9         62.3130   47.6790   21.5400 C.2       1 4DW         0.0645
     10 C10        62.1410   46.3270   21.2800 C.2       1 4DW         0.1255
     11 N11        61.0620   45.9180   21.9630 N.pl3     1 4DW        -0.1651
     12 C12        60.5400   46.9450   22.6480 C.2       1 4DW         0.2722
     13 C13        61.3020   48.0750   22.4060 C.2       1 4DW         0.1658
     14 C14        60.9450   49.2670   23.0190 C.2       1 4DW         0.2106
     15 O15        61.5940   50.2830   22.8290 O.2       1 4DW        -0.3898
     16 N16        59.8750   49.3020   23.8250 N.am      1 4DW        -0.2578
     17 C17        59.1520   48.1920   24.0430 C.cat     1 4DW         0.1970
     18 N18        59.4800   47.0270   23.4620 N.pl3     1 4DW        -0.2053
     19 N19        58.0210   48.2330   24.8980 N.pl3     1 4DW        -0.3344
     20 C20        58.6530   47.0500   16.5490 C.2       1 4DW         0.2016
     21 O21        57.6690   47.7540   16.6490 O.2       1 4DW        -0.3877
     22 N22        58.6620   45.8700   15.7620 N.am      1 4DW        -0.2716
     23 C23        57.4700   45.5120   15.0800 C.3       1 4DW         0.0953
     24 C24        57.7440   44.9000   13.7220 C.3       1 4DW        -0.0064
     25 C25        59.0230   44.1090   13.5680 C.3       1 4DW         0.0038
     26 C26        59.1360   43.1580   12.3960 C.2       1 4DW         0.0350
     27 O27        58.2000   43.0850   11.5580 O.co2     1 4DW        -0.5690
     28 O28        60.1640   42.4430   12.2640 O.co2     1 4DW        -0.5690
     29 C29        56.7810   44.4820   15.9500 C.2       1 4DW         0.0601
     30 O30        56.2460   44.8720   17.0220 O.co2     1 4DW        -0.5666
     31 O31        56.7480   43.2710   15.6070 O.co2     1 4DW        -0.5666
     32 H1         60.9777   49.7593   19.5261 H         1 4DW         0.0570
     33 H2         58.9384   49.0775   18.2865 H         1 4DW         0.0652
     34 H3         61.1490   45.8834   16.4503 H         1 4DW         0.0652
     35 H4         63.1862   46.5759   17.6915 H         1 4DW         0.0570
     36 H5         63.5585   49.7316   19.2232 H         1 4DW         0.0465
     37 H6         64.2647   48.0841   19.1060 H         1 4DW         0.0465
     38 H7         63.2835   49.5731   21.3964 H         1 4DW         0.0497
     39 H8         64.3784   48.1526   21.2951 H         1 4DW         0.0497
     40 H9         62.7682   45.7102   20.6380 H         1 4DW         0.1624
     41 H10        60.6898   44.9576   21.9615 H         1 4DW         0.2656
     42 H11        59.6135   50.1602   24.2668 H         1 4DW         0.1809
     43 H12        58.9107   46.1881   23.6442 H         1 4DW         0.2436
     44 H13        57.7518   49.1165   25.3539 H         1 4DW         0.1764
     45 H14        57.4689   47.3793   25.0630 H         1 4DW         0.1764
     46 H15        59.4849   45.3064   15.6898 H         1 4DW         0.1866
     47 H16        56.8320   46.3994   14.9554 H         1 4DW         0.0726
     48 H17        57.7710   45.7194   12.9887 H         1 4DW         0.0323
     49 H18        56.9072   44.2256   13.4876 H         1 4DW         0.0323
     50 H19        59.1519   43.5146   14.4845 H         1 4DW         0.0432
     51 H20        59.8466   44.8331   13.4817 H         1 4DW         0.0432
@<TRIPOS>BOND
     1    1    2 ar 
     2    1    6 ar 
     3    1    7 1  
     4    2    3 ar 
     5    3    4 ar 
     6    4    5 ar 
     7    4   20 1  
     8    5    6 ar 
     9    7    8 1  
    10    8    9 1  
    11    9   10 2  
    12    9   13 1  
    13   10   11 1  
    14   11   12 1  
    15   12   13 2  
    16   12   18 1  
    17   13   14 1  
    18   14   15 2  
    19   14   16 am 
    20   16   17 ar 
    21   17   18 ar 
    22   17   19 ar 
    23   20   21 2  
    24   20   22 am 
    25   22   23 1  
    26   23   24 1  
    27   23   29 1  
    28   24   25 1  
    29   25   26 1  
    30   26   27 ar 
    31   26   28 ar 
    32   29   30 ar 
    33   29   31 ar 
    34    2   32 1  
    35    3   33 1  
    36    5   34 1  
    37    6   35 1  
    38    7   36 1  
    39    7   37 1  
    40    8   38 1  
    41    8   39 1  
    42   10   40 1  
    43   11   41 1  
    44   16   42 1  
    45   18   43 1  
    46   19   44 1  
    47   19   45 1  
    48   22   46 1  
    49   23   47 1  
    50   24   48 1  
    51   24   49 1  
    52   25   50 1  
    53   25   51 1  
@<TRIPOS>SUBSTRUCTURE
     1 4DW         1

