### 
### Created by X-TOOL on Mon Sep 10 21:13:24 2018
### 

@<TRIPOS>MOLECULE
4zzd_ligand
   47    49     1     0     0
SMALL
GAST_HUCK


@<TRIPOS>ATOM
      1 N1          1.6490    3.6160   88.9580 N.2       1 RBF        -0.2549
      2 C2          0.5140    2.9630   88.5960 C.2       1 RBF         0.2439
      3 O2         -0.3010    3.5400   87.8410 O.2       1 RBF        -0.3902
      4 N3          0.2310    1.7170   89.0170 N.am      1 RBF        -0.1938
      5 C4          1.0500    1.0290   89.8270 C.2       1 RBF         0.2704
      6 O4          0.7600   -0.1290   90.2020 O.2       1 RBF        -0.3655
      7 C4A         2.3150    1.6720   90.2710 C.2       1 RBF         0.2076
      8 N5          3.1950    1.0460   91.0880 N.2       1 RBF        -0.2387
      9 C5A         4.3390    1.6570   91.4750 C.ar      1 RBF         0.0856
     10 C6          5.2260    0.9890   92.3140 C.ar      1 RBF        -0.0403
     11 C7          6.4070    1.6060   92.7190 C.ar      1 RBF        -0.0428
     12 C7M         7.3640    0.8760   93.6280 C.3       1 RBF        -0.0352
     13 C8          6.7220    2.9860   92.2540 C.ar      1 RBF        -0.0416
     14 C8M         7.9980    3.6580   92.6920 C.3       1 RBF        -0.0312
     15 C9          5.8370    3.6570   91.4140 C.ar      1 RBF        -0.0258
     16 C9A         4.6560    3.0400   91.0070 C.ar      1 RBF         0.1048
     17 N10         3.7550    3.7090   90.1500 N.pl3     1 RBF        -0.2138
     18 C10         2.5670    3.0470   89.7740 C.2       1 RBF         0.1894
     19 C1'         4.0170    5.0730   89.6780 C.3       1 RBF         0.0886
     20 C2'         4.3410    5.0730   88.1890 C.3       1 RBF         0.1101
     21 O2'         5.7550    4.9370   88.0060 O.3       1 RBF        -0.3865
     22 C3'         3.8600    6.3660   87.5370 C.3       1 RBF         0.1114
     23 O3'         4.4880    7.4760   88.1870 O.3       1 RBF        -0.3865
     24 C4'         2.3420    6.5190   87.6270 C.3       1 RBF         0.1065
     25 O4'         1.6910    5.2860   87.2890 O.3       1 RBF        -0.3869
     26 C5'         1.8370    7.6390   86.7200 C.3       1 RBF         0.0727
     27 O5'         2.8510    7.9910   85.7690 O.3       1 RBF        -0.3924
     28 H1         -0.6205    1.2881   88.7153 H         1 RBF         0.2248
     29 H2          4.9969   -0.0147   92.6533 H         1 RBF         0.0564
     30 H3          6.9609   -0.1208   93.8603 H         1 RBF         0.0366
     31 H4          7.4916    1.4462   94.5600 H         1 RBF         0.0366
     32 H5          8.3374    0.7701   93.1267 H         1 RBF         0.0366
     33 H6          8.0532    4.6637   92.2499 H         1 RBF         0.0395
     34 H7          8.8599    3.0624   92.3568 H         1 RBF         0.0395
     35 H8          8.0122    3.7384   93.7890 H         1 RBF         0.0395
     36 H9          6.0673    4.6610   91.0762 H         1 RBF         0.0493
     37 H10         4.8700    5.4900   90.2334 H         1 RBF         0.0631
     38 H11         3.1261    5.6937   89.8539 H         1 RBF         0.0631
     39 H12         3.8323    4.2221   87.7124 H         1 RBF         0.0647
     40 H13         6.1990    5.6640   88.4266 H         1 RBF         0.2100
     41 H14         4.1502    6.3558   86.4760 H         1 RBF         0.0647
     42 H15         4.1928    8.2849   87.7858 H         1 RBF         0.2100
     43 H16         2.0850    6.7748   88.6655 H         1 RBF         0.0643
     44 H17         1.9693    4.6066   87.8920 H         1 RBF         0.2100
     45 H18         1.5886    8.5193   87.3310 H         1 RBF         0.0584
     46 H19         0.9381    7.2982   86.1854 H         1 RBF         0.0584
     47 H20         3.6273    8.2863   86.2302 H         1 RBF         0.2095
@<TRIPOS>BOND
     1    1    2 1  
     2    1   18 2  
     3    2    3 2  
     4    2    4 am 
     5    4    5 am 
     6    5    6 2  
     7    5    7 1  
     8    7    8 2  
     9    7   18 1  
    10    8    9 1  
    11    9   10 ar 
    12    9   16 ar 
    13   10   11 ar 
    14   11   12 1  
    15   11   13 ar 
    16   13   14 1  
    17   13   15 ar 
    18   15   16 ar 
    19   16   17 1  
    20   17   18 1  
    21   17   19 1  
    22   19   20 1  
    23   20   21 1  
    24   20   22 1  
    25   22   23 1  
    26   22   24 1  
    27   24   25 1  
    28   24   26 1  
    29   26   27 1  
    30    4   28 1  
    31   10   29 1  
    32   12   30 1  
    33   12   31 1  
    34   12   32 1  
    35   14   33 1  
    36   14   34 1  
    37   14   35 1  
    38   15   36 1  
    39   19   37 1  
    40   19   38 1  
    41   20   39 1  
    42   21   40 1  
    43   22   41 1  
    44   23   42 1  
    45   24   43 1  
    46   25   44 1  
    47   26   45 1  
    48   26   46 1  
    49   27   47 1  
@<TRIPOS>SUBSTRUCTURE
     1 RBF         1

