### 
### Created by X-TOOL on Mon Sep 10 21:13:25 2018
### 

@<TRIPOS>MOLECULE
4zzx_ligand
   34    35     1     0     0
SMALL
GAST_HUCK


@<TRIPOS>ATOM
      1 C1          8.0630   14.6360   58.7890 C.2       1 FSU         0.2083
      2 N2          8.0130   13.7660   59.8090 N.am      1 FSU        -0.2606
      3 C3          9.2830   15.4790   58.7870 C.ar      1 FSU         0.0725
      4 C4          9.9040   14.9960   59.9140 C.ar      1 FSU         0.0048
      5 C5          9.8740   16.4940   58.0210 C.ar      1 FSU         0.0624
      6 C6          9.1570   13.9320   60.5480 C.3       1 FSU         0.0713
      7 C7          9.2650   17.0460   56.7660 C.2       1 FSU         0.2047
      8 O8          7.1270   14.7470   57.9090 O.2       1 FSU        -0.3864
      9 O9          9.9330   17.7960   56.0750 O.2       1 FSU        -0.3831
     10 N10         8.0640   16.6540   56.3410 N.am      1 FSU        -0.2996
     11 C11         6.9440   12.7970   60.0650 C.3       1 FSU         0.0377
     12 C12        11.1400   15.5180   60.3030 C.ar      1 FSU        -0.0483
     13 C13        11.1070   17.0200   58.4390 C.ar      1 FSU        -0.0435
     14 C14         5.9550   13.3550   61.0640 C.3       1 FSU        -0.0089
     15 C15        11.7490   16.5270   59.5770 C.ar      1 FSU        -0.0586
     16 O16         4.2040   11.8820   60.3960 O.3       1 FSU        -0.3829
     17 C17         5.0090   12.2410   61.5200 C.3       1 FSU         0.0491
     18 C18         3.3990   10.7300   60.6910 C.3       1 FSU         0.0364
     19 H1          9.7462   13.0031   60.5503 H         1 FSU         0.0700
     20 H2          8.9046   14.2088   61.5822 H         1 FSU         0.0700
     21 H3          7.6811   17.0380   55.5008 H         1 FSU         0.1809
     22 H4          7.5459   15.9759   56.8623 H         1 FSU         0.1809
     23 H5          7.3822   11.8716   60.4670 H         1 FSU         0.0524
     24 H6          6.4216   12.5761   59.1225 H         1 FSU         0.0524
     25 H7         11.6299   15.1267   61.1873 H         1 FSU         0.0604
     26 H8         11.5670   17.8200   57.8703 H         1 FSU         0.0624
     27 H9          5.3728   14.1608   60.5931 H         1 FSU         0.0307
     28 H10         6.4975   13.7544   61.9335 H         1 FSU         0.0307
     29 H11        12.7076   16.9275   59.8864 H         1 FSU         0.0646
     30 H12         4.3709   12.6011   62.3405 H         1 FSU         0.0560
     31 H13         5.5888   11.3707   61.8612 H         1 FSU         0.0560
     32 H14         2.7894   10.4738   59.8119 H         1 FSU         0.0523
     33 H15         2.7391   10.9521   61.5426 H         1 FSU         0.0523
     34 H16         4.0517    9.8817   60.9444 H         1 FSU         0.0523
@<TRIPOS>BOND
     1    1    2 am 
     2    1    3 1  
     3    1    8 2  
     4    2    6 1  
     5    2   11 1  
     6    3    4 ar 
     7    3    5 ar 
     8    4    6 1  
     9    4   12 ar 
    10    5    7 1  
    11    5   13 ar 
    12    7    9 2  
    13    7   10 am 
    14   11   14 1  
    15   12   15 ar 
    16   13   15 ar 
    17   14   17 1  
    18   17   16 1  
    19   16   18 1  
    20    6   19 1  
    21    6   20 1  
    22   10   21 1  
    23   10   22 1  
    24   11   23 1  
    25   11   24 1  
    26   12   25 1  
    27   13   26 1  
    28   14   27 1  
    29   14   28 1  
    30   15   29 1  
    31   17   30 1  
    32   17   31 1  
    33   18   32 1  
    34   18   33 1  
    35   18   34 1  
@<TRIPOS>SUBSTRUCTURE
     1 FSU         1

