### 
### Created by X-TOOL on Mon Sep 10 21:13:25 2018
### 

@<TRIPOS>MOLECULE
4zzy_ligand
   53    56     1     0     0
SMALL
GAST_HUCK


@<TRIPOS>ATOM
      1 C25        21.2570  -29.4540    7.6200 C.3       1 D7N        -0.0042
      2 C24        20.1070  -30.0100    8.5140 C.3       1 D7N         0.0158
      3 C23        18.6810  -29.7450    7.9260 C.3       1 D7N         0.2493
      4 F26        17.7050  -30.1520    8.6670 F         1 D7N        -0.2057
      5 F27        18.4160  -30.3980    6.8590 F         1 D7N        -0.2057
      6 C22        18.5110  -28.2900    7.5070 C.3       1 D7N         0.0158
      7 C21        19.6470  -27.8200    6.5800 C.3       1 D7N        -0.0042
      8 C20        20.9660  -27.9390    7.3760 C.3       1 D7N        -0.0205
      9 N16        22.0620  -27.1500    6.7560 N.4       1 D7N         0.2375
     10 C15        22.2570  -27.2680    5.2740 C.3       1 D7N        -0.0295
     11 C14        23.4980  -26.4740    4.7950 C.3       1 D7N         0.0110
     12 C17        21.9110  -25.7550    7.1810 C.3       1 D7N        -0.0295
     13 C18        23.1540  -25.0180    6.8950 C.3       1 D7N         0.0110
     14 C13        23.4260  -25.0170    5.4010 C.3       1 D7N         0.0563
     15 N10        24.6880  -24.3310    5.1590 N.am      1 D7N        -0.2579
     16 C9         25.9330  -24.3600    5.9540 C.3       1 D7N         0.0706
     17 C11        24.9560  -23.6270    4.0790 C.2       1 D7N         0.2056
     18 O12        24.0400  -23.4190    3.2990 O.2       1 D7N        -0.3883
     19 C7         26.2070  -23.0530    4.0740 C.ar      1 D7N         0.0684
     20 C8         26.8010  -23.4860    5.2360 C.ar      1 D7N         0.0030
     21 C3         28.0500  -23.1060    5.5820 C.ar      1 D7N        -0.0147
     22 C2         28.7790  -22.2470    4.7730 C.ar      1 D7N         0.1365
     23 F5         30.0470  -21.9090    5.1640 F         1 D7N        -0.1802
     24 C1         28.2190  -21.7760    3.5720 C.ar      1 D7N        -0.0096
     25 C4         26.9040  -22.1800    3.2220 C.ar      1 D7N         0.0609
     26 C6         26.4380  -21.6560    1.9810 C.2       1 D7N         0.2039
     27 O28        27.1910  -20.9540    1.2710 O.2       1 D7N        -0.3831
     28 N19        25.2310  -22.0420    1.5590 N.am      1 D7N        -0.2996
     29 H1         21.2813  -29.9917    6.6607 H         1 D7N         0.0322
     30 H2         22.2231  -29.5738    8.1321 H         1 D7N         0.0322
     31 H3         20.1712  -29.5318    9.5025 H         1 D7N         0.0324
     32 H4         20.2433  -31.0961    8.6225 H         1 D7N         0.0324
     33 H5         18.5043  -27.6594    8.4082 H         1 D7N         0.0324
     34 H6         17.5530  -28.1826    6.9772 H         1 D7N         0.0324
     35 H7         19.4808  -26.7747    6.2805 H         1 D7N         0.0322
     36 H8         19.6893  -28.4561    5.6836 H         1 D7N         0.0322
     37 H9         20.7951  -27.4896    8.3654 H         1 D7N         0.0851
     38 H10        22.9171  -27.4942    7.1638 H         1 D7N         0.2036
     39 H11        21.3644  -26.8759    4.7645 H         1 D7N         0.0815
     40 H12        22.3907  -28.3287    5.0152 H         1 D7N         0.0815
     41 H13        23.5019  -26.4190    3.6964 H         1 D7N         0.0339
     42 H14        24.4146  -26.9745    5.1404 H         1 D7N         0.0339
     43 H15        21.7046  -25.7208    8.2609 H         1 D7N         0.0815
     44 H16        21.0764  -25.2930    6.6333 H         1 D7N         0.0815
     45 H17        23.9925  -25.5016    7.4174 H         1 D7N         0.0339
     46 H18        23.0517  -23.9809    7.2471 H         1 D7N         0.0339
     47 H19        22.6146  -24.4709    4.8977 H         1 D7N         0.0563
     48 H20        26.3480  -25.3777    5.9993 H         1 D7N         0.0699
     49 H21        25.7574  -23.9898    6.9748 H         1 D7N         0.0699
     50 H22        28.4875  -23.4764    6.5020 H         1 D7N         0.0590
     51 H23        28.7827  -21.1149    2.9238 H         1 D7N         0.0613
     52 H24        24.8697  -21.6959    0.6932 H         1 D7N         0.1809
     53 H25        24.6886  -22.6771    2.1089 H         1 D7N         0.1809
@<TRIPOS>BOND
     1    1    2 1  
     2    1    8 1  
     3    2    3 1  
     4    3    4 1  
     5    3    5 1  
     6    3    6 1  
     7    6    7 1  
     8    7    8 1  
     9    8    9 1  
    10    9   10 1  
    11    9   12 1  
    12   10   11 1  
    13   11   14 1  
    14   12   13 1  
    15   13   14 1  
    16   14   15 1  
    17   15   16 1  
    18   15   17 am 
    19   16   20 1  
    20   17   18 2  
    21   17   19 1  
    22   19   20 ar 
    23   19   25 ar 
    24   20   21 ar 
    25   21   22 ar 
    26   22   23 1  
    27   22   24 ar 
    28   24   25 ar 
    29   25   26 1  
    30   26   27 2  
    31   26   28 am 
    32    1   29 1  
    33    1   30 1  
    34    2   31 1  
    35    2   32 1  
    36    6   33 1  
    37    6   34 1  
    38    7   35 1  
    39    7   36 1  
    40    8   37 1  
    41    9   38 1  
    42   10   39 1  
    43   10   40 1  
    44   11   41 1  
    45   11   42 1  
    46   12   43 1  
    47   12   44 1  
    48   13   45 1  
    49   13   46 1  
    50   14   47 1  
    51   16   48 1  
    52   16   49 1  
    53   21   50 1  
    54   24   51 1  
    55   28   52 1  
    56   28   53 1  
@<TRIPOS>SUBSTRUCTURE
     1 D7N         1

