### 
### Created by X-TOOL on Mon Sep 10 21:13:25 2018
### 

@<TRIPOS>MOLECULE
4zzz_ligand
   34    35     1     0     0
SMALL
GAST_HUCK


@<TRIPOS>ATOM
      1 C1         62.8020    6.6400    9.3510 C.2       1 FSU         0.2083
      2 N2         61.8780    6.2450   10.2280 N.am      1 FSU        -0.2606
      3 C3         63.7250    5.6810    9.1240 C.ar      1 FSU         0.0725
      4 C4         63.3280    4.6380    9.9090 C.ar      1 FSU         0.0048
      5 C5         64.8520    5.5880    8.3210 C.ar      1 FSU         0.0624
      6 C6         62.2010    4.9840   10.5800 C.3       1 FSU         0.0713
      7 C7         65.3700    6.5490    7.4100 C.2       1 FSU         0.2047
      8 O8         62.7250    7.8790    8.8350 O.2       1 FSU        -0.3864
      9 O9         66.2530    6.2480    6.5850 O.2       1 FSU        -0.3831
     10 N10        64.8370    7.7840    7.4100 N.am      1 FSU        -0.2996
     11 C11        60.6770    7.0400   10.7410 C.3       1 FSU         0.0377
     12 C12        64.0230    3.4720    9.9640 C.ar      1 FSU        -0.0483
     13 C13        65.5880    4.3820    8.3670 C.ar      1 FSU        -0.0435
     14 C14        60.9170    7.6670   12.1330 C.3       1 FSU        -0.0089
     15 C15        65.1650    3.3300    9.1750 C.ar      1 FSU        -0.0586
     16 O16        61.9000    9.7880   11.6040 O.3       1 FSU        -0.3829
     17 C17        62.1860    8.4780   12.1490 C.3       1 FSU         0.0491
     18 C18        62.9840   10.3140   10.7940 C.3       1 FSU         0.0364
     19 H1         61.3821    4.3001   10.3122 H         1 FSU         0.0700
     20 H2         62.3814    4.9334   11.6639 H         1 FSU         0.0700
     21 H3         65.1835    8.4781    6.7790 H         1 FSU         0.1809
     22 H4         64.0943    8.0080    8.0410 H         1 FSU         0.1809
     23 H5         59.8113    6.3644   10.8056 H         1 FSU         0.0524
     24 H6         60.4597    7.8471   10.0259 H         1 FSU         0.0524
     25 H7         63.6958    2.6654   10.6101 H         1 FSU         0.0604
     26 H8         66.4865    4.2757    7.7700 H         1 FSU         0.0624
     27 H9         60.9941    6.8639   12.8807 H         1 FSU         0.0307
     28 H10        60.0690    8.3212   12.3837 H         1 FSU         0.0307
     29 H11        65.7228    2.4007    9.1911 H         1 FSU         0.0646
     30 H12        62.9523    7.9804   11.5364 H         1 FSU         0.0560
     31 H13        62.5500    8.5773   13.1822 H         1 FSU         0.0560
     32 H14        62.7067   11.3071   10.4107 H         1 FSU         0.0523
     33 H15        63.1737    9.6350    9.9497 H         1 FSU         0.0523
     34 H16        63.8928   10.3986   11.4079 H         1 FSU         0.0523
@<TRIPOS>BOND
     1    1    2 am 
     2    1    3 1  
     3    1    8 2  
     4    2    6 1  
     5    2   11 1  
     6    3    4 ar 
     7    3    5 ar 
     8    4    6 1  
     9    4   12 ar 
    10    5    7 1  
    11    5   13 ar 
    12    7    9 2  
    13    7   10 am 
    14   11   14 1  
    15   12   15 ar 
    16   13   15 ar 
    17   14   17 1  
    18   17   16 1  
    19   16   18 1  
    20    6   19 1  
    21    6   20 1  
    22   10   21 1  
    23   10   22 1  
    24   11   23 1  
    25   11   24 1  
    26   12   25 1  
    27   13   26 1  
    28   14   27 1  
    29   14   28 1  
    30   15   29 1  
    31   17   30 1  
    32   17   31 1  
    33   18   32 1  
    34   18   33 1  
    35   18   34 1  
@<TRIPOS>SUBSTRUCTURE
     1 FSU         1

