### 
### Created by X-TOOL on Mon Sep 10 21:13:24 2018
### 

@<TRIPOS>MOLECULE
5a00_ligand
   53    56     1     0     0
SMALL
GAST_HUCK


@<TRIPOS>ATOM
      1 C25        20.1850   11.3340   75.8630 C.3       1 D7N        -0.0042
      2 C24        19.3970   10.0370   76.1260 C.3       1 D7N         0.0158
      3 C23        17.9160   10.2220   75.7380 C.3       1 D7N         0.2493
      4 F26        17.2440    9.1970   76.1800 F         1 D7N        -0.2057
      5 F27        17.8450   10.3630   74.3550 F         1 D7N        -0.2057
      6 C22        17.2840   11.4470   76.4210 C.3       1 D7N         0.0158
      7 C21        18.0790   12.6960   76.0770 C.3       1 D7N        -0.0042
      8 C20        19.5010   12.4900   76.6140 C.3       1 D7N        -0.0205
      9 N16        20.3040   13.7220   76.6470 N.4       1 D7N         0.2375
     10 C15        20.8430   14.1880   75.3600 C.3       1 D7N        -0.0295
     11 C14        21.9000   15.2440   75.6410 C.3       1 D7N         0.0110
     12 C17        19.5570   14.8090   77.2960 C.3       1 D7N        -0.0295
     13 C18        20.4940   15.9330   77.6810 C.3       1 D7N         0.0110
     14 C13        21.3100   16.4100   76.4710 C.3       1 D7N         0.0563
     15 N10        22.3850   17.3330   76.9290 N.am      1 D7N        -0.2579
     16 C9         23.1810   17.2470   78.1550 C.3       1 D7N         0.0706
     17 C11        22.8300   18.3990   76.2770 C.2       1 D7N         0.2056
     18 O12        22.3380   18.7640   75.2110 O.2       1 D7N        -0.3883
     19 C7         23.7860   19.0600   76.9520 C.ar      1 D7N         0.0684
     20 C8         23.9980   18.3680   78.1040 C.ar      1 D7N         0.0030
     21 C3         24.8830   18.7700   79.0160 C.ar      1 D7N        -0.0147
     22 C2         25.6220   19.9190   78.7980 C.ar      1 D7N         0.1365
     23 F5         26.4660   20.3110   79.6440 F         1 D7N        -0.1802
     24 C1         25.4200   20.6370   77.6320 C.ar      1 D7N        -0.0096
     25 C4         24.4820   20.2060   76.6960 C.ar      1 D7N         0.0609
     26 C6         24.3770   21.0190   75.5450 C.2       1 D7N         0.2039
     27 O28        25.3110   21.7480   75.2190 O.2       1 D7N        -0.3831
     28 N19        23.2520   20.9880   74.8430 N.am      1 D7N        -0.2996
     29 H1         20.1948   11.5485   74.7842 H         1 D7N         0.0322
     30 H2         21.2179   11.2188   76.2234 H         1 D7N         0.0322
     31 H3         19.4631    9.7826   77.1941 H         1 D7N         0.0324
     32 H4         19.8297    9.2219   75.5274 H         1 D7N         0.0324
     33 H5         17.2886   11.3001   77.5111 H         1 D7N         0.0324
     34 H6         16.2479   11.5659   76.0713 H         1 D7N         0.0324
     35 H7         17.6211   13.5768   76.5508 H         1 D7N         0.0322
     36 H8         18.1048   12.8381   74.9865 H         1 D7N         0.0322
     37 H9         19.3981   12.1685   77.6609 H         1 D7N         0.0851
     38 H10        21.1021   13.5179   77.2279 H         1 D7N         0.2036
     39 H11        20.0348   14.6226   74.7534 H         1 D7N         0.0815
     40 H12        21.2949   13.3441   74.8182 H         1 D7N         0.0815
     41 H13        22.2787   15.6374   74.6861 H         1 D7N         0.0339
     42 H14        22.7272   14.7850   76.2024 H         1 D7N         0.0339
     43 H15        19.0644   14.4215   78.2000 H         1 D7N         0.0815
     44 H16        18.7966   15.1928   76.6000 H         1 D7N         0.0815
     45 H17        21.1828   15.5757   78.4607 H         1 D7N         0.0339
     46 H18        19.9038   16.7753   78.0711 H         1 D7N         0.0339
     47 H19        20.6329   16.9736   75.8123 H         1 D7N         0.0563
     48 H20        23.7817   16.3256   78.1674 H         1 D7N         0.0699
     49 H21        22.5340   17.2749   79.0441 H         1 D7N         0.0699
     50 H22        25.0233   18.1981   79.9261 H         1 D7N         0.0590
     51 H23        25.9936   21.5379   77.4463 H         1 D7N         0.0613
     52 H24        23.1572   21.5556   74.0252 H         1 D7N         0.1809
     53 H25        22.4987   20.3970   75.1316 H         1 D7N         0.1809
@<TRIPOS>BOND
     1    1    2 1  
     2    1    8 1  
     3    2    3 1  
     4    3    4 1  
     5    3    5 1  
     6    3    6 1  
     7    6    7 1  
     8    7    8 1  
     9    8    9 1  
    10    9   10 1  
    11    9   12 1  
    12   10   11 1  
    13   11   14 1  
    14   12   13 1  
    15   13   14 1  
    16   14   15 1  
    17   15   16 1  
    18   15   17 am 
    19   16   20 1  
    20   17   18 2  
    21   17   19 1  
    22   19   20 ar 
    23   19   25 ar 
    24   20   21 ar 
    25   21   22 ar 
    26   22   23 1  
    27   22   24 ar 
    28   24   25 ar 
    29   25   26 1  
    30   26   27 2  
    31   26   28 am 
    32    1   29 1  
    33    1   30 1  
    34    2   31 1  
    35    2   32 1  
    36    6   33 1  
    37    6   34 1  
    38    7   35 1  
    39    7   36 1  
    40    8   37 1  
    41    9   38 1  
    42   10   39 1  
    43   10   40 1  
    44   11   41 1  
    45   11   42 1  
    46   12   43 1  
    47   12   44 1  
    48   13   45 1  
    49   13   46 1  
    50   14   47 1  
    51   16   48 1  
    52   16   49 1  
    53   21   50 1  
    54   24   51 1  
    55   28   52 1  
    56   28   53 1  
@<TRIPOS>SUBSTRUCTURE
     1 D7N         1

