### 
### Created by X-TOOL on Mon Sep 10 21:13:23 2018
### 

@<TRIPOS>MOLECULE
5a09_ligand
   50    52     1     0     0
SMALL
GAST_HUCK


@<TRIPOS>ATOM
      1 C1         -4.8580   35.9030   -4.8250 C.3       1 JJD         0.1008
      2 N2         -5.2610   37.0140   -3.9380 N.am      1 JJD        -0.2175
      3 C3         -5.9260   36.8000   -2.7840 C.2       1 JJD         0.3303
      4 N4         -5.9030   35.5670   -2.2480 N.am      1 JJD        -0.1420
      5 C5         -5.0630   34.5900   -2.7330 C.2       1 JJD         0.0896
      6 C6         -4.5210   34.7060   -3.9870 C.2       1 JJD         0.0402
      7 C7         -5.9320   35.6860   -5.8530 C.ar      1 JJD        -0.0071
      8 C8         -5.7200   36.0950   -7.1720 C.ar      1 JJD        -0.0464
      9 C9         -6.7130   35.9720   -8.1560 C.ar      1 JJD        -0.0338
     10 C10        -7.9490   35.4120   -7.7940 C.ar      1 JJD         0.0877
     11 C11        -8.1760   35.0120   -6.4770 C.ar      1 JJD        -0.0338
     12 C12        -7.1760   35.1390   -5.5020 C.ar      1 JJD        -0.0464
     13 C13        -8.8770   35.3100   -8.6760 C.1       1 JJD         0.0925
     14 N14        -9.7570   35.2830   -9.4300 N.1       1 JJD        -0.3345
     15 C15        -3.5810   33.7930   -4.6340 C.2       1 JJD         0.0847
     16 O16        -3.0720   32.9110   -3.9410 O.2       1 JJD        -0.4173
     17 C17        -3.2910   33.8620   -6.0890 C.3       1 JJD        -0.0011
     18 C18        -6.5930   35.4070   -0.9980 C.ar      1 JJD         0.1273
     19 C19        -7.8570   34.8290   -1.0030 C.ar      1 JJD        -0.0047
     20 C20        -8.5550   34.6390    0.1790 C.ar      1 JJD         0.0364
     21 C21        -8.0080   35.0130    1.4180 C.ar      1 JJD        -0.0432
     22 C22        -6.7160   35.5800    1.4520 C.ar      1 JJD        -0.0409
     23 C23        -6.0410   35.7760    0.2310 C.ar      1 JJD        -0.0040
     24 C24        -9.9290   34.0570    0.0760 C.3       1 JJD         0.3733
     25 F25       -10.1560   33.3450    1.1640 F         1 JJD        -0.2207
     26 F26       -10.7510   35.1010   -0.0170 F         1 JJD        -0.2207
     27 F27       -10.0660   33.2930   -0.9980 F         1 JJD        -0.2207
     28 C28        -4.7540   33.4130   -1.8570 C.3       1 JJD         0.0019
     29 O29        -6.5680   37.7130   -2.2080 O.2       1 JJD        -0.3781
     30 C30        -5.2810   38.3880   -4.4140 C.3       1 JJD         0.0913
     31 C31        -3.8620   38.9300   -4.5630 C.2       1 JJD         0.0574
     32 O32        -2.9200   38.3700   -3.9580 O.co2     1 JJD        -0.5669
     33 O33        -3.6820   39.9090   -5.3120 O.co2     1 JJD        -0.5669
     34 H1         -3.9437   36.1957   -5.3619 H         1 JJD         0.0783
     35 H2         -4.7603   36.5198   -7.4433 H         1 JJD         0.0582
     36 H3         -6.5302   36.3017   -9.1723 H         1 JJD         0.0700
     37 H4         -9.1393   34.5970   -6.2033 H         1 JJD         0.0700
     38 H5         -7.3626   34.8168   -4.4839 H         1 JJD         0.0582
     39 H6         -2.5593   33.0847   -6.3543 H         1 JJD         0.0432
     40 H7         -2.8793   34.8521   -6.3343 H         1 JJD         0.0432
     41 H8         -4.2196   33.7002   -6.6561 H         1 JJD         0.0432
     42 H9         -8.3022   34.5231   -1.9428 H         1 JJD         0.0741
     43 H10        -8.5697   34.8683    2.3337 H         1 JJD         0.0756
     44 H11        -6.2550   35.8575    2.3931 H         1 JJD         0.0668
     45 H12        -5.0568   36.2300    0.2458 H         1 JJD         0.0783
     46 H13        -4.0745   32.7296   -2.3873 H         1 JJD         0.0453
     47 H14        -5.6867   32.8844   -1.6105 H         1 JJD         0.0453
     48 H15        -4.2741   33.7614   -0.9305 H         1 JJD         0.0453
     49 H16        -5.8314   39.0113   -3.6939 H         1 JJD         0.0693
     50 H17        -5.7853   38.4241   -5.3909 H         1 JJD         0.0693
@<TRIPOS>BOND
     1    1    2 1  
     2    1    6 1  
     3    1    7 1  
     4    2    3 am 
     5    2   30 1  
     6    3    4 am 
     7    3   29 2  
     8    4    5 1  
     9    4   18 1  
    10    5    6 2  
    11    5   28 1  
    12    6   15 1  
    13    7    8 ar 
    14    7   12 ar 
    15    8    9 ar 
    16    9   10 ar 
    17   10   11 ar 
    18   10   13 1  
    19   11   12 ar 
    20   13   14 3  
    21   15   16 2  
    22   15   17 1  
    23   18   19 ar 
    24   18   23 ar 
    25   19   20 ar 
    26   20   21 ar 
    27   20   24 1  
    28   21   22 ar 
    29   22   23 ar 
    30   24   25 1  
    31   24   26 1  
    32   24   27 1  
    33   30   31 1  
    34   31   32 ar 
    35   31   33 ar 
    36    1   34 1  
    37    8   35 1  
    38    9   36 1  
    39   11   37 1  
    40   12   38 1  
    41   17   39 1  
    42   17   40 1  
    43   17   41 1  
    44   19   42 1  
    45   21   43 1  
    46   22   44 1  
    47   23   45 1  
    48   28   46 1  
    49   28   47 1  
    50   28   48 1  
    51   30   49 1  
    52   30   50 1  
@<TRIPOS>SUBSTRUCTURE
     1 JJD         1

