### 
### Created by X-TOOL on Mon Sep 10 21:13:22 2018
### 

@<TRIPOS>MOLECULE
5a0a_ligand
   44    46     1     0     0
SMALL
GAST_HUCK


@<TRIPOS>ATOM
      1 F25       -10.3050   33.3020    1.2540 F         1 JJS        -0.2207
      2 C24       -10.0430   34.0210    0.1740 C.3       1 JJS         0.3733
      3 F27       -10.9160   35.0110    0.0600 F         1 JJS        -0.2207
      4 F26       -10.1920   33.2450   -0.8680 F         1 JJS        -0.2207
      5 C20        -8.6380   34.6200    0.2220 C.ar      1 JJS         0.0364
      6 C21        -8.0670   34.9830    1.4480 C.ar      1 JJS        -0.0432
      7 C22        -6.7960   35.5610    1.5220 C.ar      1 JJS        -0.0409
      8 C23        -6.0950   35.7780    0.3340 C.ar      1 JJS        -0.0040
      9 C19        -7.9270   34.8100   -0.9550 C.ar      1 JJS        -0.0047
     10 C18        -6.6440   35.3960   -0.9060 C.ar      1 JJS         0.1273
     11 N4         -5.9160   35.5810   -2.1270 N.am      1 JJS        -0.1421
     12 C3         -5.9380   36.8230   -2.6530 C.2       1 JJS         0.3263
     13 O29        -6.5580   37.7010   -2.0830 O.2       1 JJS        -0.3782
     14 C5         -5.1380   34.5920   -2.6650 C.2       1 JJS         0.0898
     15 C28        -4.8740   33.3570   -1.8230 C.3       1 JJS         0.0020
     16 C6         -4.6140   34.7260   -3.9140 C.2       1 JJS         0.0411
     17 C15        -3.7440   33.7240   -4.5870 C.2       1 JJS         0.0848
     18 O16        -3.2650   32.7740   -3.9790 O.2       1 JJS        -0.4172
     19 C17        -3.4410   33.8970   -6.0610 C.3       1 JJS        -0.0011
     20 C1         -4.9100   35.9670   -4.7020 C.3       1 JJS         0.1018
     21 N2         -5.2840   37.0740   -3.8050 N.am      1 JJS        -0.2428
     22 C7         -6.0500   35.8270   -5.6640 C.ar      1 JJS         0.0202
     23 C8         -5.9990   36.5270   -6.8720 C.ar      1 JJS         0.0270
     24 N9         -7.0620   36.4810   -7.7930 N.ar      1 JJS        -0.2693
     25 C10        -8.1680   35.6890   -7.4810 C.ar      1 JJS         0.1611
     26 C13        -9.1420   35.6400   -8.3300 C.1       1 JJS         0.1147
     27 N14       -10.0050   35.6040   -9.1010 N.1       1 JJS        -0.3259
     28 C11        -8.2090   34.9650   -6.2830 C.ar      1 JJS        -0.0063
     29 C12        -7.1690   35.0350   -5.3720 C.ar      1 JJS        -0.0274
     30 H1         -8.6240   34.8117    2.3621 H         1 JJS         0.0756
     31 H2         -6.3652   35.8341    2.4785 H         1 JJS         0.0668
     32 H3         -5.1175   36.2456    0.3662 H         1 JJS         0.0783
     33 H4         -8.3542   34.5104   -1.9051 H         1 JJS         0.0741
     34 H5         -4.2385   32.6580   -2.3865 H         1 JJS         0.0454
     35 H6         -5.8289   32.8688   -1.5787 H         1 JJS         0.0454
     36 H7         -4.3632   33.6491   -0.8936 H         1 JJS         0.0454
     37 H8         -2.7899   33.0778   -6.4001 H         1 JJS         0.0432
     38 H9         -2.9326   34.8593   -6.2204 H         1 JJS         0.0432
     39 H10        -4.3804   33.8794   -6.6330 H         1 JJS         0.0432
     40 H11        -4.0025   36.2362   -5.2624 H         1 JJS         0.0795
     41 H12        -5.0520   38.0150   -4.0514 H         1 JJS         0.1908
     42 H13        -5.1211   37.1187   -7.1050 H         1 JJS         0.0801
     43 H14        -9.0679   34.3404   -6.0658 H         1 JJS         0.0790
     44 H15        -7.2196   34.4821   -4.4410 H         1 JJS         0.0697
@<TRIPOS>BOND
     1    1    2 1  
     2    2    3 1  
     3    2    4 1  
     4    2    5 1  
     5    5    6 ar 
     6    5    9 ar 
     7    6    7 ar 
     8    7    8 ar 
     9    8   10 ar 
    10    9   10 ar 
    11   10   11 1  
    12   11   12 am 
    13   11   14 1  
    14   12   13 2  
    15   12   21 am 
    16   14   15 1  
    17   14   16 2  
    18   16   17 1  
    19   16   20 1  
    20   17   18 2  
    21   17   19 1  
    22   20   21 1  
    23   20   22 1  
    24   22   23 ar 
    25   22   29 ar 
    26   23   24 ar 
    27   24   25 ar 
    28   25   26 1  
    29   25   28 ar 
    30   26   27 3  
    31   28   29 ar 
    32    6   30 1  
    33    7   31 1  
    34    8   32 1  
    35    9   33 1  
    36   15   34 1  
    37   15   35 1  
    38   15   36 1  
    39   19   37 1  
    40   19   38 1  
    41   19   39 1  
    42   20   40 1  
    43   21   41 1  
    44   23   42 1  
    45   28   43 1  
    46   29   44 1  
@<TRIPOS>SUBSTRUCTURE
     1 JJS         1

