### 
### Created by X-TOOL on Mon Sep 10 21:13:23 2018
### 

@<TRIPOS>MOLECULE
5a0b_ligand
   70    73     1     0     0
SMALL
GAST_HUCK


@<TRIPOS>ATOM
      1 C33        -5.6140   -1.8690   26.0520 C.3       1 JJX         0.0741
      2 C34        -5.7620   -0.8780   27.2200 C.3       1 JJX        -0.0107
      3 N35        -4.7550    0.1920   27.0190 N.4       1 JJX         0.2398
      4 C38        -4.5930    0.9420   28.3190 C.3       1 JJX        -0.0265
      5 C40        -5.7560    1.9060   28.6600 C.3       1 JJX        -0.0218
      6 C39        -3.2490    1.6820   28.3350 C.3       1 JJX        -0.0218
      7 C36        -5.0690    0.9730   25.7660 C.3       1 JJX        -0.0107
      8 C37        -4.9640    0.0220   24.5110 C.3       1 JJX         0.0741
      9 N31        -5.8020   -1.1820   24.7310 N.am      1 JJX        -0.2614
     10 C30        -6.7070   -1.6300   23.8310 C.2       1 JJX         0.2017
     11 O32        -6.8230   -1.0030   22.7670 O.2       1 JJX        -0.3946
     12 C29        -7.6040   -2.9090   24.1090 C.3       1 JJX         0.1282
     13 N12        -8.5530   -3.0320   22.9600 N.am      1 JJX        -0.2090
     14 C11        -8.3330   -4.0660   22.0320 C.2       1 JJX         0.3383
     15 O21        -7.4100   -4.8500   22.2690 O.2       1 JJX        -0.3750
     16 C7         -9.6860   -2.1060   22.8440 C.3       1 JJX         0.1152
     17 C3        -10.6500   -2.6110   23.9860 C.ar      1 JJX        -0.0057
     18 C2        -11.2360   -1.6930   24.8700 C.ar      1 JJX        -0.0463
     19 C1        -12.0490   -2.1050   25.9540 C.ar      1 JJX        -0.0338
     20 C6        -12.2920   -3.4540   26.1480 C.ar      1 JJX         0.0877
     21 C19       -13.1190   -3.8400   27.2500 C.1       1 JJX         0.0926
     22 N20       -13.7750   -4.1540   28.1240 N.1       1 JJX        -0.3344
     23 C5        -11.7430   -4.4170   25.2660 C.ar      1 JJX        -0.0338
     24 C4        -10.9230   -3.9780   24.2080 C.ar      1 JJX        -0.0463
     25 C8        -10.3440   -2.1440   21.4930 C.2       1 JJX         0.1036
     26 C27       -11.3700   -1.1910   21.2420 C.1       1 JJX         0.0196
     27 N28       -12.2020   -0.4330   21.0310 N.1       1 JJX        -0.4078
     28 C9        -10.1110   -3.2210   20.6310 C.2       1 JJX         0.1204
     29 C22       -10.9070   -3.3300   19.3430 C.3       1 JJX         0.0136
     30 N10        -9.0840   -4.1710   20.8870 N.am      1 JJX        -0.1266
     31 C13        -8.9260   -5.2900   20.0280 C.ar      1 JJX         0.1344
     32 C18        -9.7140   -6.4400   20.3200 C.ar      1 JJX        -0.0023
     33 C14        -8.0680   -5.3080   18.9280 C.ar      1 JJX        -0.0018
     34 C15        -8.0020   -6.4810   18.1400 C.ar      1 JJX        -0.0398
     35 C16        -8.7640   -7.6070   18.4600 C.ar      1 JJX        -0.0422
     36 C17        -9.6430   -7.5980   19.5270 C.ar      1 JJX         0.0377
     37 C23       -10.4190   -8.9060   19.8710 C.3       1 JJX         0.3736
     38 F25       -10.7010   -9.6290   18.7590 F         1 JJX        -0.2207
     39 F26       -11.4840   -8.6540   20.6460 F         1 JJX        -0.2207
     40 F24        -9.6130   -9.6180   20.6420 F         1 JJX        -0.2207
     41 H1         -6.3702   -2.6611   26.1554 H         1 JJX         0.0575
     42 H2         -4.6090   -2.3149   26.0848 H         1 JJX         0.0575
     43 H3         -5.5799   -1.3919   28.1754 H         1 JJX         0.0834
     44 H4         -6.7741   -0.4471   27.2224 H         1 JJX         0.0834
     45 H5         -3.8676   -0.2532   26.8447 H         1 JJX         0.2037
     46 H6         -4.5653    0.1875   29.1190 H         1 JJX         0.0846
     47 H7         -5.5501    2.4042   29.6189 H         1 JJX         0.0284
     48 H8         -6.6939    1.3364   28.7367 H         1 JJX         0.0284
     49 H9         -5.8501    2.6622   27.8667 H         1 JJX         0.0284
     50 H10        -3.1407    2.2249   29.2855 H         1 JJX         0.0284
     51 H11        -3.2135    2.3959   27.4989 H         1 JJX         0.0284
     52 H12        -2.4293    0.9558   28.2321 H         1 JJX         0.0284
     53 H13        -4.3513    1.7998   25.6601 H         1 JJX         0.0834
     54 H14        -6.0890    1.3792   25.8334 H         1 JJX         0.0834
     55 H15        -3.9165   -0.2817   24.3677 H         1 JJX         0.0575
     56 H16        -5.3168    0.5556   23.6161 H         1 JJX         0.0575
     57 H17        -8.1620   -2.7828   25.0485 H         1 JJX         0.0767
     58 H18        -6.9722   -3.8070   24.1755 H         1 JJX         0.0767
     59 H19        -9.3587   -1.0748   23.0425 H         1 JJX         0.0797
     60 H20       -11.0609   -0.6340   24.7186 H         1 JJX         0.0582
     61 H21       -12.4774   -1.3703   26.6261 H         1 JJX         0.0700
     62 H22       -11.9501   -5.4722   25.4027 H         1 JJX         0.0700
     63 H23       -10.4873   -4.7143   23.5424 H         1 JJX         0.0582
     64 H24       -11.6544   -2.5239   19.3046 H         1 JJX         0.0498
     65 H25       -11.4164   -4.3043   19.3081 H         1 JJX         0.0498
     66 H26       -10.2270   -3.2408   18.4830 H         1 JJX         0.0498
     67 H27       -10.3832   -6.4216   21.1726 H         1 JJX         0.0753
     68 H28        -7.4647   -4.4415   18.6824 H         1 JJX         0.0792
     69 H29        -7.3499   -6.5064   17.2744 H         1 JJX         0.0671
     70 H30        -8.6643   -8.5046   17.8605 H         1 JJX         0.0764
@<TRIPOS>BOND
     1    1    2 1  
     2    1    9 1  
     3    2    3 1  
     4    3    4 1  
     5    3    7 1  
     6    4    5 1  
     7    4    6 1  
     8    7    8 1  
     9    8    9 1  
    10    9   10 am 
    11   10   11 2  
    12   10   12 1  
    13   12   13 1  
    14   13   14 am 
    15   13   16 1  
    16   14   15 2  
    17   14   30 am 
    18   16   17 1  
    19   16   25 1  
    20   17   18 ar 
    21   17   24 ar 
    22   18   19 ar 
    23   19   20 ar 
    24   20   21 1  
    25   20   23 ar 
    26   21   22 3  
    27   23   24 ar 
    28   25   26 1  
    29   25   28 2  
    30   26   27 3  
    31   28   29 1  
    32   28   30 1  
    33   30   31 1  
    34   31   32 ar 
    35   31   33 ar 
    36   32   36 ar 
    37   33   34 ar 
    38   34   35 ar 
    39   35   36 ar 
    40   36   37 1  
    41   37   38 1  
    42   37   39 1  
    43   37   40 1  
    44    1   41 1  
    45    1   42 1  
    46    2   43 1  
    47    2   44 1  
    48    3   45 1  
    49    4   46 1  
    50    5   47 1  
    51    5   48 1  
    52    5   49 1  
    53    6   50 1  
    54    6   51 1  
    55    6   52 1  
    56    7   53 1  
    57    7   54 1  
    58    8   55 1  
    59    8   56 1  
    60   12   57 1  
    61   12   58 1  
    62   16   59 1  
    63   18   60 1  
    64   19   61 1  
    65   23   62 1  
    66   24   63 1  
    67   29   64 1  
    68   29   65 1  
    69   29   66 1  
    70   32   67 1  
    71   33   68 1  
    72   34   69 1  
    73   35   70 1  
@<TRIPOS>SUBSTRUCTURE
     1 JJX         1

