### 
### Created by X-TOOL on Mon Sep 10 21:13:21 2018
### 

@<TRIPOS>MOLECULE
5a0c_ligand
   47    49     1     0     0
SMALL
GAST_HUCK


@<TRIPOS>ATOM
      1 C28        23.1470   12.9820   14.9970 C.3       1 JJV         0.0587
      2 S26        24.3750   12.5690   14.1120 S.o2      1 JJV        -0.0062
      3 O27        25.7640   13.1560   14.0450 O.2       1 JJV        -0.1705
      4 O29        24.8080   11.1350   14.5660 O.2       1 JJV        -0.1705
      5 C4         23.8270   12.3390   12.4290 C.ar      1 JJV         0.1029
      6 C2         24.7640   12.6860   11.4340 C.ar      1 JJV        -0.0089
      7 C1         24.3910   12.5200   10.1000 C.ar      1 JJV         0.0895
      8 C31        25.2410   12.8320    9.0210 C.1       1 JJV         0.0927
      9 N30        25.9160   13.0520    8.1520 N.1       1 JJV        -0.3344
     10 C3         23.1560   12.0310    9.7980 C.ar      1 JJV        -0.0337
     11 C5         22.2100   11.7490   10.7590 C.ar      1 JJV        -0.0444
     12 C6         22.5250   11.9070   12.1170 C.ar      1 JJV         0.0187
     13 C22        21.3560   11.6200   13.1480 C.3       1 JJV         0.1115
     14 C9         20.6470   10.2910   12.9980 C.2       1 JJV         0.1033
     15 C11        19.4260   10.2030   12.4390 C.2       1 JJV         0.1203
     16 C25        18.7770    8.8050   12.2520 C.3       1 JJV         0.0136
     17 C24        21.4350    9.2130   13.3590 C.1       1 JJV         0.0196
     18 N32        22.0680    8.3220   13.6370 N.1       1 JJV        -0.4078
     19 N7         20.4340   12.7700   12.8890 N.am      1 JJV        -0.2413
     20 C8         19.2400   12.5950   12.2770 C.2       1 JJV         0.3336
     21 O23        18.4960   13.5370   12.0370 O.2       1 JJV        -0.3753
     22 N10        18.7180   11.3160   12.1520 N.am      1 JJV        -0.1269
     23 C12        17.5400   11.2660   11.4300 C.ar      1 JJV         0.1344
     24 C13        17.6670   11.1000   10.0560 C.ar      1 JJV        -0.0023
     25 C14        16.2810   11.3630   11.9820 C.ar      1 JJV        -0.0018
     26 C16        15.1880   11.3890   11.1600 C.ar      1 JJV        -0.0398
     27 C17        15.2790   11.1520    9.7550 C.ar      1 JJV        -0.0422
     28 C15        16.5530   11.0130    9.1950 C.ar      1 JJV         0.0377
     29 C18        16.7100   10.8520    7.6800 C.3       1 JJV         0.3736
     30 F20        15.6230   10.2570    7.1730 F         1 JJV        -0.2207
     31 F21        16.7070   12.0020    7.0530 F         1 JJV        -0.2207
     32 F19        17.7870   10.2100    7.2760 F         1 JJV        -0.2207
     33 H1         22.8096   13.9886   14.7091 H         1 JJV         0.0467
     34 H2         23.4426   12.9835   16.0565 H         1 JJV         0.0467
     35 H3         22.3279   12.2636   14.8458 H         1 JJV         0.0467
     36 H4         25.7431   13.0696   11.6973 H         1 JJV         0.0719
     37 H5         22.9070   11.8564    8.7575 H         1 JJV         0.0700
     38 H6         21.2243   11.4057   10.4665 H         1 JJV         0.0583
     39 H7         21.7519   11.6703   14.1730 H         1 JJV         0.0794
     40 H8         19.4994    8.0248   12.5337 H         1 JJV         0.0498
     41 H9         18.4869    8.6732   11.1992 H         1 JJV         0.0498
     42 H10        17.8849    8.7265   12.8907 H         1 JJV         0.0498
     43 H11        20.7066   13.6887   13.1748 H         1 JJV         0.1909
     44 H12        18.6613   11.0348    9.6291 H         1 JJV         0.0753
     45 H13        16.1580   11.4182   13.0576 H         1 JJV         0.0792
     46 H14        14.2158   11.5975   11.5917 H         1 JJV         0.0671
     47 H15        14.3882   11.0820    9.1413 H         1 JJV         0.0764
@<TRIPOS>BOND
     1    1    2 1  
     2    2    3 2  
     3    2    4 2  
     4    2    5 1  
     5    5    6 ar 
     6    5   12 ar 
     7    6    7 ar 
     8    7    8 1  
     9    7   10 ar 
    10    8    9 3  
    11   10   11 ar 
    12   11   12 ar 
    13   12   13 1  
    14   13   14 1  
    15   13   19 1  
    16   14   15 2  
    17   14   17 1  
    18   15   16 1  
    19   15   22 1  
    20   17   18 3  
    21   19   20 am 
    22   20   21 2  
    23   20   22 am 
    24   22   23 1  
    25   23   24 ar 
    26   23   25 ar 
    27   24   28 ar 
    28   25   26 ar 
    29   26   27 ar 
    30   27   28 ar 
    31   28   29 1  
    32   29   30 1  
    33   29   31 1  
    34   29   32 1  
    35    1   33 1  
    36    1   34 1  
    37    1   35 1  
    38    6   36 1  
    39   10   37 1  
    40   11   38 1  
    41   13   39 1  
    42   16   40 1  
    43   16   41 1  
    44   16   42 1  
    45   19   43 1  
    46   24   44 1  
    47   25   45 1  
    48   26   46 1  
    49   27   47 1  
@<TRIPOS>SUBSTRUCTURE
     1 JJV         1

