### 
### Created by X-TOOL on Mon Sep 10 21:13:24 2018
### 

@<TRIPOS>MOLECULE
5a14_ligand
   64    67     1     0     0
SMALL
GAST_HUCK


@<TRIPOS>ATOM
      1 C02        30.1510    6.6710    5.8400 C.ar      1 LQ5        -0.0396
      2 C03        30.7330    5.9910    6.9000 C.ar      1 LQ5        -0.0475
      3 C04        30.0880    5.9120    8.1500 C.ar      1 LQ5         0.0580
      4 C06        28.2640    7.2340    7.2920 C.ar      1 LQ5        -0.0396
      5 C07        28.9250    7.2940    6.0530 C.ar      1 LQ5         0.1084
      6 O08        28.3480    7.9940    5.0040 O.3       1 LQ5        -0.2431
      7 C09        27.2160    7.4730    4.3940 C.ar      1 LQ5         0.1885
      8 C10        26.8810    6.1020    4.4060 C.ar      1 LQ5         0.0088
      9 C11        25.7180    5.7070    3.7280 C.ar      1 LQ5         0.0030
     10 N12        24.9790    6.6690    3.1010 N.ar      1 LQ5        -0.2703
     11 C13        25.3330    7.9740    3.1100 C.ar      1 LQ5         0.1751
     12 N17        24.5950    8.9180    2.5040 N.pl3     1 LQ5        -0.3056
     13 C18        30.1130    4.6560   10.2620 C.2       1 LQ5         0.3134
     14 N19        30.9130    3.9270   11.0670 N.am      1 LQ5        -0.2121
     15 C20        30.5240    3.3920   12.3120 C.ar      1 LQ5         0.0890
     16 C21        31.5510    3.2130   13.2640 C.ar      1 LQ5        -0.0151
     17 C22        31.2210    2.7160   14.5250 C.ar      1 LQ5        -0.0318
     18 C23        29.8850    2.4300   14.8680 C.ar      1 LQ5         0.0245
     19 C24        28.8490    2.6270   13.9140 C.ar      1 LQ5         0.0384
     20 C25        27.3680    2.3340   14.2430 C.3       1 LQ5         0.3644
     21 F26        26.9130    3.2150   15.1700 F         1 LQ5        -0.2292
     22 F27        27.2600    1.0670   14.7080 F         1 LQ5        -0.2292
     23 F28        26.5290    2.4700   13.2000 F         1 LQ5        -0.2292
     24 C29        29.1810    3.1100   12.6470 C.ar      1 LQ5        -0.0206
     25 C30        29.6340    1.8800   16.3040 C.3       1 LQ5         0.0130
     26 N31        30.3260    2.6680   17.3550 N.4       1 LQ5         0.2588
     27 C32        29.9870    4.1240   17.4730 C.3       1 LQ5         0.0114
     28 N30        26.4480    8.3700    3.7520 N.ar      1 LQ5        -0.2270
     29 C33        31.0000    4.7830   18.4510 C.3       1 LQ5         0.0092
     30 N34        31.0000    4.0680   19.7690 N.4       1 LQ5         0.2405
     31 C26        28.8520    6.5290    8.3470 C.ar      1 LQ5        -0.0475
     32 C35        31.4270    2.6550   19.5990 C.3       1 LQ5         0.0092
     33 C36        30.4210    1.9370   18.6550 C.3       1 LQ5         0.0114
     34 C37        31.8770    4.7960   20.7320 C.3       1 LQ5        -0.0427
     35 O39        28.9190    4.8660   10.5110 O.2       1 LQ5        -0.3819
     36 N20        30.7200    5.1710    9.1750 N.am      1 LQ5        -0.2199
     37 H1         30.6378    6.7158    4.8725 H         1 LQ5         0.0523
     38 H2         31.6970    5.5141    6.7646 H         1 LQ5         0.0481
     39 H3         27.3091    7.7287    7.4283 H         1 LQ5         0.0523
     40 H4         27.5016    5.3783    4.9219 H         1 LQ5         0.0599
     41 H5         25.4144    4.6667    3.7026 H         1 LQ5         0.0854
     42 H6         23.7346    8.6557    2.0021 H         1 LQ5         0.1824
     43 H7         24.8893    9.9044    2.5410 H         1 LQ5         0.1824
     44 H8         31.8484    3.7537   10.7588 H         1 LQ5         0.2248
     45 H9         32.5783    3.4575   13.0193 H         1 LQ5         0.0761
     46 H10        32.0059    2.5470   15.2533 H         1 LQ5         0.0615
     47 H11        28.4000    3.2703   11.9125 H         1 LQ5         0.0652
     48 H12        29.9943    0.8417   16.3499 H         1 LQ5         0.1043
     49 H13        28.5526    1.9021   16.5040 H         1 LQ5         0.1043
     50 H14        31.2793    2.6915   17.0283 H         1 LQ5         0.2058
     51 H15        28.9650    4.2376   17.8637 H         1 LQ5         0.0868
     52 H16        30.0575    4.6036   16.4856 H         1 LQ5         0.0868
     53 H17        30.7181    5.8343   18.6098 H         1 LQ5         0.0868
     54 H18        32.0082    4.7357   18.0138 H         1 LQ5         0.0868
     55 H19        30.0602    4.0692   20.1335 H         1 LQ5         0.2035
     56 H20        28.3532    6.4626    9.3071 H         1 LQ5         0.0481
     57 H21        31.4391    2.1523   20.5773 H         1 LQ5         0.0868
     58 H22        32.4343    2.6237   19.1582 H         1 LQ5         0.0868
     59 H23        30.7658    0.9089   18.4701 H         1 LQ5         0.0868
     60 H24        29.4298    1.9113   19.1314 H         1 LQ5         0.0868
     61 H25        31.5299    5.8351   20.8306 H         1 LQ5         0.0778
     62 H26        32.9129    4.7890   20.3621 H         1 LQ5         0.0778
     63 H27        31.8347    4.3006   21.7132 H         1 LQ5         0.0778
     64 H28        31.7038    5.0155    9.0853 H         1 LQ5         0.2230
@<TRIPOS>BOND
     1    2    1 ar 
     2    1    5 ar 
     3    3    2 ar 
     4    3   31 ar 
     5   36    3 1  
     6    4    5 ar 
     7   31    4 ar 
     8    5    6 1  
     9    6    7 1  
    10    7    8 ar 
    11    7   28 ar 
    12    8    9 ar 
    13    9   10 ar 
    14   11   10 ar 
    15   11   12 1  
    16   28   11 ar 
    17   13   14 am 
    18   13   35 2  
    19   13   36 am 
    20   14   15 1  
    21   15   16 ar 
    22   15   24 ar 
    23   16   17 ar 
    24   17   18 ar 
    25   18   19 ar 
    26   18   25 1  
    27   19   20 1  
    28   19   24 ar 
    29   20   21 1  
    30   20   22 1  
    31   20   23 1  
    32   25   26 1  
    33   26   27 1  
    34   26   33 1  
    35   27   29 1  
    36   29   30 1  
    37   30   32 1  
    38   30   34 1  
    39   32   33 1  
    40    1   37 1  
    41    2   38 1  
    42    4   39 1  
    43    8   40 1  
    44    9   41 1  
    45   12   42 1  
    46   12   43 1  
    47   14   44 1  
    48   16   45 1  
    49   17   46 1  
    50   24   47 1  
    51   25   48 1  
    52   25   49 1  
    53   26   50 1  
    54   27   51 1  
    55   27   52 1  
    56   29   53 1  
    57   29   54 1  
    58   30   55 1  
    59   31   56 1  
    60   32   57 1  
    61   32   58 1  
    62   33   59 1  
    63   33   60 1  
    64   34   61 1  
    65   34   62 1  
    66   34   63 1  
    67   36   64 1  
@<TRIPOS>SUBSTRUCTURE
     1 LQ5         1

