### 
### Created by X-TOOL on Mon Sep 10 21:13:24 2018
### 

@<TRIPOS>MOLECULE
5a1f_ligand
   13    12     1     0     0
SMALL
GAST_HUCK


@<TRIPOS>ATOM
      1 C1         83.5730   67.0170   14.2070 C.2       1 OGA         0.1433
      2 C2         84.4910   66.0890   13.4610 C.2       1 OGA         0.2452
      3 C4         86.4460   64.5100   13.6260 C.3       1 OGA         0.0841
      4 C5         87.6890   64.4090   14.5050 C.2       1 OGA         0.0572
      5 O1         82.6000   67.5620   13.6010 O.co2     1 OGA        -0.5457
      6 O2         83.8140   67.2110   15.4310 O.co2     1 OGA        -0.5457
      7 O2'        84.3060   65.9070   12.2800 O.2       1 OGA        -0.3655
      8 O3         88.5660   63.5530   14.2710 O.co2     1 OGA        -0.5669
      9 N1         85.4960   65.4190   14.1980 N.am      1 OGA        -0.2659
     10 O4         87.8480   65.1540   15.5100 O.co2     1 OGA        -0.5669
     11 H1         85.9853   63.5152   13.5356 H         1 OGA         0.0691
     12 H2         86.7369   64.8714   12.6286 H         1 OGA         0.0691
     13 H3         85.5470   65.5906   15.1818 H         1 OGA         0.1886
@<TRIPOS>BOND
     1    2    1 1  
     2    1    5 ar 
     3    1    6 ar 
     4    2    7 2  
     5    9    2 am 
     6    3    4 1  
     7    3    9 1  
     8    4    8 ar 
     9    4   10 ar 
    10    3   11 1  
    11    3   12 1  
    12    9   13 1  
@<TRIPOS>SUBSTRUCTURE
     1 OGA         1

