### 
### Created by X-TOOL on Mon Sep 10 21:13:24 2018
### 

@<TRIPOS>MOLECULE
5a2i_ligand
   88    89     1     0     0
SMALL
GAST_HUCK


@<TRIPOS>ATOM
      1 N          12.9370   14.1270    3.8110 N.4       1 ALA         0.2377
      2 CA         12.1090   14.8770    4.7920 C.3       1 ALA         0.0623
      3 C          12.1870   14.3340    6.2350 C.2       1 ALA         0.2289
      4 O          12.3090   15.1440    7.1480 O.2       1 ALA        -0.3905
      5 CB         10.6930   15.0060    4.3360 C.3       1 ALA        -0.0040
      6 N          12.1440   12.9850    6.4390 N.am      1 PRO        -0.2471
      7 CA         12.6180   12.4820    7.7330 C.3       1 PRO         0.1339
      8 C          14.1520   12.4010    7.7200 C.2       1 PRO         0.2042
      9 O          14.8010   13.0290    6.8870 O.2       1 PRO        -0.3944
     10 CB         11.9200   11.1170    7.8490 C.3       1 PRO        -0.0104
     11 CG         11.8210   10.6710    6.4380 C.3       1 PRO        -0.0281
     12 CD         11.6070   11.8880    5.6040 C.3       1 PRO         0.0371
     13 N          14.7540   11.6520    8.6300 N.am      1 ASP        -0.2622
     14 CA         16.1970   11.6010    8.6740 C.3       1 ASP         0.1423
     15 C          16.7330   10.7250    7.5230 C.2       1 ASP         0.2057
     16 O          16.8540    9.4930    7.6480 O.2       1 ASP        -0.3943
     17 CB         16.6480   11.0960   10.0170 C.3       1 ASP         0.0406
     18 CG         18.1340   11.1610   10.1990 C.2       1 ASP         0.0393
     19 OD1        18.8460   11.5690    9.2710 O.co2     1 ASP        -0.5688
     20 OD2        18.6050   10.7310   11.2610 O.co2     1 ASP        -0.5688
     21 N          17.0580   11.4080    6.4240 N.am      1 SER        -0.2615
     22 CA         17.5630   10.7930    5.1860 C.3       1 SER         0.1539
     23 C          19.0820   10.5800    5.1890 C.2       1 SER         0.2062
     24 O          19.6650   10.1830    4.1710 O.2       1 SER        -0.3943
     25 CB         17.1420   11.6260    3.9400 C.3       1 SER         0.0843
     26 OG         17.9190   12.8210    3.7380 O.3       1 SER        -0.3903
     27 N          19.7290   10.8230    6.3250 N.am      1 ARG        -0.2637
     28 CA         21.1620   10.6900    6.4170 C.3       1 ARG         0.1312
     29 C          21.5440    9.1930    6.2870 C.2       1 ARG         0.2058
     30 O          21.0630    8.3700    7.0460 O.2       1 ARG        -0.3942
     31 CB         21.6500   11.2280    7.7700 C.3       1 ARG        -0.0092
     32 CG         23.0580   11.7970    7.7470 C.3       1 ARG        -0.0156
     33 CD         23.8660   11.4730    8.9980 C.3       1 ARG         0.0627
     34 NE         25.2430   11.1990    8.6150 N.pl3     1 ARG        -0.2723
     35 CZ         26.1320   10.5610    9.3710 C.cat     1 ARG         0.2882
     36 NH1        25.8210   10.1520   10.5860 N.pl3     1 ARG        -0.2849
     37 NH2        27.3520   10.3440    8.9160 N.pl3     1 ARG        -0.2849
     38 N          22.4250    8.8430    5.3390 N.am      1 PRO        -0.2556
     39 CA         22.9100    7.4430    5.1950 C.3       1 PRO         0.0972
     40 C          23.5950    6.8050    6.4180 C.2       1 PRO         0.0603
     41 O          24.0870    7.5120    7.2970 O.co2     1 PRO        -0.5666
     42 CB         23.9040    7.5230    4.0290 C.3       1 PRO        -0.0159
     43 CG         24.1720    8.9770    3.7950 C.3       1 PRO        -0.0288
     44 CD         22.9880    9.7420    4.3120 C.3       1 PRO         0.0362
     45 OXT        23.6580    5.5810    6.5300 O.co2     1 PRO        -0.5666
     46 H1         12.8327   14.5405    2.8976 H         1 ALA         0.2015
     47 H2         12.6345   13.1659    3.7812 H         1 ALA         0.2015
     48 H3         13.9051   14.1662    4.0889 H         1 ALA         0.2015
     49 H4         12.5236   15.8953    4.8253 H         1 ALA         0.1095
     50 H5         10.1155   15.5652    5.0869 H         1 ALA         0.0310
     51 H6         10.2561   14.0046    4.2086 H         1 ALA         0.0310
     52 H7         10.6642   15.5434    3.3766 H         1 ALA         0.0310
     53 H8         12.3021   13.1411    8.5551 H         1 PRO         0.0802
     54 H9         10.9228   11.2202    8.3017 H         1 PRO         0.0313
     55 H10        12.5220   10.4146    8.4441 H         1 PRO         0.0313
     56 H11        10.9735    9.9797    6.3200 H         1 PRO         0.0287
     57 H12        12.7507   10.1663    6.1363 H         1 PRO         0.0287
     58 H13        12.1560   11.8136    4.6537 H         1 PRO         0.0524
     59 H14        10.5370   12.0393    5.3985 H         1 PRO         0.0524
     60 H15        14.2125   11.1238    9.2841 H         1 ASP         0.1884
     61 H16        16.5880   12.6204    8.5403 H         1 ASP         0.0819
     62 H17        16.3275   10.0491   10.1234 H         1 ASP         0.0478
     63 H18        16.1723   11.7064   10.7987 H         1 ASP         0.0478
     64 H19        16.9516   12.4021    6.4427 H         1 SER         0.1884
     65 H20        17.0938    9.8017    5.1016 H         1 SER         0.0823
     66 H21        16.0878   11.9163    4.0595 H         1 SER         0.0606
     67 H22        17.2486   10.9907    3.0484 H         1 SER         0.0606
     68 H23        17.6059   13.2739    2.9639 H         1 SER         0.2097
     69 H24        19.2108   11.1040    7.1328 H         1 ARG         0.1883
     70 H25        21.6354   11.2616    5.6051 H         1 ARG         0.0800
     71 H26        21.6238   10.4037    8.4979 H         1 ARG         0.0313
     72 H27        20.9624   12.0238    8.0922 H         1 ARG         0.0313
     73 H28        22.9899   12.8906    7.6503 H         1 ARG         0.0301
     74 H29        23.5861   11.3839    6.8750 H         1 ARG         0.0301
     75 H30        23.4386   10.5894    9.4945 H         1 ARG         0.0689
     76 H31        23.8385   12.3300    9.6870 H         1 ARG         0.0689
     77 H32        25.5527   11.5239    7.6879 H         1 ARG         0.2642
     78 H33        26.5212    9.6593   11.1585 H         1 ARG         0.2615
     79 H34        24.8779   10.3254   10.9621 H         1 ARG         0.2615
     80 H35        27.6119   10.6566    7.9696 H         1 ARG         0.2615
     81 H36        28.0440    9.8620    9.5073 H         1 ARG         0.2615
     82 H37        22.0577    6.8029    4.9233 H         1 PRO         0.0728
     83 H38        23.4689    7.0673    3.1273 H         1 PRO         0.0306
     84 H39        24.8372    7.0021    4.2893 H         1 PRO         0.0306
     85 H40        24.3014    9.1669    2.7193 H         1 PRO         0.0286
     86 H41        25.0812    9.2829    4.3333 H         1 PRO         0.0286
     87 H42        23.3002   10.6994    4.7547 H         1 PRO         0.0524
     88 H43        22.2591    9.9293    3.5098 H         1 PRO         0.0524
@<TRIPOS>BOND
     1    1    2 1  
     2    2    3 1  
     3    2    5 1  
     4    3    4 2  
     5    3    6 am 
     6    6    7 1  
     7    6   12 1  
     8    7    8 1  
     9    7   10 1  
    10    8    9 2  
    11    8   13 am 
    12   10   11 1  
    13   11   12 1  
    14   13   14 1  
    15   14   15 1  
    16   14   17 1  
    17   15   16 2  
    18   15   21 am 
    19   17   18 1  
    20   18   19 ar 
    21   18   20 ar 
    22   21   22 1  
    23   22   23 1  
    24   22   25 1  
    25   23   24 2  
    26   23   27 am 
    27   25   26 1  
    28   27   28 1  
    29   28   29 1  
    30   28   31 1  
    31   29   30 2  
    32   29   38 am 
    33   31   32 1  
    34   32   33 1  
    35   33   34 1  
    36   34   35 ar 
    37   35   36 ar 
    38   35   37 ar 
    39   38   39 1  
    40   38   44 1  
    41   39   40 1  
    42   39   42 1  
    43   40   41 ar 
    44   40   45 ar 
    45   42   43 1  
    46   43   44 1  
    47    1   46 1  
    48    1   47 1  
    49    1   48 1  
    50    2   49 1  
    51    5   50 1  
    52    5   51 1  
    53    5   52 1  
    54    7   53 1  
    55   10   54 1  
    56   10   55 1  
    57   11   56 1  
    58   11   57 1  
    59   12   58 1  
    60   12   59 1  
    61   13   60 1  
    62   14   61 1  
    63   17   62 1  
    64   17   63 1  
    65   21   64 1  
    66   22   65 1  
    67   25   66 1  
    68   25   67 1  
    69   26   68 1  
    70   27   69 1  
    71   28   70 1  
    72   31   71 1  
    73   31   72 1  
    74   32   73 1  
    75   32   74 1  
    76   33   75 1  
    77   33   76 1  
    78   34   77 1  
    79   36   78 1  
    80   36   79 1  
    81   37   80 1  
    82   37   81 1  
    83   39   82 1  
    84   42   83 1  
    85   42   84 1  
    86   43   85 1  
    87   43   86 1  
    88   44   87 1  
    89   44   88 1  
@<TRIPOS>SUBSTRUCTURE
     1 ALA         1

