### 
### Created by X-TOOL on Mon Sep 10 21:13:21 2018
### 

@<TRIPOS>MOLECULE
5a2j_ligand
   91    92     1     0     0
SMALL
GAST_HUCK


@<TRIPOS>ATOM
      1 N          -8.3390    0.5270    8.6260 N.4       1 ALA         0.2377
      2 CA         -6.9890    1.0820    8.6030 C.3       1 ALA         0.0623
      3 C          -6.5140    1.3920   10.0090 C.2       1 ALA         0.2289
      4 O          -7.3110    1.4920   10.8850 O.2       1 ALA        -0.3905
      5 CB         -6.9990    2.3690    7.7980 C.3       1 ALA        -0.0040
      6 N          -5.2110    1.5160   10.1590 N.am      1 PRO        -0.2471
      7 CA         -4.6360    1.9680   11.4190 C.3       1 PRO         0.1339
      8 C          -4.7050    3.4960   11.5030 C.2       1 PRO         0.2042
      9 O          -5.5730    4.0840   10.8390 O.2       1 PRO        -0.3944
     10 CB         -3.2140    1.4410   11.3440 C.3       1 PRO        -0.0104
     11 CG         -2.8830    1.5420    9.8910 C.3       1 PRO        -0.0281
     12 CD         -4.1610    1.2500    9.1550 C.3       1 PRO         0.0371
     13 N          -3.8650    4.1390   12.3120 N.am      1 ASP        -0.2622
     14 CA         -3.9210    5.5860   12.4630 C.3       1 ASP         0.1423
     15 C          -3.2980    6.2490   11.2310 C.2       1 ASP         0.2057
     16 O          -2.0770    6.3180   11.1110 O.2       1 ASP        -0.3943
     17 CB         -3.1870    6.0560   13.7090 C.3       1 ASP         0.0406
     18 CG         -3.4460    7.5000   14.0400 C.2       1 ASP         0.0393
     19 OD1        -4.2030    8.1940   13.3060 O.co2     1 ASP        -0.5688
     20 OD2        -2.8770    7.9640   15.0490 O.co2     1 ASP        -0.5688
     21 N          -4.1530    6.7540   10.3400 N.am      1 THR        -0.2612
     22 CA         -3.6910    7.3950    9.1090 C.3       1 THR         0.1565
     23 C          -3.5700    8.9140    9.2380 C.2       1 THR         0.2065
     24 O          -3.3110    9.6190    8.2390 O.2       1 THR        -0.3943
     25 CB         -4.6450    7.0490    7.9330 C.3       1 THR         0.0924
     26 OG1        -5.9600    7.4970    8.2670 O.3       1 THR        -0.3874
     27 CG2        -4.6680    5.5540    7.6930 C.3       1 THR        -0.0346
     28 N          -3.7090    9.4570   10.4400 N.am      1 ARG        -0.2636
     29 CA         -3.5730   10.9070   10.5720 C.3       1 ARG         0.1312
     30 C          -2.1310   11.3020   10.2380 C.2       1 ARG         0.2058
     31 O          -1.1870   10.7160   10.7670 O.2       1 ARG        -0.3942
     32 CB         -3.9160   11.3670   11.9700 C.3       1 ARG        -0.0092
     33 CG         -3.6890   12.8680   12.1320 C.3       1 ARG        -0.0156
     34 CD         -3.9140   13.2930   13.5520 C.3       1 ARG         0.0627
     35 NE         -5.3280   13.4370   13.7560 N.pl3     1 ARG        -0.2723
     36 CZ         -6.0310   14.5410   13.4870 C.cat     1 ARG         0.2882
     37 NH1        -5.4470   15.6330   12.9920 N.pl3     1 ARG        -0.2849
     38 NH2        -7.3380   14.5450   13.7150 N.pl3     1 ARG        -0.2849
     39 N          -1.9510   12.2900    9.3370 N.am      1 PRO        -0.2556
     40 CA         -0.5880   12.6770    8.9960 C.3       1 PRO         0.0972
     41 C           0.2330   13.0600   10.2450 C.2       1 PRO         0.0603
     42 O          -0.2850   13.7810   11.0860 O.co2     1 PRO        -0.5666
     43 CB         -0.7910   13.8940    8.0880 C.3       1 PRO        -0.0159
     44 CG         -2.1360   13.6860    7.4620 C.3       1 PRO        -0.0288
     45 CD         -2.9650   12.9800    8.5130 C.3       1 PRO         0.0362
     46 OXT         1.3730   12.6290   10.3500 O.co2     1 PRO        -0.5666
     47 H1         -8.6365    0.3278    7.6837 H         1 ALA         0.2015
     48 H2         -8.9693    1.1937    9.0435 H         1 ALA         0.2015
     49 H3         -8.3434   -0.3238    9.1666 H         1 ALA         0.2015
     50 H4         -6.3047    0.3575    8.1373 H         1 ALA         0.1095
     51 H5         -5.9851    2.7950    7.7750 H         1 ALA         0.0310
     52 H6         -7.6883    3.0881    8.2647 H         1 ALA         0.0310
     53 H7         -7.3308    2.1566    6.7710 H         1 ALA         0.0310
     54 H8         -5.1659    1.5331   12.2793 H         1 PRO         0.0802
     55 H9         -3.1625    0.3973   11.6877 H         1 PRO         0.0313
     56 H10        -2.5328    2.0596   11.9467 H         1 PRO         0.0313
     57 H11        -2.1105    0.8063    9.6227 H         1 PRO         0.0287
     58 H12        -2.5253    2.5538    9.6496 H         1 PRO         0.0287
     59 H13        -4.2730    1.9135    8.2848 H         1 PRO         0.0524
     60 H14        -4.1919    0.2017    8.8232 H         1 PRO         0.0524
     61 H15        -3.1830    3.6182   12.8254 H         1 ASP         0.1884
     62 H16        -4.9753    5.8897   12.5413 H         1 ASP         0.0819
     63 H17        -2.1068    5.9222   13.5498 H         1 ASP         0.0478
     64 H18        -3.5116    5.4388   14.5597 H         1 ASP         0.0478
     65 H19        -5.1351    6.6927   10.5183 H         1 THR         0.1884
     66 H20        -2.6931    6.9949    8.8765 H         1 THR         0.0826
     67 H21        -4.3013    7.5581    7.0205 H         1 THR         0.0639
     68 H22        -5.9470    8.4364    8.4083 H         1 THR         0.2101
     69 H23        -5.3475    5.3271    6.8582 H         1 THR         0.0257
     70 H24        -5.0192    5.0422    8.6011 H         1 THR         0.0257
     71 H25        -3.6541    5.2067    7.4453 H         1 THR         0.0257
     72 H26        -3.9026    8.8872   11.2387 H         1 ARG         0.1883
     73 H27        -4.2564   11.3952    9.8617 H         1 ARG         0.0800
     74 H28        -3.2817   10.8291   12.6899 H         1 ARG         0.0313
     75 H29        -4.9733   11.1408   12.1723 H         1 ARG         0.0313
     76 H30        -4.3881   13.4106   11.4787 H         1 ARG         0.0301
     77 H31        -2.6553   13.1091   11.8435 H         1 ARG         0.0301
     78 H32        -3.4108   14.2533   13.7379 H         1 ARG         0.0689
     79 H33        -3.5142   12.5309   14.2371 H         1 ARG         0.0689
     80 H34        -5.8388   12.6285   14.1385 H         1 ARG         0.2642
     81 H35        -6.0096   16.4724   12.7925 H         1 ARG         0.2615
     82 H36        -4.4334   15.6370   12.8092 H         1 ARG         0.2615
     83 H37        -7.7967   13.7057   14.0972 H         1 ARG         0.2615
     84 H38        -7.8940   15.3874   13.5098 H         1 ARG         0.2615
     85 H39        -0.0749   11.8654    8.4594 H         1 PRO         0.0728
     86 H40        -0.0076   13.9370    7.3171 H         1 PRO         0.0306
     87 H41        -0.7774   14.8230    8.6768 H         1 PRO         0.0306
     88 H42        -2.0481   13.0635    6.5594 H         1 PRO         0.0286
     89 H43        -2.5911   14.6521    7.1982 H         1 PRO         0.0286
     90 H44        -3.5370   13.7019    9.1144 H         1 PRO         0.0524
     91 H45        -3.6554   12.2586    8.0515 H         1 PRO         0.0524
@<TRIPOS>BOND
     1    1    2 1  
     2    2    3 1  
     3    2    5 1  
     4    3    4 2  
     5    3    6 am 
     6    6    7 1  
     7    6   12 1  
     8    7    8 1  
     9    7   10 1  
    10    8    9 2  
    11    8   13 am 
    12   10   11 1  
    13   11   12 1  
    14   13   14 1  
    15   14   15 1  
    16   14   17 1  
    17   15   16 2  
    18   15   21 am 
    19   17   18 1  
    20   18   19 ar 
    21   18   20 ar 
    22   21   22 1  
    23   22   23 1  
    24   22   25 1  
    25   23   24 2  
    26   23   28 am 
    27   25   26 1  
    28   25   27 1  
    29   28   29 1  
    30   29   30 1  
    31   29   32 1  
    32   30   31 2  
    33   30   39 am 
    34   32   33 1  
    35   33   34 1  
    36   34   35 1  
    37   35   36 ar 
    38   36   37 ar 
    39   36   38 ar 
    40   39   40 1  
    41   39   45 1  
    42   40   41 1  
    43   40   43 1  
    44   41   42 ar 
    45   41   46 ar 
    46   43   44 1  
    47   44   45 1  
    48    1   47 1  
    49    1   48 1  
    50    1   49 1  
    51    2   50 1  
    52    5   51 1  
    53    5   52 1  
    54    5   53 1  
    55    7   54 1  
    56   10   55 1  
    57   10   56 1  
    58   11   57 1  
    59   11   58 1  
    60   12   59 1  
    61   12   60 1  
    62   13   61 1  
    63   14   62 1  
    64   17   63 1  
    65   17   64 1  
    66   21   65 1  
    67   22   66 1  
    68   25   67 1  
    69   26   68 1  
    70   27   69 1  
    71   27   70 1  
    72   27   71 1  
    73   28   72 1  
    74   29   73 1  
    75   32   74 1  
    76   32   75 1  
    77   33   76 1  
    78   33   77 1  
    79   34   78 1  
    80   34   79 1  
    81   35   80 1  
    82   37   81 1  
    83   37   82 1  
    84   38   83 1  
    85   38   84 1  
    86   40   85 1  
    87   43   86 1  
    88   43   87 1  
    89   44   88 1  
    90   44   89 1  
    91   45   90 1  
    92   45   91 1  
@<TRIPOS>SUBSTRUCTURE
     1 ALA         1

