### 
### Created by X-TOOL on Mon Sep 10 21:13:23 2018
### 

@<TRIPOS>MOLECULE
5a2k_ligand
   91    92     1     0     0
SMALL
GAST_HUCK


@<TRIPOS>ATOM
      1 N          13.9590   13.2810    1.1800 N.4       1 ALA         0.2377
      2 CA         13.7960   14.2660    2.2410 C.3       1 ALA         0.0623
      3 C          13.6350   13.8070    3.7010 C.2       1 ALA         0.2289
      4 O          13.5430   14.6840    4.5370 O.2       1 ALA        -0.3905
      5 CB         12.6930   15.2390    1.8820 C.3       1 ALA        -0.0040
      6 N          13.6440   12.4730    4.0260 N.am      1 PRO        -0.2471
      7 CA         14.0190   12.1290    5.4190 C.3       1 PRO         0.1339
      8 C          15.5550   12.1980    5.5660 C.2       1 PRO         0.2042
      9 O          16.2280   12.9160    4.7740 O.2       1 PRO        -0.3944
     10 CB         13.4630   10.7060    5.5980 C.3       1 PRO        -0.0104
     11 CG         13.5790   10.1180    4.2340 C.3       1 PRO        -0.0281
     12 CD         13.2570   11.2630    3.2790 C.3       1 PRO         0.0371
     13 N          16.1150   11.5060    6.5550 N.am      1 ASP        -0.2622
     14 CA         17.5550   11.5110    6.7790 C.3       1 ASP         0.1423
     15 C          18.2350   10.6030    5.7700 C.2       1 ASP         0.2057
     16 O          18.4710    9.4110    6.0360 O.2       1 ASP        -0.3943
     17 CB         17.9330   11.0470    8.1710 C.3       1 ASP         0.0406
     18 CG         19.3960   11.3290    8.4950 C.2       1 ASP         0.0393
     19 OD1        20.0910   11.8890    7.6140 O.co2     1 ASP        -0.5688
     20 OD2        19.8440   11.0050    9.6100 O.co2     1 ASP        -0.5688
     21 N          18.5700   11.1930    4.6300 N.am      1 THR        -0.2612
     22 CA         19.2360   10.4730    3.5390 C.3       1 THR         0.1565
     23 C          20.7610   10.4650    3.6550 C.2       1 THR         0.2065
     24 O          21.4490   10.0800    2.7060 O.2       1 THR        -0.3943
     25 CB         18.8450   11.0890    2.1990 C.3       1 THR         0.0924
     26 OG1        18.9050   12.5310    2.2780 O.3       1 THR        -0.3874
     27 CG2        17.4190   10.6780    1.8370 C.3       1 THR        -0.0346
     28 N          21.3030   10.8970    4.7870 N.am      1 ARG        -0.2636
     29 CA         22.7360   10.8420    4.9710 C.3       1 ARG         0.1312
     30 C          23.2090    9.3970    4.9450 C.2       1 ARG         0.2058
     31 O          22.6480    8.5500    5.6300 O.2       1 ARG        -0.3942
     32 CB         23.1610   11.4870    6.2840 C.3       1 ARG        -0.0092
     33 CG         24.6460   11.2800    6.5670 C.3       1 ARG        -0.0156
     34 CD         25.0260   11.8320    7.9180 C.3       1 ARG         0.0627
     35 NE         25.1240   13.2680    7.8050 N.pl3     1 ARG        -0.2723
     36 CZ         26.2610   13.9580    7.7610 C.cat     1 ARG         0.2882
     37 NH1        27.4430   13.3550    7.8690 N.pl3     1 ARG        -0.2849
     38 NH2        26.1990   15.2790    7.6320 N.pl3     1 ARG        -0.2849
     39 N          24.2730    9.1020    4.1650 N.am      1 PRO        -0.2556
     40 CA         24.7810    7.7230    4.1170 C.3       1 PRO         0.0972
     41 C          25.2390    7.1240    5.4640 C.2       1 PRO         0.0603
     42 O          25.8880    7.8130    6.2610 O.co2     1 PRO        -0.5666
     43 CB         25.9550    7.8140    3.1170 C.3       1 PRO        -0.0159
     44 CG         26.2550    9.2610    2.9810 C.3       1 PRO        -0.0288
     45 CD         24.9570    9.9670    3.1890 C.3       1 PRO         0.0362
     46 OXT        24.9580    5.9530    5.7500 O.co2     1 PRO        -0.5666
     47 H1         14.0499   13.7533    0.2942 H         1 ALA         0.2015
     48 H2         13.1534   12.6756    1.1568 H         1 ALA         0.2015
     49 H3         14.7865   12.7326    1.3548 H         1 ALA         0.2015
     50 H4         14.7349   14.8391    2.2327 H         1 ALA         0.1095
     51 H5         12.5785   15.9775    2.6891 H         1 ALA         0.0310
     52 H6         11.7487   14.6905    1.7503 H         1 ALA         0.0310
     53 H7         12.9504   15.7560    0.9458 H         1 ALA         0.0310
     54 H8         13.5528   12.8177    6.1389 H         1 PRO         0.0802
     55 H9         12.4140   10.7315    5.9280 H         1 PRO         0.0313
     56 H10        14.0622   10.1374    6.3243 H         1 PRO         0.0313
     57 H11        12.8607    9.2948    4.1059 H         1 PRO         0.0287
     58 H12        14.5991    9.7451    4.0597 H         1 PRO         0.0287
     59 H13        13.8408   11.1734    2.3510 H         1 PRO         0.0524
     60 H14        12.1841   11.2798    3.0371 H         1 PRO         0.0524
     61 H15        15.5310   10.9670    7.1620 H         1 ASP         0.1884
     62 H16        17.9212   12.5392    6.6423 H         1 ASP         0.0819
     63 H17        17.7567    9.9636    8.2433 H         1 ASP         0.0478
     64 H18        17.3008   11.5710    8.9029 H         1 ASP         0.0478
     65 H19        18.3610   12.1635    4.5100 H         1 THR         0.1884
     66 H20        18.8882    9.4297    3.5628 H         1 THR         0.0826
     67 H21        19.5381   10.7354    1.4215 H         1 THR         0.0639
     68 H22        18.6599   12.9034    1.4392 H         1 THR         0.2101
     69 H23        17.1428   11.1248    0.8705 H         1 THR         0.0257
     70 H24        16.7268   11.0313    2.6154 H         1 THR         0.0257
     71 H25        17.3605    9.5820    1.7643 H         1 THR         0.0257
     72 H26        20.7197   11.2608    5.5132 H         1 ARG         0.1883
     73 H27        23.2131   11.3873    4.1434 H         1 ARG         0.0800
     74 H28        22.5777   11.0421    7.1036 H         1 ARG         0.0313
     75 H29        22.9563   12.5665    6.2322 H         1 ARG         0.0313
     76 H30        25.2339   11.7929    5.7916 H         1 ARG         0.0301
     77 H31        24.8690   10.2031    6.5439 H         1 ARG         0.0301
     78 H32        25.9947   11.4159    8.2317 H         1 ARG         0.0689
     79 H33        24.2565   11.5681    8.6584 H         1 ARG         0.0689
     80 H34        24.2439   13.8007    7.7544 H         1 ARG         0.2642
     81 H35        28.3097   13.9103    7.8320 H         1 ARG         0.2615
     82 H36        27.4908   12.3332    7.9895 H         1 ARG         0.2615
     83 H37        25.2847   15.7459    7.5484 H         1 ARG         0.2615
     84 H38        27.0652   15.8361    7.6156 H         1 ARG         0.2615
     85 H39        23.9954    7.0665    3.7146 H         1 PRO         0.0728
     86 H40        25.6645    7.3895    2.1447 H         1 PRO         0.0306
     87 H41        26.8320    7.2753    3.5050 H         1 PRO         0.0306
     88 H42        26.6521    9.4772    1.9782 H         1 PRO         0.0286
     89 H43        26.9868    9.5734    3.7405 H         1 PRO         0.0286
     90 H44        25.1151   10.9768    3.5957 H         1 PRO         0.0524
     91 H45        24.3871   10.0347    2.2506 H         1 PRO         0.0524
@<TRIPOS>BOND
     1    1    2 1  
     2    2    3 1  
     3    2    5 1  
     4    3    4 2  
     5    3    6 am 
     6    6    7 1  
     7    6   12 1  
     8    7    8 1  
     9    7   10 1  
    10    8    9 2  
    11    8   13 am 
    12   10   11 1  
    13   11   12 1  
    14   13   14 1  
    15   14   15 1  
    16   14   17 1  
    17   15   16 2  
    18   15   21 am 
    19   17   18 1  
    20   18   19 ar 
    21   18   20 ar 
    22   21   22 1  
    23   22   23 1  
    24   22   25 1  
    25   23   24 2  
    26   23   28 am 
    27   25   26 1  
    28   25   27 1  
    29   28   29 1  
    30   29   30 1  
    31   29   32 1  
    32   30   31 2  
    33   30   39 am 
    34   32   33 1  
    35   33   34 1  
    36   34   35 1  
    37   35   36 ar 
    38   36   37 ar 
    39   36   38 ar 
    40   39   40 1  
    41   39   45 1  
    42   40   41 1  
    43   40   43 1  
    44   41   42 ar 
    45   41   46 ar 
    46   43   44 1  
    47   44   45 1  
    48    1   47 1  
    49    1   48 1  
    50    1   49 1  
    51    2   50 1  
    52    5   51 1  
    53    5   52 1  
    54    5   53 1  
    55    7   54 1  
    56   10   55 1  
    57   10   56 1  
    58   11   57 1  
    59   11   58 1  
    60   12   59 1  
    61   12   60 1  
    62   13   61 1  
    63   14   62 1  
    64   17   63 1  
    65   17   64 1  
    66   21   65 1  
    67   22   66 1  
    68   25   67 1  
    69   26   68 1  
    70   27   69 1  
    71   27   70 1  
    72   27   71 1  
    73   28   72 1  
    74   29   73 1  
    75   32   74 1  
    76   32   75 1  
    77   33   76 1  
    78   33   77 1  
    79   34   78 1  
    80   34   79 1  
    81   35   80 1  
    82   37   81 1  
    83   37   82 1  
    84   38   83 1  
    85   38   84 1  
    86   40   85 1  
    87   43   86 1  
    88   43   87 1  
    89   44   88 1  
    90   44   89 1  
    91   45   90 1  
    92   45   91 1  
@<TRIPOS>SUBSTRUCTURE
     1 ALA         1

