### 
### Created by X-TOOL on Mon Sep 10 21:13:28 2018
### 

@<TRIPOS>MOLECULE
5a2s_ligand
   42    45     1     0     0
SMALL
GAST_HUCK


@<TRIPOS>ATOM
      1 C1         -2.2990  -15.8090  -40.6070 C.2       1 OTF         0.2600
      2 C2         -3.5740  -15.2990  -39.9550 C.3       1 OTF         0.2190
      3 C3         -4.8320  -15.0310  -40.8050 C.3       1 OTF         0.0526
      4 C4         -4.8210  -16.1400  -39.7540 C.3       1 OTF         0.0515
      5 F5         -3.3990  -14.5190  -38.9140 F         1 OTF        -0.2317
      6 O6         -2.1780  -16.2800  -41.7340 O.2       1 OTF        -0.3430
      7 N7         -1.2590  -15.5860  -39.8080 N.am      1 OTF        -0.1599
      8 O8          0.0560  -15.7850  -40.2160 O.3       1 OTF        -0.2706
      9 C9         -4.9590  -17.5090  -40.2760 C.ar      1 OTF        -0.0355
     10 C10        -6.0410  -17.8020  -41.0950 C.ar      1 OTF        -0.0600
     11 C11        -6.2180  -19.0910  -41.5730 C.ar      1 OTF        -0.0686
     12 C12        -5.3280  -20.0890  -41.1960 C.ar      1 OTF        -0.0687
     13 C13        -4.2560  -19.8010  -40.3560 C.ar      1 OTF        -0.0686
     14 C14        -4.0800  -18.5070  -39.8860 C.ar      1 OTF        -0.0600
     15 C15        -5.4390  -13.6990  -40.4910 C.ar      1 OTF        -0.0316
     16 C16        -6.2520  -13.4630  -39.3810 C.ar      1 OTF        -0.0552
     17 C17        -6.7790  -12.1970  -39.1300 C.ar      1 OTF        -0.0532
     18 C18        -6.5110  -11.1400  -39.9890 C.ar      1 OTF         0.0129
     19 C19        -5.6940  -11.3660  -41.0920 C.ar      1 OTF        -0.0532
     20 C20        -5.1700  -12.6310  -41.3360 C.ar      1 OTF        -0.0552
     21 C21        -7.0590   -9.7800  -39.7220 C.ar      1 OTF         0.1197
     22 N22        -7.0920   -8.8440  -40.7110 N.ar      1 OTF        -0.2631
     23 C23        -7.5640   -7.6120  -40.4670 C.ar      1 OTF         0.0607
     24 C24        -8.0130   -7.2940  -39.1850 C.ar      1 OTF         0.1841
     25 C25        -7.9550   -8.2550  -38.1780 C.ar      1 OTF         0.0607
     26 N26        -7.4800   -9.4720  -38.4670 N.ar      1 OTF        -0.2631
     27 F27        -8.4900   -6.0690  -38.9120 F         1 OTF        -0.1683
     28 H1         -4.9047  -15.2723  -41.8757 H         1 OTF         0.0515
     29 H2         -5.3831  -16.0422  -38.8135 H         1 OTF         0.0507
     30 H3         -1.4292  -15.2625  -38.8772 H         1 OTF         0.2233
     31 H4          0.6441  -15.5698  -39.5015 H         1 OTF         0.2497
     32 H5         -6.7469  -17.0233  -41.3605 H         1 OTF         0.0557
     33 H6         -7.0448  -19.3187  -42.2361 H         1 OTF         0.0599
     34 H7         -5.4696  -21.1005  -41.5591 H         1 OTF         0.0559
     35 H8         -3.5622  -20.5834  -40.0704 H         1 OTF         0.0599
     36 H9         -3.2586  -18.2779  -39.2168 H         1 OTF         0.0557
     37 H10        -6.4774  -14.2780  -38.7027 H         1 OTF         0.0569
     38 H11        -7.4025  -12.0369  -38.2578 H         1 OTF         0.0638
     39 H12        -5.4639  -10.5495  -41.7668 H         1 OTF         0.0638
     40 H13        -4.5388  -12.7861  -42.2035 H         1 OTF         0.0569
     41 H14        -7.5961   -6.8713  -41.2579 H         1 OTF         0.0923
     42 H15        -8.2901   -8.0200  -37.1742 H         1 OTF         0.0923
@<TRIPOS>BOND
     1    1    2 1  
     2    1    6 2  
     3    1    7 am 
     4    2    3 1  
     5    2    4 1  
     6    2    5 1  
     7    3    4 1  
     8    3   15 1  
     9    4    9 1  
    10    7    8 1  
    11    9   10 ar 
    12    9   14 ar 
    13   10   11 ar 
    14   11   12 ar 
    15   12   13 ar 
    16   13   14 ar 
    17   15   16 ar 
    18   15   20 ar 
    19   16   17 ar 
    20   17   18 ar 
    21   18   19 ar 
    22   18   21 1  
    23   19   20 ar 
    24   21   22 ar 
    25   21   26 ar 
    26   22   23 ar 
    27   23   24 ar 
    28   24   25 ar 
    29   24   27 1  
    30   25   26 ar 
    31    3   28 1  
    32    4   29 1  
    33    7   30 1  
    34    8   31 1  
    35   10   32 1  
    36   11   33 1  
    37   12   34 1  
    38   13   35 1  
    39   14   36 1  
    40   16   37 1  
    41   17   38 1  
    42   19   39 1  
    43   20   40 1  
    44   23   41 1  
    45   25   42 1  
@<TRIPOS>SUBSTRUCTURE
     1 OTF         1

