### 
### Created by X-TOOL on Mon Sep 10 21:12:46 2018
### 

@<TRIPOS>MOLECULE
5a3h_ligand
   43    44     1     0     0
SMALL
GAST_HUCK


@<TRIPOS>ATOM
      1 C1A        62.5070   41.6540   35.0240 C.3       1 FFC         0.0818
      2 C2A        61.0930   42.0430   34.7490 C.3       1 FFC         0.1523
      3 C3A        61.0240   43.5370   34.5370 C.3       1 FFC         0.1169
      4 C4A        61.6800   44.2340   35.7610 C.3       1 FFC         0.1185
      5 C5A        63.1290   43.7630   35.8750 C.3       1 FFC         0.1104
      6 C6A        63.7780   44.3540   37.1730 C.3       1 FFC         0.0729
      7 F2A        60.7000   41.3620   33.5910 F         1 FFC        -0.2403
      8 O3A        59.6600   43.9120   34.4010 O.3       1 FFC        -0.3862
      9 O4A        61.6790   45.6440   35.4850 O.3       1 FFC        -0.3401
     10 O5A        63.1550   42.3410   36.0810 O.3       1 FFC        -0.3687
     11 O6A        63.0180   43.8560   38.2780 O.3       1 FFC        -0.3924
     12 C1B        61.2130   46.3670   36.6410 C.3       1 FFC         0.1884
     13 C2B        61.4640   47.8370   36.2900 C.3       1 FFC         0.1341
     14 C3B        60.9080   48.6850   37.4480 C.3       1 FFC         0.1141
     15 C4B        59.4010   48.4100   37.5040 C.3       1 FFC         0.1119
     16 C5B        59.2350   46.9030   37.8520 C.3       1 FFC         0.1130
     17 C6B        57.7780   46.4790   37.9720 C.3       1 FFC         0.0730
     18 O2B        62.8610   47.9710   36.2240 O.3       1 FFC        -0.3841
     19 O3B        61.1050   50.0790   37.0540 O.3       1 FFC        -0.3864
     20 O4B        58.9620   49.1990   38.6320 O.3       1 FFC        -0.3865
     21 O5B        59.8420   46.1910   36.7650 O.3       1 FFC        -0.3405
     22 O6B        57.1650   46.8180   36.7380 O.3       1 FFC        -0.3924
     23 H1         63.0870   41.8290   34.1059 H         1 FFC         0.0589
     24 H2         62.5181   40.5810   35.2658 H         1 FFC         0.0589
     25 H3         60.4463   41.7586   35.5921 H         1 FFC         0.0701
     26 H4         61.5707   43.8122   33.6230 H         1 FFC         0.0650
     27 H5         61.1260   44.0120   36.6850 H         1 FFC         0.0651
     28 H6         63.6961   44.0496   34.9771 H         1 FFC         0.0646
     29 H7         63.7375   45.4530   37.1501 H         1 FFC         0.0584
     30 H8         64.8251   44.0272   37.2555 H         1 FFC         0.0584
     31 H9         59.2855   43.4721   33.6468 H         1 FFC         0.2100
     32 H10        63.0547   42.9067   38.2839 H         1 FFC         0.2095
     33 H11        61.7390   46.0614   37.5574 H         1 FFC         0.0938
     34 H12        60.9910   48.1164   35.3370 H         1 FFC         0.0671
     35 H13        61.3999   48.4563   38.4049 H         1 FFC         0.0648
     36 H14        58.8795   48.6765   36.5729 H         1 FFC         0.0647
     37 H15        59.7528   46.6802   38.7966 H         1 FFC         0.0647
     38 H16        57.2914   47.0157   38.7997 H         1 FFC         0.0584
     39 H17        57.7092   45.3952   38.1470 H         1 FFC         0.0584
     40 H18        63.0840   48.8830   36.0794 H         1 FFC         0.2101
     41 H19        62.0353   50.2672   37.0142 H         1 FFC         0.2100
     42 H20        58.0493   49.0086   38.8141 H         1 FFC         0.2100
     43 H21        57.5996   46.3543   36.0319 H         1 FFC         0.2095
@<TRIPOS>BOND
     1    1    2 1  
     2    1   10 1  
     3    2    3 1  
     4    2    7 1  
     5    3    4 1  
     6    3    8 1  
     7    4    5 1  
     8    4    9 1  
     9    5    6 1  
    10    5   10 1  
    11    6   11 1  
    12    9   12 1  
    13   12   13 1  
    14   12   21 1  
    15   13   14 1  
    16   13   18 1  
    17   14   15 1  
    18   14   19 1  
    19   15   16 1  
    20   15   20 1  
    21   16   17 1  
    22   16   21 1  
    23   17   22 1  
    24    1   23 1  
    25    1   24 1  
    26    2   25 1  
    27    3   26 1  
    28    4   27 1  
    29    5   28 1  
    30    6   29 1  
    31    6   30 1  
    32    8   31 1  
    33   11   32 1  
    34   12   33 1  
    35   13   34 1  
    36   14   35 1  
    37   15   36 1  
    38   16   37 1  
    39   17   38 1  
    40   17   39 1  
    41   18   40 1  
    42   19   41 1  
    43   20   42 1  
    44   22   43 1  
@<TRIPOS>SUBSTRUCTURE
     1 FFC         1

