### 
### Created by X-TOOL on Mon Sep 10 21:13:23 2018
### 

@<TRIPOS>MOLECULE
5a3n_ligand
   49    49     1     0     0
SMALL
GAST_HUCK


@<TRIPOS>ATOM
      1 N01        88.3210   63.3920   14.2630 N.am      1 LQT        -0.2984
      2 C02        87.7930   64.6800   14.5060 C.2       1 LQT         0.2108
      3 C03        86.6070   65.1870   13.7140 C.ar      1 LQT         0.0627
      4 C04        86.4310   66.6070   13.5910 C.ar      1 LQT        -0.0218
      5 C05        85.3370   67.1150   12.8840 C.ar      1 LQT         0.0083
      6 N06        84.4470   66.2850   12.3560 N.ar      1 LQT        -0.2882
      7 C07        84.5980   64.9210   12.4590 C.ar      1 LQT         0.0777
      8 C08        83.4520   64.1130   11.8160 C.3       1 LQT         0.0184
      9 N09        82.2350   64.9130   11.9730 N.4       1 LQT         0.2579
     10 C10        81.6480   64.7050   13.2860 C.3       1 LQT         0.0579
     11 C11        80.6610   63.5620   13.2520 C.2       1 LQT         0.2241
     12 N12        79.9590   63.0970   14.4360 N.am      1 LQT        -0.2640
     13 C13        80.1810   63.6780   15.7470 C.3       1 LQT         0.0314
     14 C14        79.2770   64.8980   15.9530 C.3       1 LQT        -0.0446
     15 C15        78.9740   61.9870   14.3130 C.3       1 LQT         0.0739
     16 C16        79.7230   60.6570   14.0830 C.3       1 LQT        -0.0115
     17 N17        79.0760   59.7680   13.1680 N.4       1 LQT         0.2323
     18 C18        79.7290   58.4070   13.2010 C.3       1 LQT        -0.0433
     19 C19        78.9890   60.2650   11.7620 C.3       1 LQT        -0.0433
     20 O20        80.4380   63.0160   12.1370 O.2       1 LQT        -0.3910
     21 C21        85.6620   64.3290   13.1590 C.ar      1 LQT        -0.0079
     22 O22        88.2690   65.3850   15.4050 O.2       1 LQT        -0.3796
     23 H1         89.1048   63.0651   14.7910 H         1 LQT         0.1811
     24 H2         87.9108   62.8074   13.5630 H         1 LQT         0.1811
     25 H3         87.1453   67.2839   14.0456 H         1 LQT         0.0701
     26 H4         85.2162   68.1859   12.7674 H         1 LQT         0.0813
     27 H5         83.3379   63.1449   12.3257 H         1 LQT         0.1010
     28 H6         83.6595   63.9435   10.7491 H         1 LQT         0.1010
     29 H7         81.5686   64.6434   11.2664 H         1 LQT         0.2049
     30 H8         82.4642   65.8885   11.8640 H         1 LQT         0.2049
     31 H9         81.1280   65.6224   13.5990 H         1 LQT         0.1062
     32 H10        82.4462   64.4720   14.0061 H         1 LQT         0.1062
     33 H11        81.2329   63.9884   15.8321 H         1 LQT         0.0519
     34 H12        79.9567   62.9268   16.5186 H         1 LQT         0.0519
     35 H13        79.4587   65.3247   16.9505 H         1 LQT         0.0249
     36 H14        78.2236   64.5918   15.8715 H         1 LQT         0.0249
     37 H15        79.4998   65.6533   15.1850 H         1 LQT         0.0249
     38 H16        78.3052   62.1830   13.4619 H         1 LQT         0.0575
     39 H17        78.3812   61.9188   15.2371 H         1 LQT         0.0575
     40 H18        79.8199   60.1442   15.0513 H         1 LQT         0.0834
     41 H19        80.7235   60.8887   13.6890 H         1 LQT         0.0834
     42 H20        78.1287   59.6582   13.4946 H         1 LQT         0.2028
     43 H21        79.2188   57.7383   12.4922 H         1 LQT         0.0777
     44 H22        79.6560   57.9898   14.2162 H         1 LQT         0.0777
     45 H23        80.7879   58.5014   12.9186 H         1 LQT         0.0777
     46 H24        78.5119   61.2561   11.7523 H         1 LQT         0.0777
     47 H25        78.3904   59.5641   11.1617 H         1 LQT         0.0777
     48 H26        80.0006   60.3409   11.3366 H         1 LQT         0.0777
     49 H27        85.7435   63.2530   13.2623 H         1 LQT         0.0702
@<TRIPOS>BOND
     1    1    2 am 
     2    2    3 1  
     3    2   22 2  
     4    3    4 ar 
     5    3   21 ar 
     6    4    5 ar 
     7    5    6 ar 
     8    6    7 ar 
     9    7    8 1  
    10    7   21 ar 
    11    8    9 1  
    12    9   10 1  
    13   10   11 1  
    14   11   12 am 
    15   11   20 2  
    16   12   13 1  
    17   12   15 1  
    18   13   14 1  
    19   15   16 1  
    20   16   17 1  
    21   17   18 1  
    22   17   19 1  
    23    1   23 1  
    24    1   24 1  
    25    4   25 1  
    26    5   26 1  
    27    8   27 1  
    28    8   28 1  
    29    9   29 1  
    30    9   30 1  
    31   10   31 1  
    32   10   32 1  
    33   13   33 1  
    34   13   34 1  
    35   14   35 1  
    36   14   36 1  
    37   14   37 1  
    38   15   38 1  
    39   15   39 1  
    40   16   40 1  
    41   16   41 1  
    42   17   42 1  
    43   18   43 1  
    44   18   44 1  
    45   18   45 1  
    46   19   46 1  
    47   19   47 1  
    48   19   48 1  
    49   21   49 1  
@<TRIPOS>SUBSTRUCTURE
     1 LQT         1

