### 
### Created by X-TOOL on Mon Sep 10 21:13:22 2018
### 

@<TRIPOS>MOLECULE
5a3o_ligand
   44    45     1     0     0
SMALL
GAST_HUCK


@<TRIPOS>ATOM
      1 C1        -18.6480  -11.6050   21.4630 C.3       1 MMA         0.1876
      2 C2        -18.0870  -10.7670   20.3080 C.3       1 MMA         0.1341
      3 C3        -17.4030  -11.5810   19.2280 C.3       1 MMA         0.1141
      4 C4        -16.3730  -12.5020   19.8220 C.3       1 MMA         0.1116
      5 C5        -17.1100  -13.3610   20.8540 C.3       1 MMA         0.1099
      6 C6        -16.2280  -14.3910   21.5240 C.3       1 MMA         0.0587
      7 C7        -20.5280  -12.9430   21.9860 C.3       1 MMA         0.0395
      8 O1        -19.7620  -12.3380   20.9270 O.3       1 MMA        -0.3520
      9 O2        -17.1390   -9.8370   20.7920 O.3       1 MMA        -0.3841
     10 O3        -16.7400  -10.7040   18.3030 O.3       1 MMA        -0.3864
     11 O4        -15.7600  -13.2640   18.7790 O.3       1 MMA        -0.3865
     12 O5        -17.6290  -12.5110   21.9030 O.3       1 MMA        -0.3408
     13 C1        -16.9310  -16.1360   23.0740 C.2       1 DH6         0.1921
     14 N1        -17.1520  -15.4250   22.0000 N.am      1 DH6        -0.2860
     15 O1        -15.9600  -15.9060   23.7940 O.2       1 DH6        -0.3905
     16 C2        -17.8480  -17.2250   23.4370 C.2       1 DH6         0.0112
     17 C3        -17.5210  -18.0380   24.4700 C.2       1 DH6        -0.0379
     18 C4        -18.2630  -19.2840   24.8150 C.ar      1 DH6        -0.0147
     19 C5        -17.8420  -20.0280   25.9260 C.ar      1 DH6        -0.0501
     20 C6        -18.5480  -21.1790   26.2900 C.ar      1 DH6        -0.0580
     21 C7        -19.6640  -21.5430   25.5460 C.ar      1 DH6        -0.0589
     22 C8        -20.0840  -20.7890   24.4740 C.ar      1 DH6        -0.0580
     23 C9        -19.3960  -19.6480   24.1120 C.ar      1 DH6        -0.0501
     24 H1        -18.9708  -10.9624   22.2954 H         1 MMA         0.0937
     25 H2        -18.9260  -10.2216   19.8514 H         1 MMA         0.0671
     26 H3        -18.1590  -12.1756   18.6943 H         1 MMA         0.0648
     27 H4        -15.5937  -11.9160   20.3311 H         1 MMA         0.0647
     28 H5        -17.9396  -13.8766   20.3481 H         1 MMA         0.0644
     29 H6        -15.6809  -13.9430   22.3666 H         1 MMA         0.0545
     30 H7        -15.5112  -14.8137   20.8046 H         1 MMA         0.0545
     31 H8        -21.3743  -13.4982   21.5553 H         1 MMA         0.0525
     32 H9        -20.9076  -12.1592   22.6579 H         1 MMA         0.0525
     33 H10       -19.8872  -13.6338   22.5536 H         1 MMA         0.0525
     34 H11       -17.5359   -9.3076   21.4736 H         1 MMA         0.2101
     35 H12       -17.3761  -10.1135   17.9168 H         1 MMA         0.2100
     36 H13       -16.4264  -13.7575   18.3153 H         1 MMA         0.2100
     37 H14       -17.9890  -15.5938   21.4794 H         1 MMA         0.1837
     38 H15       -18.7746  -17.3760   22.8851 H         1 MMA         0.0668
     39 H16       -16.6649  -17.7650   25.0852 H         1 MMA         0.0747
     40 H17       -16.9765  -19.7138   26.4981 H         1 MMA         0.0650
     41 H18       -18.2306  -21.7764   27.1370 H         1 MMA         0.0626
     42 H19       -20.2139  -22.4375   25.8151 H         1 MMA         0.0641
     43 H20       -20.9593  -21.0924   23.9111 H         1 MMA         0.0626
     44 H21       -19.7419  -19.0420   23.2824 H         1 MMA         0.0650
@<TRIPOS>BOND
     1    1    2 1  
     2    1    8 1  
     3    1   12 1  
     4    2    3 1  
     5    2    9 1  
     6    3    4 1  
     7    3   10 1  
     8    4    5 1  
     9    4   11 1  
    10    5    6 1  
    11    5   12 1  
    12    6   14 1  
    13    8    7 1  
    14   14   13 am 
    15   13   15 2  
    16   13   16 1  
    17   16   17 2  
    18   17   18 1  
    19   18   19 ar 
    20   18   23 ar 
    21   19   20 ar 
    22   20   21 ar 
    23   21   22 ar 
    24   22   23 ar 
    25    1   24 1  
    26    2   25 1  
    27    3   26 1  
    28    4   27 1  
    29    5   28 1  
    30    6   29 1  
    31    6   30 1  
    32    7   31 1  
    33    7   32 1  
    34    7   33 1  
    35    9   34 1  
    36   10   35 1  
    37   11   36 1  
    38   14   37 1  
    39   16   38 1  
    40   17   39 1  
    41   19   40 1  
    42   20   41 1  
    43   21   42 1  
    44   22   43 1  
    45   23   44 1  
@<TRIPOS>SUBSTRUCTURE
     1 MMA         1

