### 
### Created by X-TOOL on Mon Sep 10 21:13:24 2018
### 

@<TRIPOS>MOLECULE
5a3t_ligand
   47    47     1     0     0
SMALL
GAST_HUCK


@<TRIPOS>ATOM
      1 OAT        88.1370   65.2640   15.0270 O.co2     1 MMK        -0.5575
      2 CAS        87.6290   64.6530   14.0300 C.2       1 MMK         0.0705
      3 OAU        88.1550   63.5840   13.6390 O.co2     1 MMK        -0.5575
      4 CAO        86.4620   65.1600   13.4130 C.ar      1 MMK         0.0232
      5 CAN        85.4760   64.3210   12.8690 C.ar      1 MMK        -0.0134
      6 CAP        86.2300   66.5390   13.3570 C.ar      1 MMK        -0.0272
      7 CAQ        85.0910   67.0590   12.7450 C.ar      1 MMK         0.0064
      8 NAR        84.1490   66.1810   12.2090 N.ar      1 MMK        -0.2901
      9 CAM        84.3320   64.8600   12.2670 C.ar      1 MMK         0.0758
     10 CAL        83.2950   64.0620   11.7180 C.3       1 MMK         0.0180
     11 N          82.0320   64.8420   11.8780 N.4       1 MMK         0.2579
     12 CA         81.4550   64.6460   13.2030 C.3       1 MMK         0.0579
     13 C          80.4130   63.5170   13.1360 C.2       1 MMK         0.2241
     14 O          80.2090   62.9420   12.0640 O.2       1 MMK        -0.3910
     15 NAC        79.8120   63.1450   14.2920 N.am      1 MMK        -0.2640
     16 CAB        80.0540   63.7290   15.6310 C.3       1 MMK         0.0314
     17 CAA        79.0250   64.8300   15.8260 C.3       1 MMK        -0.0446
     18 CAD        78.7880   62.0780   14.2560 C.3       1 MMK         0.0739
     19 CAE        79.4820   60.7140   14.2960 C.3       1 MMK        -0.0115
     20 NAF        79.0630   59.7110   13.2730 N.4       1 MMK         0.2323
     21 CAH        77.6930   59.8160   12.7250 C.3       1 MMK        -0.0433
     22 CAG        79.2280   58.3580   13.8510 C.3       1 MMK        -0.0433
     23 H1         85.6016   63.2453   12.9155 H         1 MMK         0.0685
     24 H2         86.9513   67.2168   13.7989 H         1 MMK         0.0684
     25 H3         84.9393   68.1307   12.6864 H         1 MMK         0.0809
     26 H4         83.2232   63.1069   12.2590 H         1 MMK         0.1010
     27 H5         83.4888   63.8665   10.6530 H         1 MMK         0.1010
     28 H6         81.3683   64.5393   11.1824 H         1 MMK         0.2049
     29 H7         82.2318   65.8214   11.7481 H         1 MMK         0.2049
     30 H8         80.9698   65.5758   13.5347 H         1 MMK         0.1062
     31 H9         82.2488   64.3728   13.9138 H         1 MMK         0.1062
     32 H10        81.0699   64.1475   15.6830 H         1 MMK         0.0519
     33 H11        79.9347   62.9584   16.4068 H         1 MMK         0.0519
     34 H12        79.1676   65.2945   16.8129 H         1 MMK         0.0249
     35 H13        78.0137   64.4017   15.7651 H         1 MMK         0.0249
     36 H14        79.1489   65.5908   15.0413 H         1 MMK         0.0249
     37 H15        78.1989   62.1642   13.3311 H         1 MMK         0.0575
     38 H16        78.1218   62.1776   15.1257 H         1 MMK         0.0575
     39 H17        79.2949   60.2752   15.2872 H         1 MMK         0.0834
     40 H18        80.5609   60.8866   14.1692 H         1 MMK         0.0834
     41 H19        79.6959   59.8085   12.4945 H         1 MMK         0.2028
     42 H20        77.5305   59.0155   11.9882 H         1 MMK         0.0777
     43 H21        77.5670   60.7940   12.2376 H         1 MMK         0.0777
     44 H22        76.9628   59.7164   13.5416 H         1 MMK         0.0777
     45 H23        80.2420   58.2575   14.2653 H         1 MMK         0.0777
     46 H24        79.0763   57.6028   13.0658 H         1 MMK         0.0777
     47 H25        78.4884   58.2085   14.6514 H         1 MMK         0.0777
@<TRIPOS>BOND
     1    1    2 ar 
     2    2    3 ar 
     3    2    4 1  
     4    4    5 ar 
     5    4    6 ar 
     6    5    9 ar 
     7    6    7 ar 
     8    7    8 ar 
     9    8    9 ar 
    10    9   10 1  
    11   10   11 1  
    12   11   12 1  
    13   12   13 1  
    14   13   14 2  
    15   13   15 am 
    16   15   16 1  
    17   15   18 1  
    18   16   17 1  
    19   18   19 1  
    20   19   20 1  
    21   20   21 1  
    22   20   22 1  
    23    5   23 1  
    24    6   24 1  
    25    7   25 1  
    26   10   26 1  
    27   10   27 1  
    28   11   28 1  
    29   11   29 1  
    30   12   30 1  
    31   12   31 1  
    32   16   32 1  
    33   16   33 1  
    34   17   34 1  
    35   17   35 1  
    36   17   36 1  
    37   18   37 1  
    38   18   38 1  
    39   19   39 1  
    40   19   40 1  
    41   20   41 1  
    42   21   42 1  
    43   21   43 1  
    44   21   44 1  
    45   22   45 1  
    46   22   46 1  
    47   22   47 1  
@<TRIPOS>SUBSTRUCTURE
     1 MMK         1

