### 
### Created by X-TOOL on Mon Sep 10 21:13:24 2018
### 

@<TRIPOS>MOLECULE
5a3u_ligand
   27    29     1     0     0
SMALL
GAST_HUCK


@<TRIPOS>ATOM
      1 OAA       -21.2720   25.3900   -1.3770 O.co2     1 R8J        -0.5627
      2 OAB       -19.7650   31.9570    1.7370 O.2       1 R8J        -0.3740
      3 OAC       -21.3650   27.0620   -2.7520 O.co2     1 R8J        -0.5627
      4 CAD       -19.5040   34.9890    4.6130 C.2       1 R8J         0.0216
      5 CAE       -21.1980   28.8740   -0.6920 C.ar      1 R8J        -0.0409
      6 CAF       -21.0220   29.7310    0.3900 C.ar      1 R8J        -0.0032
      7 CAG       -20.1870   34.0610    3.9680 C.2       1 R8J         0.0789
      8 CAH       -20.7850   27.0080    0.7490 C.ar      1 R8J         0.0091
      9 CAI       -20.4840   30.7120    4.7280 C.2       1 R8J         0.0704
     10 NAJ       -18.6220   34.3320    5.3590 N.2       1 R8J        -0.2289
     11 NAK       -20.6120   27.8930    1.8230 N.ar      1 R8J        -0.2747
     12 NAL       -18.7650   33.1310    5.1770 N.2       1 R8J        -0.0910
     13 NAM       -20.7700   29.6930    3.9130 N.2       1 R8J        -0.1742
     14 CAN       -21.2480   26.6230   -1.5840 C.2       1 R8J         0.0606
     15 CAO       -21.0790   27.5010   -0.5150 C.ar      1 R8J         0.0221
     16 CAP       -20.7260   29.2210    1.6520 C.ar      1 R8J         0.1806
     17 CAQ       -20.0650   31.7040    3.9590 C.3       1 R8J         0.2298
     18 CAR       -20.1000   31.2820    2.7100 C.2       1 R8J         0.2920
     19 NAS       -19.6700   32.9060    4.3680 N.pl3     1 R8J        -0.1364
     20 NAT       -20.5480   30.0250    2.7050 N.am      1 R8J        -0.0930
     21 H1        -19.6360   36.0680    4.5473 H         1 R8J         0.0544
     22 H2        -21.4277   29.2770   -1.6718 H         1 R8J         0.0724
     23 H3        -21.1158   30.8018    0.2500 H         1 R8J         0.0621
     24 H4        -21.0003   34.2113    3.2596 H         1 R8J         0.1021
     25 H5        -20.6892   25.9397    0.9057 H         1 R8J         0.0815
     26 H6        -20.5774   30.7240    5.8129 H         1 R8J         0.0894
     27 H7        -21.0838   32.1114    3.8810 H         1 R8J         0.1147
@<TRIPOS>BOND
     1   14    1 ar 
     2   18    2 2  
     3   14    3 ar 
     4    7    4 2  
     5   10    4 1  
     6    6    5 ar 
     7    5   15 ar 
     8   16    6 ar 
     9   19    7 1  
    10   11    8 ar 
    11    8   15 ar 
    12    9   13 2  
    13   17    9 1  
    14   12   10 2  
    15   16   11 ar 
    16   19   12 1  
    17   13   20 1  
    18   15   14 1  
    19   20   16 1  
    20   17   18 1  
    21   17   19 1  
    22   18   20 am 
    23    4   21 1  
    24    5   22 1  
    25    6   23 1  
    26    7   24 1  
    27    8   25 1  
    28    9   26 1  
    29   17   27 1  
@<TRIPOS>SUBSTRUCTURE
     1 R8J         1

