### 
### Created by X-TOOL on Mon Sep 10 21:13:23 2018
### 

@<TRIPOS>MOLECULE
5a3w_ligand
   15    15     1     0     0
SMALL
GAST_HUCK


@<TRIPOS>ATOM
      1 O42        88.4210   63.3640   14.0130 O.co2     1 PD2        -0.5574
      2 C41        87.9330   64.5050   14.3700 C.2       1 PD2         0.0728
      3 O41        88.5150   65.1990   15.2740 O.co2     1 PD2        -0.5574
      4 C4         86.6610   65.0620   13.7100 C.ar      1 PD2         0.0333
      5 C5         86.5300   66.4500   13.4930 C.ar      1 PD2        -0.0173
      6 C6         85.3780   66.9480   12.8780 C.ar      1 PD2         0.0184
      7 C3         85.6040   64.1930   13.3050 C.ar      1 PD2        -0.0054
      8 C2         84.5310   64.7920   12.7190 C.ar      1 PD2         0.0862
      9 N1         84.4230   66.1180   12.5210 N.ar      1 PD2        -0.2790
     10 C21        83.3320   63.9510   12.2990 C.2       1 PD2         0.0817
     11 O21        82.2430   64.5810   12.0990 O.co2     1 PD2        -0.5572
     12 O22        83.4190   62.7320   12.2130 O.co2     1 PD2        -0.5572
     13 H1         87.3187   67.1266   13.8017 H         1 PD2         0.0763
     14 H2         85.2726   68.0115   12.6966 H         1 PD2         0.0842
     15 H3         85.6525   63.1205   13.4549 H         1 PD2         0.0779
@<TRIPOS>BOND
     1    1    2 ar 
     2    2    3 ar 
     3    2    4 1  
     4    4    5 ar 
     5    4    7 ar 
     6    5    6 ar 
     7    6    9 ar 
     8    7    8 ar 
     9    8    9 ar 
    10    8   10 1  
    11   10   11 ar 
    12   10   12 ar 
    13    5   13 1  
    14    6   14 1  
    15    7   15 1  
@<TRIPOS>SUBSTRUCTURE
     1 PD2         1

