### 
### Created by X-TOOL on Mon Sep 10 21:13:30 2018
### 

@<TRIPOS>MOLECULE
5a3x_ligand
   22    23     1     0     0
SMALL
GAST_HUCK


@<TRIPOS>ATOM
      1 CAA         3.1570   24.4550   15.6580 C.3       1 QIV         0.0344
      2 OAB         5.5140   24.3170   15.2720 O.2       1 QIV        -0.3788
      3 OAC         7.8140   29.9100    9.4170 O.3       1 QIV        -0.3395
      4 CAD         8.7820   28.2190   10.7830 C.ar      1 QIV        -0.0459
      5 CAE         8.6150   27.2450   11.7510 C.ar      1 QIV        -0.0612
      6 CAF         6.4430   28.6520   10.9320 C.ar      1 QIV        -0.0377
      7 NAG         5.1980   27.3170   12.4960 N.2       1 QIV        -0.3129
      8 NAH         4.3120   25.8700   14.0820 N.am      1 QIV        -0.1895
      9 SAI         6.9590   25.9060   13.4210 S.3       1 QIV         0.0228
     10 CAJ         4.4600   24.8770   14.9820 C.2       1 QIV         0.2149
     11 CAK         7.6780   28.9430   10.3630 C.ar      1 QIV         0.0725
     12 CAL         5.3490   26.3470   13.3890 C.2       1 QIV         0.2096
     13 CAM         6.3250   27.6990   11.8670 C.ar      1 QIV        -0.0025
     14 CAN         7.4160   27.0010   12.2660 C.ar      1 QIV         0.0372
     15 H1          2.3285   25.0664   15.2711 H         1 QIV         0.0475
     16 H2          3.2438   24.6008   16.7448 H         1 QIV         0.0475
     17 H3          2.9602   23.3939   15.4449 H         1 QIV         0.0475
     18 H4          6.9673   30.3054    9.2459 H         1 QIV         0.2457
     19 H5          9.7610   28.4127   10.3598 H         1 QIV         0.0465
     20 H6          9.4717   26.6753   12.0924 H         1 QIV         0.0532
     21 H7          5.5647   29.2028   10.6154 H         1 QIV         0.0439
     22 H8          3.4033   26.2588   13.9297 H         1 QIV         0.2449
@<TRIPOS>BOND
     1   10    1 1  
     2   10    2 2  
     3   11    3 1  
     4    4    5 ar 
     5   11    4 ar 
     6    5   14 ar 
     7    6   11 ar 
     8   13    6 ar 
     9   12    7 2  
    10    7   13 1  
    11    8   10 am 
    12    8   12 1  
    13   12    9 1  
    14    9   14 1  
    15   13   14 ar 
    16    1   15 1  
    17    1   16 1  
    18    1   17 1  
    19    3   18 1  
    20    4   19 1  
    21    5   20 1  
    22    6   21 1  
    23    8   22 1  
@<TRIPOS>SUBSTRUCTURE
     1 QIV         1

