### 
### Created by X-TOOL on Mon Sep 10 21:13:23 2018
### 

@<TRIPOS>MOLECULE
5a46_ligand
   54    58     1     0     0
SMALL
GAST_HUCK


@<TRIPOS>ATOM
      1 C1         81.1360    5.2080    1.2470 C.3       1 38O        -0.0430
      2 C3         81.4500    3.3500    2.7520 C.3       1 38O        -0.0122
      3 C4         82.1710    2.8520    3.9900 C.3       1 38O         0.0655
      4 C6         84.1080    4.2300    3.3330 C.3       1 38O         0.0655
      5 C7         83.3230    4.6830    2.1190 C.3       1 38O        -0.0122
      6 C8         84.4190    2.2460    4.7480 C.ar      1 38O         0.0261
      7 C12        86.9490    1.3880    8.4260 C.2       1 38O         0.1461
      8 N13        86.7990    0.3560    7.6130 N.2       1 38O        -0.3233
      9 C15        85.5020    0.1830    5.4460 C.ar      1 38O        -0.0732
     10 C16        84.7050    0.8830    4.5550 C.ar      1 38O        -0.0580
     11 C17        87.8200    1.3410    9.6160 C.3       1 38O         0.1820
     12 C18        87.6820    2.3090   10.6930 C.3       1 38O         0.0439
     13 C21        88.2060    2.8300   13.1540 C.ar      1 38O         0.1259
     14 C23        88.8170    2.5310   14.3500 C.ar      1 38O        -0.0500
     15 C24        89.5360    1.3560   14.4520 C.ar      1 38O        -0.0839
     16 O29        88.8430   -0.6660    8.9690 O.2       1 38O        -0.3808
     17 N2         81.8900    4.6970    2.4010 N.4       1 38O         0.2358
     18 N5         83.6270    2.9320    3.8220 N.pl3     1 38O        -0.3041
     19 C9         84.9320    2.8980    5.8800 C.ar      1 38O        -0.0263
     20 C10        85.7190    2.1820    6.7780 C.ar      1 38O         0.0666
     21 N11        86.3840    2.5290    7.9450 N.pl3     1 38O        -0.2491
     22 C14        86.0030    0.8340    6.5720 C.ar      1 38O         0.0102
     23 N19        86.9620    3.4580   10.5810 N.4       1 38O         0.2343
     24 C20        88.2880    2.0310   12.0120 C.ar      1 38O         0.0643
     25 F22        87.5300    3.9960   13.0700 F         1 38O        -0.1934
     26 C25        89.6510    0.5110   13.3650 C.ar      1 38O        -0.0511
     27 C26        89.0660    0.8450   12.1410 C.ar      1 38O         0.0729
     28 N27        89.2230   -0.0030   11.0520 N.am      1 38O        -0.2348
     29 C28        88.6910    0.2000    9.8270 C.2       1 38O         0.2322
     30 H1         80.0615    5.2092    1.4825 H         1 38O         0.0778
     31 H2         81.3194    4.5635    0.3746 H         1 38O         0.0778
     32 H3         81.4628    6.2336    1.0204 H         1 38O         0.0778
     33 H4         80.3674    3.3638    2.9464 H         1 38O         0.0834
     34 H5         81.6633    2.6712    1.9131 H         1 38O         0.0834
     35 H6         81.8877    1.8052    4.1740 H         1 38O         0.0564
     36 H7         81.8744    3.4690    4.8510 H         1 38O         0.0564
     37 H8         83.9968    4.9780    4.1318 H         1 38O         0.0564
     38 H9         85.1699    4.1396    3.0605 H         1 38O         0.0564
     39 H10        83.5193    3.9931    1.2851 H         1 38O         0.0834
     40 H11        83.6450    5.6970    1.8396 H         1 38O         0.0834
     41 H12        85.7338   -0.8611    5.2692 H         1 38O         0.0517
     42 H13        84.2941    0.3703    3.6928 H         1 38O         0.0441
     43 H14        88.6086    1.9259    9.1200 H         1 38O         0.0877
     44 H15        88.5905    2.8260   10.3505 H         1 38O         0.1036
     45 H16        88.7357    3.2043   15.1956 H         1 38O         0.0459
     46 H17        90.0126    1.0954   15.3901 H         1 38O         0.0512
     47 H18        81.7217    5.3062    3.1862 H         1 38O         0.2032
     48 H19        84.7180    3.9465    6.0531 H         1 38O         0.0418
     49 H20        86.4394    3.4676    8.3656 H         1 38O         0.2308
     50 H21        87.0084    3.9695   11.4484 H         1 38O         0.2011
     51 H22        86.0013    3.2337   10.3742 H         1 38O         0.2011
     52 H23        87.3429    4.0221    9.8375 H         1 38O         0.2011
     53 H24        90.1996   -0.4188   13.4626 H         1 38O         0.0449
     54 H25        89.7725   -0.8278   11.1852 H         1 38O         0.2235
@<TRIPOS>BOND
     1   17    1 1  
     2    3    2 1  
     3    2   17 1  
     4   18    3 1  
     5    4    5 1  
     6   18    4 1  
     7    5   17 1  
     8   10    6 ar 
     9    6   18 1  
    10    6   19 ar 
    11    7    8 2  
    12   11    7 1  
    13    7   21 1  
    14    8   22 1  
    15    9   10 ar 
    16   22    9 ar 
    17   12   11 1  
    18   11   29 1  
    19   12   23 1  
    20   24   12 1  
    21   13   14 ar 
    22   13   24 ar 
    23   13   25 1  
    24   14   15 ar 
    25   15   26 ar 
    26   29   16 2  
    27   19   20 ar 
    28   20   21 1  
    29   20   22 ar 
    30   24   27 ar 
    31   26   27 ar 
    32   27   28 1  
    33   28   29 am 
    34    1   30 1  
    35    1   31 1  
    36    1   32 1  
    37    2   33 1  
    38    2   34 1  
    39    3   35 1  
    40    3   36 1  
    41    4   37 1  
    42    4   38 1  
    43    5   39 1  
    44    5   40 1  
    45    9   41 1  
    46   10   42 1  
    47   11   43 1  
    48   12   44 1  
    49   14   45 1  
    50   15   46 1  
    51   17   47 1  
    52   19   48 1  
    53   21   49 1  
    54   23   50 1  
    55   23   51 1  
    56   23   52 1  
    57   26   53 1  
    58   28   54 1  
@<TRIPOS>SUBSTRUCTURE
     1 38O         1

