### 
### Created by X-TOOL on Mon Sep 10 21:13:24 2018
### 

@<TRIPOS>MOLECULE
5a4c_ligand
   77    79     1     0     0
SMALL
GAST_HUCK


@<TRIPOS>ATOM
      1 C          86.0320    1.9350    2.4060 C.3       1 XOJ        -0.0245
      2 N          83.9840    0.9240    3.4680 N.4       1 XOJ         0.2349
      3 O          86.5190    5.8110   14.0580 O.2       1 XOJ        -0.3854
      4 C1         85.1410    0.7350    2.5630 C.3       1 XOJ        -0.0348
      5 N1         86.5840    0.0890    7.6370 N.pl3     1 XOJ        -0.2883
      6 O1         88.5870    0.0970   17.7770 O.3       1 XOJ        -0.3244
      7 C2         83.0190   -0.1950    3.5120 C.3       1 XOJ        -0.0348
      8 N2         88.0270   -0.7640    9.2080 N.ar      1 XOJ        -0.2480
      9 O2         91.9740    3.3320   16.3820 O.3       1 XOJ        -0.3244
     10 C3         81.5820    0.2370    3.7010 C.3       1 XOJ        -0.0245
     11 N3         87.2210    2.5790   11.5060 N.ar      1 XOJ        -0.2741
     12 C4         84.3660    1.4020    4.8140 C.3       1 XOJ        -0.0300
     13 N4         86.9140    1.3850    9.5340 N.ar      1 XOJ        -0.2590
     14 C5         85.3430    0.5230    5.5860 C.3       1 XOJ         0.0082
     15 N5         87.2740    3.7270   13.5340 N.am      1 XOJ        -0.1939
     16 C6         85.6680    1.0140    6.9920 C.3       1 XOJ         0.0366
     17 N6         86.1580    4.9800   11.9620 N.am      1 XOJ        -0.2605
     18 C7         87.1990    0.2440    8.8280 C.ar      1 XOJ         0.1838
     19 C8         88.5960   -0.6200   10.3820 C.ar      1 XOJ         0.0300
     20 C9         88.4530    0.5110   11.1830 C.ar      1 XOJ         0.0367
     21 C10        89.0190    0.6440   12.4650 C.ar      1 XOJ        -0.0250
     22 C11        88.6700    1.7020   13.2650 C.ar      1 XOJ         0.0375
     23 C12        87.7350    2.6610   12.7290 C.ar      1 XOJ         0.1526
     24 C13        87.5580    1.5010   10.7360 C.ar      1 XOJ         0.0865
     25 C14        86.6420    4.9090   13.2290 C.2       1 XOJ         0.2993
     26 C15        85.2180    5.9950   11.4320 C.3       1 XOJ         0.0458
     27 C16        84.9470    5.6800    9.9660 C.3       1 XOJ        -0.0398
     28 C17        85.8570    7.3730   11.5440 C.3       1 XOJ        -0.0398
     29 C18        83.9080    5.9540   12.2200 C.3       1 XOJ        -0.0398
     30 C19        89.2190    1.7590   14.6510 C.ar      1 XOJ        -0.0322
     31 C20        90.3300    2.5490   14.9550 C.ar      1 XOJ        -0.0387
     32 C21        90.8630    2.5430   16.2350 C.ar      1 XOJ         0.0813
     33 C22        90.2960    1.7690   17.2380 C.ar      1 XOJ        -0.0064
     34 C23        89.1920    0.9900   16.9350 C.ar      1 XOJ         0.0813
     35 C24        88.6450    0.9910   15.6600 C.ar      1 XOJ        -0.0387
     36 C25        89.3140   -0.3710   18.9110 C.3       1 XOJ         0.0590
     37 C26        92.7140    3.2440   17.6010 C.3       1 XOJ         0.0590
     38 H1         86.8557    1.6926    1.7184 H         1 XOJ         0.0281
     39 H2         86.4437    2.2168    3.3863 H         1 XOJ         0.0281
     40 H3         85.4489    2.7739    1.9982 H         1 XOJ         0.0281
     41 H4         83.4676    1.6866    3.0584 H         1 XOJ         0.2033
     42 H5         85.7499   -0.0920    2.9570 H         1 XOJ         0.0812
     43 H6         84.7551    0.4650    1.5689 H         1 XOJ         0.0812
     44 H7         86.7868   -0.7831    7.1279 H         1 XOJ         0.1882
     45 H8         83.2939   -0.8558    4.3473 H         1 XOJ         0.0812
     46 H9         83.0911   -0.7510    2.5656 H         1 XOJ         0.0812
     47 H10        80.9322   -0.6503    3.7227 H         1 XOJ         0.0281
     48 H11        81.2829    0.8901    2.8680 H         1 XOJ         0.0281
     49 H12        81.4857    0.7853    4.6497 H         1 XOJ         0.0281
     50 H13        83.4474    1.4894    5.4128 H         1 XOJ         0.0815
     51 H14        84.8253    2.3950    4.7001 H         1 XOJ         0.0815
     52 H15        86.2821    0.4717    5.0155 H         1 XOJ         0.0337
     53 H16        84.9076   -0.4839    5.6669 H         1 XOJ         0.0337
     54 H17        87.4389    3.5967   14.5117 H         1 XOJ         0.2402
     55 H18        86.1347    2.0083    6.9327 H         1 XOJ         0.0529
     56 H19        84.7404    1.0787    7.5796 H         1 XOJ         0.0529
     57 H20        86.4673    4.2762   11.3224 H         1 XOJ         0.1862
     58 H21        89.2147   -1.4301   10.7507 H         1 XOJ         0.0992
     59 H22        89.7320   -0.0911   12.8206 H         1 XOJ         0.0785
     60 H23        84.2497    6.4242    9.5539 H         1 XOJ         0.0254
     61 H24        84.5039    4.6767    9.8823 H         1 XOJ         0.0254
     62 H25        85.8917    5.7118    9.4034 H         1 XOJ         0.0254
     63 H26        85.1637    8.1316   11.1519 H         1 XOJ         0.0254
     64 H27        86.7899    7.3930   10.9616 H         1 XOJ         0.0254
     65 H28        86.0788    7.5897   12.5994 H         1 XOJ         0.0254
     66 H29        83.2160    6.7101   11.8205 H         1 XOJ         0.0254
     67 H30        84.1109    6.1664   13.2800 H         1 XOJ         0.0254
     68 H31        83.4547    4.9562   12.1262 H         1 XOJ         0.0254
     69 H32        90.7775    3.1695   14.1870 H         1 XOJ         0.0442
     70 H33        90.7098    1.7743   18.2399 H         1 XOJ         0.0457
     71 H34        87.7671    0.3913   15.4488 H         1 XOJ         0.0442
     72 H35        88.6910   -1.0766   19.4802 H         1 XOJ         0.0577
     73 H36        89.5817    0.4816   19.5524 H         1 XOJ         0.0577
     74 H37        90.2300   -0.8790   18.5752 H         1 XOJ         0.0577
     75 H38        93.5691    3.9348   17.5615 H         1 XOJ         0.0577
     76 H39        93.0797    2.2152   17.7345 H         1 XOJ         0.0577
     77 H40        92.0630    3.5143   18.4455 H         1 XOJ         0.0577
@<TRIPOS>BOND
     1    4    1 1  
     2    2    4 1  
     3    2    7 1  
     4   12    2 1  
     5   25    3 2  
     6    5   16 1  
     7   18    5 1  
     8   34    6 1  
     9    6   36 1  
    10    7   10 1  
    11    8   18 ar 
    12   19    8 ar 
    13   32    9 1  
    14    9   37 1  
    15   23   11 ar 
    16   11   24 ar 
    17   14   12 1  
    18   13   18 ar 
    19   24   13 ar 
    20   16   14 1  
    21   23   15 1  
    22   15   25 am 
    23   25   17 am 
    24   17   26 1  
    25   20   19 ar 
    26   21   20 ar 
    27   20   24 ar 
    28   22   21 ar 
    29   22   23 ar 
    30   30   22 1  
    31   26   27 1  
    32   26   28 1  
    33   26   29 1  
    34   31   30 ar 
    35   30   35 ar 
    36   32   31 ar 
    37   33   32 ar 
    38   33   34 ar 
    39   34   35 ar 
    40    1   38 1  
    41    1   39 1  
    42    1   40 1  
    43    2   41 1  
    44    4   42 1  
    45    4   43 1  
    46    5   44 1  
    47    7   45 1  
    48    7   46 1  
    49   10   47 1  
    50   10   48 1  
    51   10   49 1  
    52   12   50 1  
    53   12   51 1  
    54   14   52 1  
    55   14   53 1  
    56   15   54 1  
    57   16   55 1  
    58   16   56 1  
    59   17   57 1  
    60   19   58 1  
    61   21   59 1  
    62   27   60 1  
    63   27   61 1  
    64   27   62 1  
    65   28   63 1  
    66   28   64 1  
    67   28   65 1  
    68   29   66 1  
    69   29   67 1  
    70   29   68 1  
    71   31   69 1  
    72   33   70 1  
    73   35   71 1  
    74   36   72 1  
    75   36   73 1  
    76   36   74 1  
    77   37   75 1  
    78   37   76 1  
    79   37   77 1  
@<TRIPOS>SUBSTRUCTURE
     1 XOJ         1

