### 
### Created by X-TOOL on Mon Sep 10 21:13:30 2018
### 

@<TRIPOS>MOLECULE
5a4e_ligand
   25    26     1     0     0
SMALL
GAST_HUCK


@<TRIPOS>ATOM
      1 CAB         3.5040   18.2310  -43.8440 C.3       1 7QQ         0.0344
      2 CAK         2.9130   17.6780  -42.5460 C.2       1 7QQ         0.2149
      3 OAC         2.2380   18.3880  -41.7990 O.2       1 7QQ        -0.3788
      4 NAH         3.1890   16.3890  -42.3060 N.am      1 7QQ        -0.1895
      5 CAM         3.9300   15.7500  -43.2090 C.2       1 7QQ         0.2096
      6 SAJ         3.6980   14.2540  -43.6410 S.3       1 7QQ         0.0228
      7 NAG         4.9700   16.2470  -43.8840 N.2       1 7QQ        -0.3129
      8 CAN         5.5370   15.3640  -44.7370 C.ar      1 7QQ        -0.0025
      9 CAF         6.5840   15.5450  -45.5520 C.ar      1 7QQ        -0.0374
     10 CAO         4.9180   14.1650  -44.7160 C.ar      1 7QQ         0.0372
     11 CAE         5.3120   13.1480  -45.4810 C.ar      1 7QQ        -0.0612
     12 CAD         6.3910   13.2940  -46.3360 C.ar      1 7QQ        -0.0457
     13 CAL         7.0390   14.5170  -46.3740 C.ar      1 7QQ         0.0757
     14 OAI         8.1060   14.6820  -47.2070 O.3       1 7QQ        -0.3276
     15 CAA         8.3720   16.0640  -47.4560 C.3       1 7QQ         0.0577
     16 H1          4.0673   17.4379  -44.3575 H         1 7QQ         0.0475
     17 H2          4.1784   19.0685  -43.6123 H         1 7QQ         0.0475
     18 H3          2.6913   18.5842  -44.4957 H         1 7QQ         0.0475
     19 H4          2.8533   15.9273  -41.4849 H         1 7QQ         0.2449
     20 H5          7.0849   16.5061  -45.5722 H         1 7QQ         0.0439
     21 H6          4.7853   12.2017  -45.4338 H         1 7QQ         0.0532
     22 H7          6.7204   12.4712  -46.9602 H         1 7QQ         0.0465
     23 H8          9.2367   16.1553  -48.1298 H         1 7QQ         0.0575
     24 H9          8.5925   16.5720  -46.5056 H         1 7QQ         0.0575
     25 H10         7.4916   16.5283  -47.9244 H         1 7QQ         0.0575
@<TRIPOS>BOND
     1    1    2 1  
     2    2    3 2  
     3    2    4 am 
     4    4    5 1  
     5    5    6 1  
     6    5    7 2  
     7    6   10 1  
     8    7    8 1  
     9    8    9 ar 
    10    8   10 ar 
    11    9   13 ar 
    12   10   11 ar 
    13   11   12 ar 
    14   12   13 ar 
    15   13   14 1  
    16   14   15 1  
    17    1   16 1  
    18    1   17 1  
    19    1   18 1  
    20    4   19 1  
    21    9   20 1  
    22   11   21 1  
    23   12   22 1  
    24   15   23 1  
    25   15   24 1  
    26   15   25 1  
@<TRIPOS>SUBSTRUCTURE
     1 7QQ         1

