### 
### Created by X-TOOL on Mon Sep 10 21:13:29 2018
### 

@<TRIPOS>MOLECULE
5a4l_ligand
   21    22     1     0     0
SMALL
GAST_HUCK


@<TRIPOS>ATOM
      1 NAG        -5.0250  -16.2530  -44.3890 N.2       1 ZC3        -0.3107
      2 CAM        -5.9500  -15.7720  -45.2490 C.ar      1 ZC3         0.0047
      3 CAF        -6.8730  -16.4560  -45.9310 C.ar      1 ZC3        -0.0317
      4 CAK        -7.7580  -15.8110  -46.7840 C.ar      1 ZC3         0.1172
      5 FAC        -8.7280  -16.5310  -47.5030 F         1 ZC3        -0.1910
      6 CAD        -7.6680  -14.4380  -46.9160 C.ar      1 ZC3        -0.0415
      7 CAE        -6.6980  -13.7640  -46.1950 C.ar      1 ZC3        -0.0553
      8 CAN        -5.8770  -14.4320  -45.3920 C.ar      1 ZC3         0.0438
      9 SAI        -4.6570  -13.8890  -44.4390 S.3       1 ZC3         0.0275
     10 CAL        -4.2390  -15.3150  -43.8600 C.2       1 ZC3         0.2109
     11 NAH        -3.2470  -15.5110  -42.9940 N.am      1 ZC3        -0.1893
     12 CAJ        -2.8290  -16.7680  -42.8000 C.2       1 ZC3         0.2149
     13 OAB        -1.9120  -17.0690  -42.0390 O.2       1 ZC3        -0.3788
     14 CAA        -3.5840  -17.8390  -43.5900 C.3       1 ZC3         0.0344
     15 H1         -6.9318  -17.5323  -45.8164 H         1 ZC3         0.0510
     16 H2         -8.3437  -13.9001  -47.5711 H         1 ZC3         0.0518
     17 H3         -6.6078  -12.6876  -46.2857 H         1 ZC3         0.0547
     18 H4         -2.8284  -14.7456  -42.5052 H         1 ZC3         0.2449
     19 H5         -3.1640  -18.8291  -43.3592 H         1 ZC3         0.0475
     20 H6         -3.4827  -17.6398  -44.6671 H         1 ZC3         0.0475
     21 H7         -4.6480  -17.8181  -43.3117 H         1 ZC3         0.0475
@<TRIPOS>BOND
     1    1    2 1  
     2    1   10 2  
     3    2    3 ar 
     4    2    8 ar 
     5    3    4 ar 
     6    4    5 1  
     7    4    6 ar 
     8    6    7 ar 
     9    7    8 ar 
    10    8    9 1  
    11    9   10 1  
    12   10   11 1  
    13   11   12 am 
    14   12   13 2  
    15   12   14 1  
    16    3   15 1  
    17    6   16 1  
    18    7   17 1  
    19   11   18 1  
    20   14   19 1  
    21   14   20 1  
    22   14   21 1  
@<TRIPOS>SUBSTRUCTURE
     1 ZC3         1

