### 
### Created by X-TOOL on Mon Sep 10 21:13:29 2018
### 

@<TRIPOS>MOLECULE
5a4q_ligand
   21    22     1     0     0
SMALL
GAST_HUCK


@<TRIPOS>ATOM
      1 NAG        -6.9890  -30.2850    9.4110 N.2       1 Y3L        -0.3091
      2 CAM        -7.1550  -29.3330   10.3660 C.ar      1 Y3L         0.0070
      3 CAE        -8.2500  -28.5960   10.6070 C.ar      1 Y3L        -0.0640
      4 CAD        -8.2940  -27.6400   11.6240 C.ar      1 Y3L        -0.0626
      5 CAK        -7.1420  -27.4580   12.3890 C.ar      1 Y3L         0.0263
      6 CLAC       -7.0650  -26.2980   13.6830 Cl        1 Y3L        -0.0803
      7 CAF        -6.0230  -28.2340   12.0990 C.ar      1 Y3L        -0.0402
      8 CAN        -6.0560  -29.1410   11.1260 C.ar      1 Y3L         0.0480
      9 SAI        -4.8510  -30.1620   10.6170 S.3       1 Y3L         0.0302
     10 CAL        -5.7730  -30.8580    9.4100 C.2       1 Y3L         0.2119
     11 NAH        -5.4230  -31.7970    8.5470 N.am      1 Y3L        -0.1892
     12 CAJ        -4.2220  -32.4590    8.5800 C.2       1 Y3L         0.2150
     13 OAB        -3.9500  -33.3050    7.7290 O.2       1 Y3L        -0.3788
     14 CAA        -3.1700  -32.1840    9.6160 C.3       1 Y3L         0.0344
     15 H1         -9.1296  -28.7477    9.9919 H         1 Y3L         0.0529
     16 H2         -9.1906  -27.0606   11.8120 H         1 Y3L         0.0550
     17 H3         -5.1136  -28.0976   12.6730 H         1 Y3L         0.0560
     18 H4         -6.0732  -32.0391    7.8268 H         1 Y3L         0.2450
     19 H5         -2.3010  -32.8345    9.4378 H         1 Y3L         0.0475
     20 H6         -3.5795  -32.3853   10.6169 H         1 Y3L         0.0475
     21 H7         -2.8588  -31.1309    9.5521 H         1 Y3L         0.0475
@<TRIPOS>BOND
     1    1    2 1  
     2    1   10 2  
     3    2    3 ar 
     4    2    8 ar 
     5    3    4 ar 
     6    4    5 ar 
     7    5    6 1  
     8    5    7 ar 
     9    7    8 ar 
    10    8    9 1  
    11    9   10 1  
    12   10   11 1  
    13   11   12 am 
    14   12   13 2  
    15   12   14 1  
    16    3   15 1  
    17    4   16 1  
    18    7   17 1  
    19   11   18 1  
    20   14   19 1  
    21   14   20 1  
    22   14   21 1  
@<TRIPOS>SUBSTRUCTURE
     1 Y3L         1

