### 
### Created by X-TOOL on Mon Sep 10 21:13:29 2018
### 

@<TRIPOS>MOLECULE
5a4t_ligand
   22    23     1     0     0
SMALL
GAST_HUCK


@<TRIPOS>ATOM
      1 NAH         8.3640  -15.0320   48.1050 N.2       1 AJG        -0.3012
      2 CAN         7.4390  -14.8710   47.1310 C.ar      1 AJG         0.0162
      3 CAF         6.6170  -13.8320   46.9510 C.ar      1 AJG        -0.0541
      4 CAE         5.7120  -13.8100   45.8940 C.ar      1 AJG        -0.0426
      5 CAL         5.6740  -14.8920   45.0180 C.ar      1 AJG         0.0805
      6 CAD         4.7920  -14.9310   43.9210 C.1       1 AJG         0.0880
      7 NAB         4.0640  -14.9710   43.0110 N.1       1 AJG        -0.3370
      8 CAG         6.5450  -15.9500   45.2320 C.ar      1 AJG        -0.0193
      9 CAO         7.3830  -15.9210   46.2620 C.ar      1 AJG         0.0589
     10 SAJ         8.4590  -16.9840   46.7040 S.3       1 AJG         0.0348
     11 CAM         9.0350  -16.1870   48.0260 C.2       1 AJG         0.2164
     12 NAI        10.0000  -16.5170   48.8990 N.am      1 AJG        -0.1870
     13 CAK        10.7110  -17.6770   48.8810 C.2       1 AJG         0.2161
     14 OAC        11.5990  -17.8940   49.7050 O.2       1 AJG        -0.3782
     15 CAA        10.4080  -18.7630   47.8470 C.3       1 AJG         0.0346
     16 H1          6.6560  -12.9947   47.6383 H         1 AJG         0.0551
     17 H2          5.0477  -12.9648   45.7548 H         1 AJG         0.0637
     18 H3          6.5418  -16.7999   44.5591 H         1 AJG         0.0658
     19 H4         10.2133  -15.8577   49.6200 H         1 AJG         0.2466
     20 H5         11.0877  -19.6143   47.9995 H         1 AJG         0.0475
     21 H6         10.5514  -18.3561   46.8351 H         1 AJG         0.0475
     22 H7          9.3672  -19.0995   47.9629 H         1 AJG         0.0475
@<TRIPOS>BOND
     1    1    2 1  
     2    1   11 2  
     3    2    3 ar 
     4    2    9 ar 
     5    3    4 ar 
     6    4    5 ar 
     7    5    6 1  
     8    5    8 ar 
     9    6    7 3  
    10    8    9 ar 
    11    9   10 1  
    12   10   11 1  
    13   11   12 1  
    14   12   13 am 
    15   13   14 2  
    16   13   15 1  
    17    3   16 1  
    18    4   17 1  
    19    8   18 1  
    20   12   19 1  
    21   15   20 1  
    22   15   21 1  
    23   15   22 1  
@<TRIPOS>SUBSTRUCTURE
     1 AJG         1

