### 
### Created by X-TOOL on Mon Sep 10 21:13:29 2018
### 

@<TRIPOS>MOLECULE
5a54_ligand
   23    24     1     0     0
SMALL
GAST_HUCK


@<TRIPOS>ATOM
      1 CAA        40.3730  -31.6830    9.7600 C.3       1 5PW         0.0597
      2 OAB        39.5060  -33.2510    8.2010 O.2       1 5PW        -0.3154
      3 OAC        36.9480  -26.0390   14.1850 O.2       1 5PW        -0.4606
      4 OAD        35.3420  -24.7850   12.8700 O.2       1 5PW        -0.4606
      5 CAE        35.1790  -27.0740   11.2370 C.ar      1 5PW         0.0403
      6 CAF        35.2570  -28.1130   10.3130 C.ar      1 5PW         0.0528
      7 CAG        37.2790  -27.8110   12.0890 C.ar      1 5PW         0.0646
      8 NAH        36.5090  -29.9920    9.4490 N.2       1 5PW        -0.0241
      9 NAI        38.0050  -31.7230    8.9140 N.am      1 5PW        -0.0794
     10 SAJ        38.4010  -29.9570   10.8830 S.3       1 5PW         0.1633
     11 CAK        39.2470  -32.2720    8.8990 C.2       1 5PW         0.3157
     12 CAL        36.2130  -26.9120   12.1540 C.ar      1 5PW         0.1519
     13 CAM        37.6510  -30.6580    9.6470 C.2       1 5PW         0.4404
     14 CAN        36.2980  -28.9490   10.2850 C.ar      1 5PW         0.2291
     15 CAO        37.2960  -28.7830   11.1750 C.ar      1 5PW         0.1763
     16 NAP        36.1840  -25.9300   13.0680 N.2       1 5PW        -0.1628
     17 H1         39.9903  -30.8190   10.3230 H         1 5PW         0.0500
     18 H2         41.2004  -31.3604    9.1109 H         1 5PW         0.0500
     19 H3         40.7351  -32.4475   10.4631 H         1 5PW         0.0500
     20 H4         34.3276  -26.4031   11.2418 H         1 5PW         0.0858
     21 H5         34.4526  -28.2465    9.5987 H         1 5PW         0.1112
     22 H6         38.1018  -27.7184   12.7886 H         1 5PW         0.0871
     23 H7         37.3046  -32.1432    8.3371 H         1 5PW         0.3749
@<TRIPOS>BOND
     1   11    1 1  
     2   11    2 2  
     3   16    3 2  
     4   16    4 2  
     5    5    6 ar 
     6   12    5 ar 
     7    6   14 ar 
     8   12    7 ar 
     9    7   15 ar 
    10   13    8 2  
    11   14    8 1  
    12    9   11 am 
    13   13    9 1  
    14   10   13 1  
    15   15   10 1  
    16   12   16 1  
    17   14   15 ar 
    18    1   17 1  
    19    1   18 1  
    20    1   19 1  
    21    5   20 1  
    22    6   21 1  
    23    7   22 1  
    24    9   23 1  
@<TRIPOS>SUBSTRUCTURE
     1 5PW         1

