### 
### Created by X-TOOL on Mon Sep 10 21:13:27 2018
### 

@<TRIPOS>MOLECULE
5a5d_ligand
   49    50     1     0     0
SMALL
GAST_HUCK


@<TRIPOS>ATOM
      1 C1         -8.5550    7.1820    2.9230 C.ar      1 5LC        -0.0372
      2 C2         -8.5620    7.5020    1.5620 C.ar      1 5LC         0.1223
      3 C3         -9.6900    7.8940    0.9150 C.ar      1 5LC         0.1379
      4 C4        -10.8120    8.2760    1.7120 C.ar      1 5LC         0.0700
      5 C5        -10.7480    8.0270    3.0580 C.ar      1 5LC        -0.0617
      6 C6         -9.6460    7.5220    3.6700 C.ar      1 5LC        -0.0763
      7 C7        -11.9820    8.9890    1.1150 C.2       1 5LC         0.1964
      8 N8        -11.8440    9.4100   -0.1630 N.am      1 5LC        -0.2882
      9 O9        -12.9640    9.3350    1.7850 O.2       1 5LC        -0.3912
     10 C10       -12.6890   10.4680   -0.6840 C.3       1 5LC         0.0301
     11 C11       -12.3140   10.8910   -2.0750 C.3       1 5LC        -0.0328
     12 C12       -10.8660   11.2500   -2.3770 C.3       1 5LC        -0.0494
     13 N14        -7.8830   11.9650   -1.8370 N.am      1 5LC        -0.2882
     14 C15        -6.5730   12.2020   -2.1230 C.2       1 5LC         0.1964
     15 C16        -5.6650   11.0060   -2.0600 C.ar      1 5LC         0.0700
     16 O17        -6.1750   13.3220   -2.4950 O.2       1 5LC        -0.3912
     17 C18        -6.1300    9.7190   -1.7420 C.ar      1 5LC         0.1379
     18 C19        -5.2780    8.5980   -1.8040 C.ar      1 5LC         0.1223
     19 C20        -3.9360    8.7990   -1.9980 C.ar      1 5LC        -0.0372
     20 C21        -3.4970   10.0510   -2.3460 C.ar      1 5LC        -0.0763
     21 C22        -4.3090   11.1490   -2.3920 C.ar      1 5LC        -0.0617
     22 O23        -7.4310    9.4030   -1.4420 O.3       1 5LC        -0.3312
     23 O24        -5.7860    7.3890   -1.5320 O.3       1 5LC        -0.3357
     24 C23       -10.3390   12.3800   -1.5620 C.3       1 5LC        -0.0328
     25 O25        -9.6230    8.1060   -0.4390 O.3       1 5LC        -0.3312
     26 C13        -8.9670   12.9600   -1.9220 C.3       1 5LC         0.0301
     27 O26        -7.4590    7.2200    0.8500 O.3       1 5LC        -0.3357
     28 H1         -7.7070    6.6780    3.3725 H         1 5LC         0.0543
     29 H2        -11.6201    8.2439    3.6641 H         1 5LC         0.0544
     30 H3         -9.6326    7.3896    4.7458 H         1 5LC         0.0508
     31 H4        -11.1548    8.9891   -0.7528 H         1 5LC         0.1840
     32 H5        -12.6076   11.3404   -0.0190 H         1 5LC         0.0519
     33 H6        -13.7295   10.1114   -0.6953 H         1 5LC         0.0519
     34 H7        -12.9215   11.7756   -2.3167 H         1 5LC         0.0285
     35 H8        -12.5869   10.0640   -2.7470 H         1 5LC         0.0285
     36 H9        -10.7924   11.5260   -3.4393 H         1 5LC         0.0267
     37 H10       -10.2427   10.3644   -2.1842 H         1 5LC         0.0267
     38 H11        -8.1296   11.0407   -1.5456 H         1 5LC         0.1840
     39 H12        -3.2335    7.9822   -1.8784 H         1 5LC         0.0543
     40 H13        -2.4501   10.1761   -2.5980 H         1 5LC         0.0508
     41 H14        -3.9119   12.1155   -2.6805 H         1 5LC         0.0544
     42 H15        -7.4642    8.9732   -0.5955 H         1 5LC         0.2472
     43 H16        -6.7282    7.4577   -1.4326 H         1 5LC         0.2443
     44 H17       -10.2814   12.0308   -0.5205 H         1 5LC         0.0285
     45 H18       -11.0680   13.2006   -1.6338 H         1 5LC         0.0285
     46 H19        -8.7949    7.7777   -0.7692 H         1 5LC         0.2472
     47 H20        -9.0086   13.3466   -2.9510 H         1 5LC         0.0519
     48 H21        -8.7418   13.7843   -1.2293 H         1 5LC         0.0519
     49 H22        -7.6450    6.5087    0.2484 H         1 5LC         0.2443
@<TRIPOS>BOND
     1    2    1 ar 
     2    6    1 ar 
     3    3    2 ar 
     4    2   27 1  
     5    4    3 ar 
     6    3   25 1  
     7    4    5 ar 
     8    7    4 1  
     9    5    6 ar 
    10    8    7 am 
    11    7    9 2  
    12   10    8 1  
    13   11   10 1  
    14   12   11 1  
    15   24   12 1  
    16   13   14 am 
    17   26   13 1  
    18   14   15 1  
    19   14   16 2  
    20   15   17 ar 
    21   15   21 ar 
    22   17   18 ar 
    23   17   22 1  
    24   18   19 ar 
    25   18   23 1  
    26   20   19 ar 
    27   21   20 ar 
    28   24   26 1  
    29    1   28 1  
    30    5   29 1  
    31    6   30 1  
    32    8   31 1  
    33   10   32 1  
    34   10   33 1  
    35   11   34 1  
    36   11   35 1  
    37   12   36 1  
    38   12   37 1  
    39   13   38 1  
    40   19   39 1  
    41   20   40 1  
    42   21   41 1  
    43   22   42 1  
    44   23   43 1  
    45   24   44 1  
    46   24   45 1  
    47   25   46 1  
    48   26   47 1  
    49   26   48 1  
    50   27   49 1  
@<TRIPOS>SUBSTRUCTURE
     1 5LC         1

