### 
### Created by X-TOOL on Mon Sep 10 21:13:23 2018
### 

@<TRIPOS>MOLECULE
5a5o_ligand
   21    22     1     0     0
SMALL
GAST_HUCK


@<TRIPOS>ATOM
      1 C01       -23.6520   44.8880    9.7640 C.3       1 J5I        -0.0248
      2 C05       -24.9580   44.9750   10.5080 C.2       1 J5I         0.0271
      3 C06       -25.8370   45.9540   10.2410 C.2       1 J5I        -0.0487
      4 C08       -27.0900   46.0640   10.9350 C.ar      1 J5I        -0.0013
      5 C09       -28.0310   47.0690   10.6860 C.ar      1 J5I        -0.0664
      6 C11       -29.2210   47.1130   11.3930 C.ar      1 J5I        -0.0756
      7 C13       -29.4930   46.1640   12.3560 C.ar      1 J5I        -0.0740
      8 C15       -28.5800   45.1540   12.6250 C.ar      1 J5I        -0.0369
      9 C17       -27.3780   45.1040   11.9170 C.ar      1 J5I         0.0823
     10 N18       -26.4460   44.1020   12.1700 N.am      1 J5I        -0.2294
     11 C20       -25.2530   43.9720   11.5320 C.2       1 J5I         0.2188
     12 O21       -24.5040   43.0450   11.8360 O.2       1 J5I        -0.3974
     13 H1        -23.5891   45.7105    9.0363 H         1 J5I         0.0393
     14 H2        -23.5947   43.9253    9.2350 H         1 J5I         0.0393
     15 H3        -22.8179   44.9648   10.4770 H         1 J5I         0.0393
     16 H4        -25.5925   46.6877    9.4743 H         1 J5I         0.0559
     17 H5        -27.8266   47.8207    9.9322 H         1 J5I         0.0574
     18 H6        -29.9416   47.8966   11.1886 H         1 J5I         0.0504
     19 H7        -30.4259   46.2072   12.9063 H         1 J5I         0.0577
     20 H8        -28.7990   44.4082   13.3806 H         1 J5I         0.0513
     21 H9        -26.6707   43.4276   12.8734 H         1 J5I         0.2356
@<TRIPOS>BOND
     1    1    2 1  
     2    2    3 2  
     3    2   11 1  
     4    3    4 1  
     5    4    5 ar 
     6    4    9 ar 
     7    5    6 ar 
     8    6    7 ar 
     9    7    8 ar 
    10    8    9 ar 
    11    9   10 1  
    12   10   11 am 
    13   11   12 2  
    14    1   13 1  
    15    1   14 1  
    16    1   15 1  
    17    3   16 1  
    18    5   17 1  
    19    6   18 1  
    20    7   19 1  
    21    8   20 1  
    22   10   21 1  
@<TRIPOS>SUBSTRUCTURE
     1 J5I         1

