### 
### Created by X-TOOL on Mon Sep 10 21:13:23 2018
### 

@<TRIPOS>MOLECULE
5a5p_ligand
   38    39     1     0     0
SMALL
GAST_HUCK


@<TRIPOS>ATOM
      1 C01       -31.5890   42.1200   16.5490 C.3       1 JTF        -0.0433
      2 N01       -30.7080   42.1660   15.3850 N.4       1 JTF         0.2323
      3 C02       -29.3150   42.0880   15.8140 C.3       1 JTF        -0.0433
      4 C03       -30.9580   43.3760   14.5980 C.3       1 JTF        -0.0129
      5 C04       -30.3610   43.2990   13.2070 C.3       1 JTF         0.0615
      6 N02       -29.0510   43.9300   13.1850 N.pl3     1 JTF        -0.3218
      7 C05       -28.6960   44.9820   12.3760 C.ar      1 JTF         0.0664
      8 C06       -29.5250   46.0820   12.1440 C.ar      1 JTF        -0.0560
      9 C07       -29.1220   47.1250   11.3260 C.ar      1 JTF        -0.0883
     10 C08       -27.8770   47.1040   10.7270 C.ar      1 JTF        -0.0804
     11 C09       -27.0080   46.0300   10.9350 C.ar      1 JTF        -0.0117
     12 C10       -25.7010   45.9270   10.3500 C.2       1 JTF        -0.0525
     13 C11       -24.8810   44.8750   10.5700 C.2       1 JTF         0.0255
     14 C12       -23.5150   44.7970    9.9440 C.3       1 JTF        -0.0252
     15 C13       -25.3240   43.7840   11.4380 C.2       1 JTF         0.2151
     16 O1        -24.6550   42.7850   11.7010 O.2       1 JTF        -0.4004
     17 N1        -26.5670   43.9080   11.9670 N.am      1 JTF        -0.2330
     18 C1        -27.4270   44.9750   11.7640 C.ar      1 JTF         0.1034
     19 H1        -31.3864   41.2058   17.1262 H         1 JTF         0.0777
     20 H2        -32.6373   42.1184   16.2157 H         1 JTF         0.0777
     21 H3        -31.4068   43.0011   17.1818 H         1 JTF         0.0777
     22 H4        -30.9053   41.3667   14.8034 H         1 JTF         0.2028
     23 H5        -28.6575   42.1232   14.9328 H         1 JTF         0.0777
     24 H6        -29.1507   41.1454   16.3567 H         1 JTF         0.0777
     25 H7        -29.0870   42.9366   16.4757 H         1 JTF         0.0777
     26 H8        -30.5171   44.2358   15.1237 H         1 JTF         0.0833
     27 H9        -32.0448   43.5195   14.5076 H         1 JTF         0.0833
     28 H10       -31.0246   43.8156   12.4980 H         1 JTF         0.0560
     29 H11       -30.2606   42.2438   12.9130 H         1 JTF         0.0560
     30 H12       -28.3342   43.5597   13.8252 H         1 JTF         0.1722
     31 H13       -30.5017   46.1203   12.6126 H         1 JTF         0.0460
     32 H14       -29.7878   47.9631   11.1547 H         1 JTF         0.0470
     33 H15       -27.5722   47.9271   10.0909 H         1 JTF         0.0456
     34 H16       -25.3554   46.7306    9.7014 H         1 JTF         0.0554
     35 H17       -23.3430   45.6911    9.3267 H         1 JTF         0.0392
     36 H18       -23.4515   43.8982    9.3131 H         1 JTF         0.0392
     37 H19       -22.7518   44.7449   10.7345 H         1 JTF         0.0392
     38 H20       -26.8902   43.1656   12.5538 H         1 JTF         0.2329
@<TRIPOS>BOND
     1    1    2 1  
     2    2    3 1  
     3    2    4 1  
     4    4    5 1  
     5    5    6 1  
     6    6    7 1  
     7    7    8 ar 
     8    7   18 ar 
     9    8    9 ar 
    10    9   10 ar 
    11   10   11 ar 
    12   11   12 1  
    13   11   18 ar 
    14   12   13 2  
    15   13   14 1  
    16   13   15 1  
    17   15   16 2  
    18   15   17 am 
    19   17   18 1  
    20    1   19 1  
    21    1   20 1  
    22    1   21 1  
    23    2   22 1  
    24    3   23 1  
    25    3   24 1  
    26    3   25 1  
    27    4   26 1  
    28    4   27 1  
    29    5   28 1  
    30    5   29 1  
    31    6   30 1  
    32    8   31 1  
    33    9   32 1  
    34   10   33 1  
    35   12   34 1  
    36   14   35 1  
    37   14   36 1  
    38   14   37 1  
    39   17   38 1  
@<TRIPOS>SUBSTRUCTURE
     1 JTF         1

