### 
### Created by X-TOOL on Mon Sep 10 21:13:25 2018
### 

@<TRIPOS>MOLECULE
5a5q_ligand
   38    40     1     0     0
SMALL
GAST_HUCK


@<TRIPOS>ATOM
      1 C01       -23.6300   44.6790    9.8800 C.3       1 6XC        -0.0223
      2 C05       -24.9820   44.6340   10.5370 C.2       1 6XC         0.0315
      3 C06       -25.9830   45.4420   10.1510 C.2       1 6XC        -0.0442
      4 C08       -27.2810   45.4160   10.7640 C.ar      1 6XC         0.0047
      5 C09       -28.3460   46.2350   10.3920 C.ar      1 6XC        -0.0575
      6 C11       -29.5400   46.0970   11.0690 C.ar      1 6XC        -0.0239
      7 N13       -29.7460   45.2210   12.0670 N.ar      1 6XC        -0.3045
      8 C14       -28.7490   44.3990   12.4610 C.ar      1 6XC         0.1388
      9 N15       -29.0180   43.5440   13.4720 N.pl3     1 6XC        -0.3085
     10 C17       -30.3660   43.2470   13.9540 C.3       1 6XC         0.0458
     11 C19       -30.3210   42.7850   15.3990 C.3       1 6XC         0.0101
     12 C22       -31.7040   42.3980   15.8770 C.3       1 6XC        -0.0316
     13 N25       -32.2550   41.3450   15.0140 N.4       1 6XC         0.2271
     14 C27       -32.3880   41.8170   13.6260 C.3       1 6XC        -0.0316
     15 C30       -31.0280   42.1990   13.0780 C.3       1 6XC         0.0101
     16 C33       -27.4940   44.5010   11.7960 C.ar      1 6XC         0.1300
     17 N34       -26.4470   43.6800   12.1730 N.am      1 6XC        -0.2261
     18 C36       -25.2080   43.6810   11.6250 C.2       1 6XC         0.2212
     19 O37       -24.3630   42.8960   12.0490 O.2       1 6XC        -0.3971
     20 H1        -23.6318   45.4439    9.0895 H         1 6XC         0.0404
     21 H2        -23.4035   43.6969    9.4394 H         1 6XC         0.0404
     22 H3        -22.8657   44.9292   10.6305 H         1 6XC         0.0404
     23 H4        -25.8027   46.1458    9.3397 H         1 6XC         0.0568
     24 H5        -28.2389   46.9599    9.5932 H         1 6XC         0.0537
     25 H6        -30.3652   46.7364   10.7771 H         1 6XC         0.0635
     26 H7        -28.2254   43.0729   13.9310 H         1 6XC         0.1775
     27 H8        -30.9639   44.1689   13.9028 H         1 6XC         0.0554
     28 H9        -29.9363   43.6014   16.0279 H         1 6XC         0.0339
     29 H10       -29.6537   41.9143   15.4797 H         1 6XC         0.0339
     30 H11       -32.3616   43.2791   15.8424 H         1 6XC         0.0814
     31 H12       -31.6421   42.0270   16.9107 H         1 6XC         0.0814
     32 H13       -33.1632   41.0771   15.3596 H         1 6XC         0.2013
     33 H14       -31.6393   40.5471   15.0333 H         1 6XC         0.2013
     34 H15       -33.0507   42.6946   13.6012 H         1 6XC         0.0814
     35 H16       -32.8181   41.0152   13.0078 H         1 6XC         0.0814
     36 H17       -30.3897   41.3039   13.0424 H         1 6XC         0.0339
     37 H18       -31.1496   42.6032   12.0622 H         1 6XC         0.0339
     38 H19       -26.6191   43.0301   12.9133 H         1 6XC         0.2357
@<TRIPOS>BOND
     1    1    2 1  
     2    2    3 2  
     3    2   18 1  
     4    3    4 1  
     5    4    5 ar 
     6    4   16 ar 
     7    5    6 ar 
     8    6    7 ar 
     9    7    8 ar 
    10    8    9 1  
    11    8   16 ar 
    12    9   10 1  
    13   10   11 1  
    14   10   15 1  
    15   11   12 1  
    16   12   13 1  
    17   13   14 1  
    18   14   15 1  
    19   16   17 1  
    20   17   18 am 
    21   18   19 2  
    22    1   20 1  
    23    1   21 1  
    24    1   22 1  
    25    3   23 1  
    26    5   24 1  
    27    6   25 1  
    28    9   26 1  
    29   10   27 1  
    30   11   28 1  
    31   11   29 1  
    32   12   30 1  
    33   12   31 1  
    34   13   32 1  
    35   13   33 1  
    36   14   34 1  
    37   14   35 1  
    38   15   36 1  
    39   15   37 1  
    40   17   38 1  
@<TRIPOS>SUBSTRUCTURE
     1 6XC         1

