### 
### Created by X-TOOL on Mon Sep 10 21:13:23 2018
### 

@<TRIPOS>MOLECULE
5a5r_ligand
   51    54     1     0     0
SMALL
GAST_HUCK


@<TRIPOS>ATOM
      1 C01       -29.2160   50.9000    6.5020 C.3       1 NP8         0.0610
      2 O05       -29.4990   49.7480    7.2950 O.3       1 NP8        -0.3142
      3 C06       -28.6140   49.4210    8.2970 C.ar      1 NP8         0.1167
      4 C07       -27.5160   50.1930    8.6400 C.ar      1 NP8         0.0376
      5 N09       -26.6720   49.8490    9.6190 N.ar      1 NP8        -0.3083
      6 C10       -26.9160   48.7140   10.2840 C.ar      1 NP8         0.0047
      7 C12       -27.9730   47.8540   10.0060 C.ar      1 NP8        -0.0059
      8 C13       -28.8460   48.2460    8.9950 C.ar      1 NP8        -0.0095
      9 C15       -28.1900   46.6140   10.8060 C.ar      1 NP8        -0.0086
     10 C16       -29.4040   46.3940   11.4320 C.ar      1 NP8        -0.0126
     11 N18       -29.6980   45.3370   12.2010 N.ar      1 NP8        -0.3003
     12 C19       -28.7650   44.3910   12.4250 C.ar      1 NP8         0.1414
     13 N20       -29.1190   43.3460   13.2030 N.pl3     1 NP8        -0.3073
     14 C22       -30.3830   43.2540   13.9310 C.3       1 NP8         0.0463
     15 C24       -31.3300   42.3090   13.2110 C.3       1 NP8         0.0102
     16 C27       -32.5760   42.0340   14.0240 C.3       1 NP8        -0.0316
     17 N30       -32.2060   41.4940   15.3370 N.4       1 NP8         0.2271
     18 C32       -31.4090   42.4650   16.0970 C.3       1 NP8        -0.0316
     19 C35       -30.1290   42.7810   15.3510 C.3       1 NP8         0.0102
     20 C38       -27.4850   44.5510   11.8190 C.ar      1 NP8         0.1319
     21 N39       -26.5190   43.5860   12.0370 N.am      1 NP8        -0.2259
     22 C41       -25.2650   43.6100   11.5310 C.2       1 NP8         0.2214
     23 O42       -24.4960   42.6880   11.8010 O.2       1 NP8        -0.3972
     24 C43       -24.9280   44.7490   10.6880 C.2       1 NP8         0.0321
     25 C44       -23.5500   44.8290   10.0930 C.3       1 NP8        -0.0220
     26 C48       -25.8590   45.7110   10.4560 C.2       1 NP8        -0.0428
     27 C50       -27.1850   45.6560   11.0210 C.ar      1 NP8         0.0141
     28 H1        -30.0075   51.0305    5.7494 H         1 NP8         0.0580
     29 H2        -28.2478   50.7686    5.9968 H         1 NP8         0.0580
     30 H3        -29.1746   51.7890    7.1484 H         1 NP8         0.0580
     31 H4        -27.3338   51.1114    8.0938 H         1 NP8         0.0734
     32 H5        -26.2455   48.4471   11.0929 H         1 NP8         0.0724
     33 H6        -29.7067   47.6328    8.7537 H         1 NP8         0.0645
     34 H7        -30.1802   47.1370   11.2887 H         1 NP8         0.0661
     35 H8        -28.4554   42.5630   13.2891 H         1 NP8         0.1785
     36 H9        -30.8437   44.2521   13.9695 H         1 NP8         0.0555
     37 H10       -30.8099   41.3579   13.0241 H         1 NP8         0.0339
     38 H11       -31.6233   42.7612   12.2521 H         1 NP8         0.0339
     39 H12       -33.2042   41.3036   13.4931 H         1 NP8         0.0814
     40 H13       -33.1371   42.9703   14.1596 H         1 NP8         0.0814
     41 H14       -31.6658   40.6529   15.2077 H         1 NP8         0.2013
     42 H15       -33.0444   41.2788   15.8536 H         1 NP8         0.2013
     43 H16       -31.1617   42.0421   17.0819 H         1 NP8         0.0814
     44 H17       -31.9906   43.3891   16.2302 H         1 NP8         0.0814
     45 H18       -29.5903   43.5711   15.8946 H         1 NP8         0.0339
     46 H19       -29.5092   41.8730   15.3144 H         1 NP8         0.0339
     47 H20       -26.7673   42.8085   12.6148 H         1 NP8         0.2357
     48 H21       -23.4641   45.7442    9.4888 H         1 NP8         0.0406
     49 H22       -23.3746   43.9505    9.4547 H         1 NP8         0.0406
     50 H23       -22.8028   44.8510   10.9000 H         1 NP8         0.0406
     51 H24       -25.5944   46.5545    9.8201 H         1 NP8         0.0571
@<TRIPOS>BOND
     1    1    2 1  
     2    2    3 1  
     3    3    4 ar 
     4    3    8 ar 
     5    4    5 ar 
     6    5    6 ar 
     7    6    7 ar 
     8    7    8 ar 
     9    7    9 1  
    10    9   10 ar 
    11    9   27 ar 
    12   10   11 ar 
    13   11   12 ar 
    14   12   13 1  
    15   12   20 ar 
    16   13   14 1  
    17   14   15 1  
    18   14   19 1  
    19   15   16 1  
    20   16   17 1  
    21   17   18 1  
    22   18   19 1  
    23   20   21 1  
    24   20   27 ar 
    25   21   22 am 
    26   22   23 2  
    27   22   24 1  
    28   24   25 1  
    29   24   26 2  
    30   26   27 1  
    31    1   28 1  
    32    1   29 1  
    33    1   30 1  
    34    4   31 1  
    35    6   32 1  
    36    8   33 1  
    37   10   34 1  
    38   13   35 1  
    39   14   36 1  
    40   15   37 1  
    41   15   38 1  
    42   16   39 1  
    43   16   40 1  
    44   17   41 1  
    45   17   42 1  
    46   18   43 1  
    47   18   44 1  
    48   19   45 1  
    49   19   46 1  
    50   21   47 1  
    51   25   48 1  
    52   25   49 1  
    53   25   50 1  
    54   26   51 1  
@<TRIPOS>SUBSTRUCTURE
     1 NP8         1

