### 
### Created by X-TOOL on Mon Sep 10 21:13:24 2018
### 

@<TRIPOS>MOLECULE
5a5s_ligand
   51    54     1     0     0
SMALL
GAST_HUCK


@<TRIPOS>ATOM
      1 C01       -16.6100   -3.8210    8.8630 C.3       1 NP8         0.0610
      2 O05       -16.2890   -5.2110    8.7690 O.3       1 NP8        -0.3142
      3 C06       -15.9670   -5.7140    7.5350 C.ar      1 NP8         0.1167
      4 C07       -15.6310   -4.9030    6.4640 C.ar      1 NP8         0.0376
      5 N09       -15.3140   -5.3940    5.2620 N.ar      1 NP8        -0.3083
      6 C10       -15.3200   -6.7230    5.1080 C.ar      1 NP8         0.0047
      7 C12       -15.6330   -7.6290    6.1160 C.ar      1 NP8        -0.0059
      8 C13       -15.9700   -7.0890    7.3550 C.ar      1 NP8        -0.0095
      9 C15       -15.6300   -9.0960    5.8440 C.ar      1 NP8        -0.0086
     10 C16       -16.3320   -9.5930    4.7560 C.ar      1 NP8        -0.0126
     11 N18       -16.3990  -10.8820    4.3880 N.ar      1 NP8        -0.3003
     12 C19       -15.7200  -11.8080    5.0890 C.ar      1 NP8         0.1414
     13 N20       -15.8190  -13.0920    4.6800 N.pl3     1 NP8        -0.3073
     14 C22       -16.3800  -13.5100    3.3960 C.3       1 NP8         0.0463
     15 C24       -15.4890  -13.0790    2.2450 C.3       1 NP8         0.0102
     16 C27       -16.0600  -13.5930    0.9400 C.3       1 NP8        -0.0316
     17 N30       -16.1620  -15.0590    0.9800 N.4       1 NP8         0.2271
     18 C32       -17.0700  -15.5020    2.0470 C.3       1 NP8        -0.0316
     19 C35       -16.5680  -15.0150    3.3860 C.3       1 NP8         0.0102
     20 C38       -14.9710  -11.3740    6.2120 C.ar      1 NP8         0.1319
     21 N39       -14.2740  -12.3110    6.9570 N.am      1 NP8        -0.2259
     22 C41       -13.5130  -12.0700    8.0470 C.2       1 NP8         0.2214
     23 O42       -12.9400  -12.9930    8.6250 O.2       1 NP8        -0.3972
     24 C43       -13.4500  -10.6790    8.4490 C.2       1 NP8         0.0321
     25 C44       -12.6220  -10.3090    9.6480 C.3       1 NP8        -0.0220
     26 C48       -14.0990   -9.7060    7.7750 C.2       1 NP8        -0.0428
     27 C50       -14.8990  -10.0210    6.6130 C.ar      1 NP8         0.0141
     28 H1        -16.8445   -3.5687    9.9077 H         1 NP8         0.0580
     29 H2        -17.4815   -3.6022    8.2285 H         1 NP8         0.0580
     30 H3        -15.7510   -3.2226    8.5253 H         1 NP8         0.0580
     31 H4        -15.6248   -3.8284    6.6060 H         1 NP8         0.0734
     32 H5        -15.0638   -7.1203    4.1325 H         1 NP8         0.0724
     33 H6        -16.2344   -7.7432    8.1779 H         1 NP8         0.0645
     34 H7        -16.8745   -8.8771    4.1492 H         1 NP8         0.0661
     35 H8        -15.4760  -13.8262    5.3158 H         1 NP8         0.1785
     36 H9        -17.3628  -13.0319    3.2717 H         1 NP8         0.0555
     37 H10       -14.4792  -13.4904    2.3899 H         1 NP8         0.0339
     38 H11       -15.4365  -11.9807    2.2141 H         1 NP8         0.0339
     39 H12       -15.4003  -13.2960    0.1114 H         1 NP8         0.0814
     40 H13       -17.0602  -13.1622    0.7849 H         1 NP8         0.0814
     41 H14       -15.2467  -15.4475    1.1455 H         1 NP8         0.2013
     42 H15       -16.5116  -15.3882    0.0937 H         1 NP8         0.2013
     43 H16       -17.1167  -16.6010    2.0530 H         1 NP8         0.0814
     44 H17       -18.0747  -15.0933    1.8638 H         1 NP8         0.0814
     45 H18       -17.2975  -15.2891    4.1623 H         1 NP8         0.0339
     46 H19       -15.6033  -15.4971    3.6027 H         1 NP8         0.0339
     47 H20       -14.3409  -13.2628    6.6575 H         1 NP8         0.2357
     48 H21       -12.6823   -9.2233    9.8143 H         1 NP8         0.0406
     49 H22       -11.5745  -10.5954    9.4728 H         1 NP8         0.0406
     50 H23       -13.0033  -10.8374   10.5342 H         1 NP8         0.0406
     51 H24       -14.0190   -8.6730    8.1102 H         1 NP8         0.0571
@<TRIPOS>BOND
     1    1    2 1  
     2    2    3 1  
     3    3    4 ar 
     4    3    8 ar 
     5    4    5 ar 
     6    5    6 ar 
     7    6    7 ar 
     8    7    8 ar 
     9    7    9 1  
    10    9   10 ar 
    11    9   27 ar 
    12   10   11 ar 
    13   11   12 ar 
    14   12   13 1  
    15   12   20 ar 
    16   13   14 1  
    17   14   15 1  
    18   14   19 1  
    19   15   16 1  
    20   16   17 1  
    21   17   18 1  
    22   18   19 1  
    23   20   21 1  
    24   20   27 ar 
    25   21   22 am 
    26   22   23 2  
    27   22   24 1  
    28   24   25 1  
    29   24   26 2  
    30   26   27 1  
    31    1   28 1  
    32    1   29 1  
    33    1   30 1  
    34    4   31 1  
    35    6   32 1  
    36    8   33 1  
    37   10   34 1  
    38   13   35 1  
    39   14   36 1  
    40   15   37 1  
    41   15   38 1  
    42   16   39 1  
    43   16   40 1  
    44   17   41 1  
    45   17   42 1  
    46   18   43 1  
    47   18   44 1  
    48   19   45 1  
    49   19   46 1  
    50   21   47 1  
    51   25   48 1  
    52   25   49 1  
    53   25   50 1  
    54   26   51 1  
@<TRIPOS>SUBSTRUCTURE
     1 NP8         1

