### 
### Created by X-TOOL on Mon Sep 10 21:13:29 2018
### 

@<TRIPOS>MOLECULE
5a5v_ligand
   52    53     1     0     0
SMALL
GAST_HUCK


@<TRIPOS>ATOM
      1 C1         -8.5530    7.2200    2.7910 C.ar      1 PXJ        -0.0372
      2 C2         -8.5920    7.4970    1.4200 C.ar      1 PXJ         0.1223
      3 C3         -9.7310    7.9860    0.8760 C.ar      1 PXJ         0.1379
      4 C4        -10.8690    8.2420    1.6740 C.ar      1 PXJ         0.0700
      5 C5        -10.8160    8.0010    3.0470 C.ar      1 PXJ        -0.0617
      6 C6         -9.6530    7.4680    3.6080 C.ar      1 PXJ        -0.0763
      7 C8        -12.0860    8.8780    1.0710 C.2       1 PXJ         0.1964
      8 O9        -13.1050    9.0690    1.7130 O.2       1 PXJ        -0.3912
      9 N10       -11.9550    9.3350   -0.1770 N.am      1 PXJ        -0.2882
     10 C11       -13.0720    9.8990   -0.8970 C.3       1 PXJ         0.0301
     11 C12       -12.7410   10.8650   -2.0190 C.3       1 PXJ        -0.0328
     12 C13       -11.2550   11.0550   -2.2630 C.3       1 PXJ        -0.0512
     13 C14       -10.8360   12.4850   -2.5240 C.3       1 PXJ        -0.0512
     14 C15        -9.8670   12.9320   -1.4610 C.3       1 PXJ        -0.0328
     15 C16        -8.5160   13.2890   -2.0170 C.3       1 PXJ         0.0301
     16 N17        -7.6680   12.1180   -1.9410 N.am      1 PXJ        -0.2882
     17 C18        -6.3770   12.1460   -2.2530 C.2       1 PXJ         0.1964
     18 O19        -5.8690   13.1920   -2.6180 O.2       1 PXJ        -0.3912
     19 C20        -5.5420   10.8770   -2.1880 C.ar      1 PXJ         0.0700
     20 C21        -6.1050    9.6170   -1.9230 C.ar      1 PXJ         0.1379
     21 C22        -5.3230    8.4780   -1.8880 C.ar      1 PXJ         0.1223
     22 C23        -3.9510    8.5900   -2.1180 C.ar      1 PXJ        -0.0372
     23 C24        -3.3740    9.8440   -2.3840 C.ar      1 PXJ        -0.0763
     24 C25        -4.1730   10.9800   -2.4070 C.ar      1 PXJ        -0.0617
     25 O26        -9.6820    8.1920   -0.4610 O.3       1 PXJ        -0.3312
     26 O27        -7.5400    7.2990    0.5780 O.3       1 PXJ        -0.3357
     27 O28        -7.4320    9.4270   -1.7110 O.3       1 PXJ        -0.3312
     28 O29        -5.9000    7.2640   -1.6610 O.3       1 PXJ        -0.3357
     29 H1         -7.6504    6.8050    3.2248 H         1 PXJ         0.0543
     30 H2        -11.6712    8.2257    3.6741 H         1 PXJ         0.0544
     31 H3         -9.6073    7.2496    4.6688 H         1 PXJ         0.0508
     32 H4        -11.0616    9.2853   -0.6235 H         1 PXJ         0.1840
     33 H5        -13.7007   10.4347   -0.1705 H         1 PXJ         0.0519
     34 H6        -13.6432    9.0657   -1.3322 H         1 PXJ         0.0519
     35 H7        -13.1770   11.8438   -1.7704 H         1 PXJ         0.0285
     36 H8        -13.1962   10.4855   -2.9456 H         1 PXJ         0.0285
     37 H9        -10.9708   10.4497   -3.1364 H         1 PXJ         0.0266
     38 H10       -10.7132   10.6956   -1.3758 H         1 PXJ         0.0266
     39 H11       -11.7232   13.1350   -2.5066 H         1 PXJ         0.0266
     40 H12       -10.3528   12.5503   -3.5100 H         1 PXJ         0.0266
     41 H13        -9.7432   12.1167   -0.7330 H         1 PXJ         0.0285
     42 H14       -10.2834   13.8154   -0.9549 H         1 PXJ         0.0285
     43 H15        -8.0752   14.1060   -1.4270 H         1 PXJ         0.0519
     44 H16        -8.6175   13.6070   -3.0651 H         1 PXJ         0.0519
     45 H17        -8.0704   11.2529   -1.6415 H         1 PXJ         0.1840
     46 H18        -3.3264    7.7045   -2.0914 H         1 PXJ         0.0543
     47 H19        -2.3092    9.9242   -2.5705 H         1 PXJ         0.0508
     48 H20        -3.7276   11.9500   -2.5963 H         1 PXJ         0.0544
     49 H21        -8.8221    7.9522   -0.7859 H         1 PXJ         0.2472
     50 H22        -7.7884    6.6782   -0.0968 H         1 PXJ         0.2443
     51 H23        -7.5623    9.0402   -0.8531 H         1 PXJ         0.2472
     52 H24        -6.8333    7.3785   -1.5258 H         1 PXJ         0.2443
@<TRIPOS>BOND
     1    1    2 ar 
     2    1    6 ar 
     3    2    3 ar 
     4    2   26 1  
     5    3    4 ar 
     6    3   25 1  
     7    4    5 ar 
     8    4    7 1  
     9    5    6 ar 
    10    7    8 2  
    11    7    9 am 
    12    9   10 1  
    13   10   11 1  
    14   11   12 1  
    15   12   13 1  
    16   13   14 1  
    17   14   15 1  
    18   15   16 1  
    19   16   17 am 
    20   17   18 2  
    21   17   19 1  
    22   19   20 ar 
    23   19   24 ar 
    24   20   21 ar 
    25   20   27 1  
    26   21   22 ar 
    27   21   28 1  
    28   22   23 ar 
    29   23   24 ar 
    30    1   29 1  
    31    5   30 1  
    32    6   31 1  
    33    9   32 1  
    34   10   33 1  
    35   10   34 1  
    36   11   35 1  
    37   11   36 1  
    38   12   37 1  
    39   12   38 1  
    40   13   39 1  
    41   13   40 1  
    42   14   41 1  
    43   14   42 1  
    44   15   43 1  
    45   15   44 1  
    46   16   45 1  
    47   22   46 1  
    48   23   47 1  
    49   24   48 1  
    50   25   49 1  
    51   26   50 1  
    52   27   51 1  
    53   28   52 1  
@<TRIPOS>SUBSTRUCTURE
     1 PXJ         1

