### 
### Created by X-TOOL on Mon Sep 10 21:13:24 2018
### 

@<TRIPOS>MOLECULE
5a5z_ligand
   18    17     1     0     0
SMALL
GAST_HUCK


@<TRIPOS>ATOM
      1 C01        12.2740   57.2860   -5.5890 C.3       1 WJZ        -0.0363
      2 N01        13.5340   54.5350   -7.7450 N.am      1 WJZ        -0.2732
      3 O01        12.8730   51.0880   -7.6610 O.co2     1 WJZ        -0.5669
      4 S01        14.5020   56.1100   -4.6780 S.3       1 WJZ        -0.1534
      5 C02        13.0710   56.0080   -5.7180 C.3       1 WJZ         0.0885
      6 O02        14.5190   52.1800   -8.5830 O.co2     1 WJZ        -0.5669
      7 C03        13.4940   55.8280   -7.1590 C.2       1 WJZ         0.1900
      8 O03        13.8000   56.7990   -7.8210 O.2       1 WJZ        -0.3958
      9 C04        13.1780   53.3800   -6.9940 C.3       1 WJZ         0.0832
     10 C05        13.5420   52.1460   -7.7900 C.2       1 WJZ         0.0570
     11 H1         11.3836   57.2294   -6.2325 H         1 WJZ         0.0265
     12 H2         12.8961   58.1389   -5.8981 H         1 WJZ         0.0265
     13 H3         11.9622   57.4197   -4.5426 H         1 WJZ         0.0265
     14 H4         13.8164   54.4348   -8.6991 H         1 WJZ         0.1872
     15 H5         15.0681   56.8937   -4.9633 H         1 WJZ         0.1046
     16 H6         12.4518   55.1533   -5.4080 H         1 WJZ         0.0646
     17 H7         12.0957   53.3865   -6.7975 H         1 WJZ         0.0689
     18 H8         13.7241   53.3777   -6.0391 H         1 WJZ         0.0689
@<TRIPOS>BOND
     1    5    1 1  
     2    2    7 am 
     3    9    2 1  
     4   10    3 ar 
     5    5    4 1  
     6    7    5 1  
     7   10    6 ar 
     8    7    8 2  
     9    9   10 1  
    10    1   11 1  
    11    1   12 1  
    12    1   13 1  
    13    2   14 1  
    14    4   15 1  
    15    5   16 1  
    16    9   17 1  
    17    9   18 1  
@<TRIPOS>SUBSTRUCTURE
     1 WJZ         1

