### 
### Created by X-TOOL on Mon Sep 10 21:13:25 2018
### 

@<TRIPOS>MOLECULE
5a69_ligand
   45    46     1     0     0
SMALL
GAST_HUCK


@<TRIPOS>ATOM
      1 CAA        -5.9190  -31.5920  -17.2190 C.3       1 OGN         0.1496
      2 CAB        -4.3860  -31.5010  -17.4020 C.3       1 OGN         0.1540
      3 CAC        -3.8040  -30.1350  -16.9290 C.3       1 OGN         0.1608
      4 CAD        -4.8360  -29.1610  -17.3900 C.2       1 OGN         0.1672
      5 CAE        -6.0590  -29.1950  -16.5920 C.3       1 OGN         0.1624
      6 CAF        -7.0100  -28.0040  -16.8410 C.3       1 OGN         0.0868
      7 CAG        -4.3100  -32.8270  -15.3350 C.2       1 OGN         0.1736
      8 CAH        -3.6530  -33.9520  -14.5510 C.3       1 OGN         0.0257
      9 NAI        -3.8380  -32.5900  -16.5590 N.am      1 OGN        -0.2717
     10 OAJ        -2.4930  -29.7490  -17.4140 O.3       1 OGN        -0.3697
     11 OAK        -4.7710  -28.5820  -18.4550 O.2       1 OGN        -0.3859
     12 OAL        -6.6720  -30.3770  -17.0790 O.3       1 OGN        -0.3087
     13 OAM        -7.6110  -28.0230  -18.1420 O.3       1 OGN        -0.3900
     14 OAN        -5.2400  -32.1670  -14.8560 O.2       1 OGN        -0.3974
     15 NAO       -10.1270  -32.8150  -18.9690 N.am      1 OGN        -0.2048
     16 CAP        -8.8050  -32.8770  -19.1540 C.2       1 OGN         0.3948
     17 OAQ        -7.9620  -32.2400  -18.1560 O.3       1 OGN        -0.1887
     18 OAR        -8.2420  -33.4050  -20.1050 O.2       1 OGN        -0.3634
     19 CAS       -11.0710  -33.3660  -19.8370 C.ar      1 OGN         0.0683
     20 CAT       -10.9290  -33.2940  -21.2240 C.ar      1 OGN        -0.0413
     21 CAU       -11.9120  -33.8560  -22.0470 C.ar      1 OGN        -0.0756
     22 CAV       -13.0260  -34.4900  -21.4920 C.ar      1 OGN        -0.0773
     23 CAW       -13.1670  -34.5540  -20.1110 C.ar      1 OGN        -0.0756
     24 CAX       -12.1930  -33.9850  -19.2890 C.ar      1 OGN        -0.0413
     25 NAY        -6.6210  -32.2520  -18.2700 N.4       1 OGN         0.4352
     26 H1         -6.0590  -32.1739  -16.2961 H         1 OGN         0.1227
     27 H2         -4.1230  -31.6579  -18.4585 H         1 OGN         0.0693
     28 H3         -3.7528  -30.1394  -15.8302 H         1 OGN         0.0856
     29 H4         -5.8267  -29.2611  -15.5188 H         1 OGN         0.0858
     30 H5         -6.4371  -27.0711  -16.7343 H         1 OGN         0.0609
     31 H6         -7.8097  -28.0316  -16.0862 H         1 OGN         0.0609
     32 H7         -4.1333  -34.0412  -13.5654 H         1 OGN         0.0467
     33 H8         -2.5835  -33.7311  -14.4190 H         1 OGN         0.0467
     34 H9         -3.7669  -34.8976  -15.1013 H         1 OGN         0.0467
     35 H10        -3.0978  -33.1596  -16.9163 H         1 OGN         0.1860
     36 H11        -2.5005  -29.7314  -18.3638 H         1 OGN         0.2135
     37 H12        -6.9307  -27.9908  -18.8044 H         1 OGN         0.2097
     38 H13       -10.4624  -32.3422  -18.1542 H         1 OGN         0.2277
     39 H14       -10.0644  -32.8068  -21.6601 H         1 OGN         0.0502
     40 H15       -11.8078  -33.7987  -23.1245 H         1 OGN         0.0577
     41 H16       -13.7781  -34.9307  -22.1364 H         1 OGN         0.0487
     42 H17       -14.0297  -35.0437  -19.6740 H         1 OGN         0.0577
     43 H18       -12.3106  -34.0250  -18.2121 H         1 OGN         0.0502
     44 H19        -6.3181  -33.2131  -18.2925 H         1 OGN         0.2433
     45 H20        -6.3774  -31.8025  -19.1387 H         1 OGN         0.2433
@<TRIPOS>BOND
     1    1    2 1  
     2    1   12 1  
     3   25    1 1  
     4    2    3 1  
     5    2    9 1  
     6    3    4 1  
     7    3   10 1  
     8    5    4 1  
     9    4   11 2  
    10    5    6 1  
    11   12    5 1  
    12    6   13 1  
    13    7    8 1  
    14    9    7 am 
    15    7   14 2  
    16   16   15 am 
    17   15   19 1  
    18   17   16 1  
    19   16   18 2  
    20   17   25 1  
    21   19   20 ar 
    22   19   24 ar 
    23   20   21 ar 
    24   21   22 ar 
    25   22   23 ar 
    26   23   24 ar 
    27    1   26 1  
    28    2   27 1  
    29    3   28 1  
    30    5   29 1  
    31    6   30 1  
    32    6   31 1  
    33    8   32 1  
    34    8   33 1  
    35    8   34 1  
    36    9   35 1  
    37   10   36 1  
    38   13   37 1  
    39   15   38 1  
    40   20   39 1  
    41   21   40 1  
    42   22   41 1  
    43   23   42 1  
    44   24   43 1  
    45   25   44 1  
    46   25   45 1  
@<TRIPOS>SUBSTRUCTURE
     1 OGN         1

