### 
### Created by X-TOOL on Mon Sep 10 21:13:25 2018
### 

@<TRIPOS>MOLECULE
5a6a_ligand
   27    28     1     0     0
SMALL
GAST_HUCK


@<TRIPOS>ATOM
      1 C1        -17.6620  -31.1640   16.3730 C.3       1 NGT         0.1382
      2 C2        -18.9800  -31.0130   17.1850 C.3       1 NGT         0.0652
      3 C3        -19.5340  -29.5810   17.1640 C.3       1 NGT         0.0954
      4 C4        -18.4580  -28.5710   17.4730 C.3       1 NGT         0.1101
      5 C5        -17.3090  -28.7430   16.4800 C.3       1 NGT         0.1116
      6 C6        -16.2220  -27.6970   16.7040 C.3       1 NGT         0.0730
      7 C7        -19.6570  -31.9660   15.2210 C.2       1 NGT         0.0728
      8 C8        -20.6810  -32.5820   14.3160 C.3       1 NGT         0.0106
      9 N2        -19.9230  -31.8550   16.4520 N.2       1 NGT        -0.3502
     10 S1        -18.1690  -31.3990   14.6860 S.3       1 NGT        -0.0199
     11 O3        -20.5920  -29.3530   18.0980 O.3       1 NGT        -0.3883
     12 O4        -19.0850  -27.2890   17.3400 O.3       1 NGT        -0.3866
     13 O5        -16.7510  -30.0630   16.5590 O.3       1 NGT        -0.3535
     14 O6        -15.6900  -27.8680   18.0230 O.3       1 NGT        -0.3924
     15 H1        -17.1424  -32.0725   16.7115 H         1 NGT         0.0761
     16 H2        -18.8433  -31.3511   18.2228 H         1 NGT         0.0431
     17 H3        -19.9196  -29.3916   16.1514 H         1 NGT         0.0628
     18 H4        -18.0809  -28.7050   18.4976 H         1 NGT         0.0646
     19 H5        -17.7138  -28.6030   15.4669 H         1 NGT         0.0646
     20 H6        -16.6512  -26.6891   16.6051 H         1 NGT         0.0584
     21 H7        -15.4214  -27.8292   15.9613 H         1 NGT         0.0584
     22 H8        -21.5643  -32.8705   14.9046 H         1 NGT         0.0521
     23 H9        -20.2548  -33.4738   13.8334 H         1 NGT         0.0521
     24 H10       -20.9754  -31.8537   13.5460 H         1 NGT         0.0521
     25 H11       -21.2942  -29.9723   17.9368 H         1 NGT         0.2099
     26 H12       -18.4445  -26.6062   17.5014 H         1 NGT         0.2100
     27 H13       -16.3851  -27.7552   18.6607 H         1 NGT         0.2095
@<TRIPOS>BOND
     1    2    1 1  
     2    1   10 1  
     3    1   13 1  
     4    2    3 1  
     5    9    2 1  
     6    3    4 1  
     7    3   11 1  
     8    4    5 1  
     9    4   12 1  
    10    5    6 1  
    11   13    5 1  
    12    6   14 1  
    13    7    8 1  
    14    7    9 2  
    15    7   10 1  
    16    1   15 1  
    17    2   16 1  
    18    3   17 1  
    19    4   18 1  
    20    5   19 1  
    21    6   20 1  
    22    6   21 1  
    23    8   22 1  
    24    8   23 1  
    25    8   24 1  
    26   11   25 1  
    27   12   26 1  
    28   14   27 1  
@<TRIPOS>SUBSTRUCTURE
     1 NGT         1

