### 
### Created by X-TOOL on Mon Sep 10 21:13:21 2018
### 

@<TRIPOS>MOLECULE
5a6b_ligand
   44    45     1     0     0
SMALL
GAST_HUCK


@<TRIPOS>ATOM
      1 CAH        27.8540  -18.5590   10.7930 C.3       1 OAN         0.0258
      2 CAG        28.5030  -17.8000    9.6270 C.2       1 OAN         0.1755
      3 OAN        29.2050  -18.3600    8.8030 O.2       1 OAN        -0.3972
      4 NAI        28.2800  -16.4800    9.6240 N.am      1 OAN        -0.2641
      5 CAB        28.8600  -15.5920    8.6100 C.3       1 OAN         0.1483
      6 CAC        28.0480  -15.7600    7.2960 C.3       1 OAN         0.1223
      7 OAJ        26.9260  -14.8280    7.1840 O.3       1 OAN        -0.3842
      8 CAD        28.9490  -15.6090    6.0770 C.3       1 OAN         0.1187
      9 OAK        28.2100  -15.8390    4.8720 O.3       1 OAN        -0.3859
     10 CAE        30.0510  -16.6220    6.1530 C.3       1 OAN         0.1375
     11 CAF        30.9360  -16.6020    4.9100 C.3       1 OAN         0.0780
     12 OAM        31.6960  -15.3740    4.8150 O.3       1 OAN        -0.3919
     13 OAL        30.9460  -16.3620    7.2450 O.3       1 OAN        -0.2871
     14 CAA        30.3440  -15.7810    8.4100 C.2       1 OAN         0.1893
     15 NAY        31.1740  -15.4000    9.2950 N.2       1 OAN        -0.1541
     16 OAQ        32.4190  -15.5160    9.0080 O.3       1 OAN        -0.1506
     17 CAP        33.4140  -14.6850    9.6470 C.2       1 OAN         0.3788
     18 OAR        33.1050  -13.7490   10.3810 O.2       1 OAN        -0.3643
     19 NAO        34.6600  -15.0460    9.4480 N.am      1 OAN        -0.2057
     20 CAS        35.7120  -14.4520   10.0830 C.ar      1 OAN         0.0683
     21 CAT        35.5600  -13.3560   10.9420 C.ar      1 OAN        -0.0414
     22 CAU        36.6660  -12.7920   11.5660 C.ar      1 OAN        -0.0756
     23 CAV        37.9230  -13.3180   11.3370 C.ar      1 OAN        -0.0773
     24 CAW        38.0800  -14.4050   10.4870 C.ar      1 OAN        -0.0756
     25 CAX        36.9830  -14.9810    9.8760 C.ar      1 OAN        -0.0414
     26 H1         27.2686  -17.8581   11.4061 H         1 OAN         0.0467
     27 H2         28.6377  -19.0207   11.4115 H         1 OAN         0.0467
     28 H3         27.1906  -19.3420   10.3969 H         1 OAN         0.0467
     29 H4         27.6990  -16.0862   10.3363 H         1 OAN         0.1888
     30 H5         28.7202  -14.5581    8.9584 H         1 OAN         0.0821
     31 H6         27.6361  -16.7800    7.2934 H         1 OAN         0.0672
     32 H7         26.3281  -14.9653    7.9094 H         1 OAN         0.2103
     33 H8         29.3742  -14.5947    6.0604 H         1 OAN         0.0653
     34 H9         28.7874  -15.7406    4.1241 H         1 OAN         0.2100
     35 H10        29.5986  -17.6176    6.2715 H         1 OAN         0.0708
     36 H11        30.2999  -16.6977    4.0177 H         1 OAN         0.0588
     37 H12        31.6341  -17.4509    4.9555 H         1 OAN         0.0588
     38 H13        32.2519  -15.2869    5.5804 H         1 OAN         0.2095
     39 H14        34.8465  -15.7878    8.8038 H         1 OAN         0.2276
     40 H15        34.5730  -12.9451   11.1211 H         1 OAN         0.0501
     41 H16        36.5433  -11.9434   12.2293 H         1 OAN         0.0577
     42 H17        38.7886  -12.8812   11.8219 H         1 OAN         0.0487
     43 H18        39.0705  -14.8044   10.3016 H         1 OAN         0.0577
     44 H19        37.1120  -15.8455    9.2349 H         1 OAN         0.0501
@<TRIPOS>BOND
     1    1    2 1  
     2    2    3 2  
     3    2    4 am 
     4    4    5 1  
     5    5    6 1  
     6    5   14 1  
     7    6    7 1  
     8    6    8 1  
     9    8    9 1  
    10    8   10 1  
    11   10   11 1  
    12   10   13 1  
    13   11   12 1  
    14   13   14 1  
    15   14   15 2  
    16   15   16 1  
    17   16   17 1  
    18   17   18 2  
    19   17   19 am 
    20   19   20 1  
    21   20   21 ar 
    22   20   25 ar 
    23   21   22 ar 
    24   22   23 ar 
    25   23   24 ar 
    26   24   25 ar 
    27    1   26 1  
    28    1   27 1  
    29    1   28 1  
    30    4   29 1  
    31    5   30 1  
    32    6   31 1  
    33    7   32 1  
    34    8   33 1  
    35    9   34 1  
    36   10   35 1  
    37   11   36 1  
    38   11   37 1  
    39   12   38 1  
    40   19   39 1  
    41   21   40 1  
    42   22   41 1  
    43   23   42 1  
    44   24   43 1  
    45   25   44 1  
@<TRIPOS>SUBSTRUCTURE
     1 OAN         1

