### 
### Created by X-TOOL on Mon Sep 10 21:13:26 2018
### 

@<TRIPOS>MOLECULE
5a6h_ligand
   35    35     1     0     0
SMALL
GAST_HUCK


@<TRIPOS>ATOM
      1 C19        -2.4970    8.6650   11.6770 C.ar      1 OE2        -0.0638
      2 C18        -2.3060    9.9850   12.0200 C.ar      1 OE2        -0.0364
      3 C13        -1.6480    7.8740   13.7710 C.ar      1 OE2        -0.0572
      4 C12        -2.1770    7.6210   12.5400 C.ar      1 OE2        -0.0388
      5 C16        -1.7700   10.2380   13.2500 C.ar      1 OE2         0.0910
      6 C14        -1.4640    9.1850   14.0840 C.ar      1 OE2         0.0343
      7 C10        -2.3830    5.2300   13.1740 C.2       1 OE2         0.1358
      8 C2         -3.7220    4.6930   13.6580 C.2       1 OE2         0.2199
      9 C11        -2.4200    6.2510   12.0660 C.3       1 OE2         0.0321
     10 C4         -4.8670    2.7070   14.5380 C.3       1 OE2         0.0513
     11 C5         -4.5740    2.4910   15.9920 C.3       1 OE2         0.1041
     12 N20        -1.2980    4.7640   13.6990 N.2       1 OE2        -0.1459
     13 N8         -5.2800   -0.1110   16.2120 N.am      1 OE2        -0.2653
     14 N3         -3.6570    3.3800   14.0420 N.am      1 OE2        -0.2839
     15 O1         -4.7420    5.3800   13.5780 O.2       1 OE2        -0.3848
     16 O7         -7.0450    1.6590   16.4300 O.2       1 OE2        -0.1556
     17 O9         -5.3460    1.4350   18.1840 O.2       1 OE2        -0.1556
     18 O17        -1.5500   11.5280   13.6490 O.3       1 OE2        -0.3353
     19 O21        -0.1270    5.3300   13.1490 O.3       1 OE2        -0.2557
     20 S6         -5.6660    1.3500   16.7670 S.o2      1 OE2         0.0386
     21 BR         -0.7720    9.5390   15.7290 Br        1 OE2        -0.0596
     22 H1         -2.9103    8.4313   10.7025 H         1 OE2         0.0558
     23 H2         -2.5699   10.7889   11.3424 H         1 OE2         0.0534
     24 H3         -1.3894    7.0776   14.4595 H         1 OE2         0.0560
     25 H4         -1.6477    5.9937   11.3262 H         1 OE2         0.0573
     26 H5         -3.4107    6.2154   11.5894 H         1 OE2         0.0573
     27 H6         -5.7538    3.3442   14.4057 H         1 OE2         0.0536
     28 H7         -5.0238    1.7485   14.0216 H         1 OE2         0.0536
     29 H8         -4.6552    3.4576   16.5107 H         1 OE2         0.0538
     30 H9         -3.5469    2.1090   16.0870 H         1 OE2         0.0538
     31 H10        -5.7839   -0.9150   16.5278 H         1 OE2         0.1631
     32 H11        -4.5364   -0.2145   15.5515 H         1 OE2         0.1631
     33 H12        -2.7918    2.8818   13.9855 H         1 OE2         0.1842
     34 H13        -1.8155   12.1221   12.9568 H         1 OE2         0.2474
     35 H14         0.6350    4.9513   13.5715 H         1 OE2         0.2787
@<TRIPOS>BOND
     1    1    2 ar 
     2    4    1 ar 
     3    2    5 ar 
     4    4    3 ar 
     5    3    6 ar 
     6    9    4 1  
     7    6    5 ar 
     8    5   18 1  
     9    6   21 1  
    10    8    7 1  
    11    7    9 1  
    12    7   12 2  
    13   14    8 am 
    14    8   15 2  
    15   10   11 1  
    16   10   14 1  
    17   11   20 1  
    18   12   19 1  
    19   20   13 am 
    20   20   16 2  
    21   20   17 2  
    22    1   22 1  
    23    2   23 1  
    24    3   24 1  
    25    9   25 1  
    26    9   26 1  
    27   10   27 1  
    28   10   28 1  
    29   11   29 1  
    30   11   30 1  
    31   13   31 1  
    32   13   32 1  
    33   14   33 1  
    34   18   34 1  
    35   19   35 1  
@<TRIPOS>SUBSTRUCTURE
     1 OE2         1

