### 
### Created by X-TOOL on Mon Sep 10 21:13:29 2018
### 

@<TRIPOS>MOLECULE
5a6i_ligand
   31    32     1     0     0
SMALL
GAST_HUCK


@<TRIPOS>ATOM
      1 O13         1.7420   21.5560   82.9900 O.2       1 TCW        -0.3242
      2 C12         1.0330   21.3500   83.9530 C.2       1 TCW         0.2295
      3 C4          0.6310   19.9120   84.1320 C.ar      1 TCW         0.1691
      4 C3          1.3000   18.8900   83.4340 C.ar      1 TCW         0.1553
      5 C2          0.9180   17.5600   83.6190 C.ar      1 TCW         0.3812
      6 O7          1.5370   16.5360   82.9520 O.3       1 TCW        -0.1819
      7 C5         -0.3960   19.5790   85.0070 C.ar      1 TCW         0.1157
      8 C6         -0.7820   18.2410   85.1810 C.ar      1 TCW         0.2832
      9 N9         -1.8990   17.9030   86.1260 N.2       1 TCW        -0.1848
     10 O11        -2.2530   16.7470   86.2910 O.2       1 TCW        -0.4884
     11 O10        -2.4060   18.7650   86.6730 O.2       1 TCW        -0.4884
     12 C1         -0.1260   17.2120   84.4970 C.ar      1 TCW         0.4073
     13 O8         -0.5200   15.9250   84.6950 O.3       1 TCW        -0.1743
     14 C14         0.6640   22.5080   84.8440 C.ar      1 TCW         0.0427
     15 C19         0.1390   23.7100   84.3290 C.ar      1 TCW        -0.0487
     16 C18        -0.2240   24.7940   85.1510 C.ar      1 TCW        -0.0545
     17 C17        -0.0720   24.7140   86.5360 C.ar      1 TCW        -0.0411
     18 C20        -0.4480   25.8420   87.4450 C.3       1 TCW        -0.0288
     19 C16         0.4280   23.5160   87.0420 C.ar      1 TCW        -0.0545
     20 C15         0.7900   22.4430   86.2250 C.ar      1 TCW        -0.0487
     21 H1          2.1090   19.1343   82.7551 H         1 TCW         0.1075
     22 H2          1.1427   15.7099   83.2061 H         1 TCW         0.3502
     23 H3         -0.9039   20.3604   85.5606 H         1 TCW         0.1567
     24 H4         -0.4183   15.7015   85.6127 H         1 TCW         0.3547
     25 H5          0.0094   23.8039   83.2569 H         1 TCW         0.0653
     26 H6         -0.6244   25.6972   84.7049 H         1 TCW         0.0570
     27 H7         -0.2429   25.5568   88.4874 H         1 TCW         0.0401
     28 H8         -1.5191   26.0644   87.3297 H         1 TCW         0.0401
     29 H9          0.1417   26.7338   87.1861 H         1 TCW         0.0401
     30 H10         0.5407   23.4125   88.1151 H         1 TCW         0.0570
     31 H11         1.1782   21.5387   86.6795 H         1 TCW         0.0653
@<TRIPOS>BOND
     1    1    2 2  
     2    2    3 1  
     3    2   14 1  
     4    3    4 ar 
     5    3    7 ar 
     6    4    5 ar 
     7    5    6 1  
     8    5   12 ar 
     9    7    8 ar 
    10    8    9 1  
    11    8   12 ar 
    12    9   10 2  
    13    9   11 2  
    14   12   13 1  
    15   14   15 ar 
    16   14   20 ar 
    17   15   16 ar 
    18   16   17 ar 
    19   17   18 1  
    20   17   19 ar 
    21   19   20 ar 
    22    4   21 1  
    23    6   22 1  
    24    7   23 1  
    25   13   24 1  
    26   15   25 1  
    27   16   26 1  
    28   18   27 1  
    29   18   28 1  
    30   18   29 1  
    31   19   30 1  
    32   20   31 1  
@<TRIPOS>SUBSTRUCTURE
     1 TCW         1

