### 
### Created by X-TOOL on Mon Sep 10 21:13:23 2018
### 

@<TRIPOS>MOLECULE
5a6k_ligand
   30    31     1     0     0
SMALL
GAST_HUCK


@<TRIPOS>ATOM
      1 C1        -21.1980  -32.5070   13.3010 C.3       1 NSG         0.1543
      2 S1        -21.5540  -32.8870   11.5910 S.3       1 NSG        -0.0719
      3 C2        -22.5800  -32.2350   13.8910 C.3       1 NSG         0.0439
      4 N2        -23.4000  -33.3260   13.3210 N.4       1 NSG         0.2431
      5 C3        -23.1320  -30.8090   13.5430 C.3       1 NSG         0.1290
      6 O3        -24.3460  -30.5040   14.2590 O.3       1 NSG        -0.3834
      7 C4        -22.0820  -29.6900   13.7730 C.3       1 NSG         0.1146
      8 O4        -21.9300  -29.4310   15.1640 O.3       1 NSG        -0.3864
      9 C5        -20.7750  -30.1240   13.0700 C.3       1 NSG         0.1117
     10 O5        -20.3220  -31.3670   13.5570 O.3       1 NSG        -0.3520
     11 C6        -19.5780  -29.1540   13.2190 C.3       1 NSG         0.0730
     12 O6        -19.0990  -29.0810   14.5560 O.3       1 NSG        -0.3924
     13 C7        -23.2670  -33.3020   11.8610 C.3       1 NSG         0.0249
     14 C8        -23.7120  -34.5970   11.1710 C.3       1 NSG        -0.0116
     15 H1        -20.7447  -33.3898   13.7755 H         1 NSG         0.0773
     16 H2        -22.5438  -32.3257   14.9866 H         1 NSG         0.0912
     17 H3        -24.3661  -33.1925   13.5756 H         1 NSG         0.2030
     18 H4        -23.0784  -34.2129   13.6761 H         1 NSG         0.2030
     19 H5        -23.3755  -30.8137   12.4703 H         1 NSG         0.0678
     20 H6        -25.0134  -31.1418   14.0347 H         1 NSG         0.2102
     21 H7        -22.4372  -28.7639   13.2975 H         1 NSG         0.0648
     22 H8        -21.2849  -28.7447   15.2886 H         1 NSG         0.2100
     23 H9        -21.0033  -30.2214   11.9984 H         1 NSG         0.0646
     24 H10       -19.8965  -28.1496   12.9032 H         1 NSG         0.0584
     25 H11       -18.7603  -29.5005   12.5699 H         1 NSG         0.0584
     26 H12       -19.7960  -28.7757   15.1247 H         1 NSG         0.2095
     27 H13       -23.8961  -32.4936   11.4601 H         1 NSG         0.0972
     28 H14       -24.7751  -34.7804   11.3860 H         1 NSG         0.0293
     29 H15       -23.1114  -35.4382   11.5474 H         1 NSG         0.0293
     30 H16       -23.5689  -34.5015   10.0846 H         1 NSG         0.0293
@<TRIPOS>BOND
     1    1    2 1  
     2    1    3 1  
     3    1   10 1  
     4    2   13 1  
     5    3    4 1  
     6    3    5 1  
     7    4   13 1  
     8    5    6 1  
     9    5    7 1  
    10    7    8 1  
    11    7    9 1  
    12    9   10 1  
    13    9   11 1  
    14   11   12 1  
    15   13   14 1  
    16    1   15 1  
    17    3   16 1  
    18    4   17 1  
    19    4   18 1  
    20    5   19 1  
    21    6   20 1  
    22    7   21 1  
    23    8   22 1  
    24    9   23 1  
    25   11   24 1  
    26   11   25 1  
    27   12   26 1  
    28   13   27 1  
    29   14   28 1  
    30   14   29 1  
    31   14   30 1  
@<TRIPOS>SUBSTRUCTURE
     1 NSG         1

