### 
### Created by X-TOOL on Mon Sep 10 21:13:23 2018
### 

@<TRIPOS>MOLECULE
5a6n_ligand
   22    23     1     0     0
SMALL
GAST_HUCK


@<TRIPOS>ATOM
      1 O1          6.3650  112.6950  100.7620 O.2       1 U7E        -0.1505
      2 S           7.7250  113.1570  100.7240 S.o2      1 U7E         0.0659
      3 O           8.6140  112.0360  100.9430 O.2       1 U7E        -0.1505
      4 N4          8.0650  113.8230   99.3200 N.am      1 U7E        -0.2609
      5 C           7.9160  114.2500  101.8830 C.ar      1 U7E         0.1085
      6 C5          6.8380  114.7450  102.6040 C.ar      1 U7E        -0.0352
      7 C4          7.0560  115.6930  103.6130 C.ar      1 U7E        -0.0594
      8 C3          8.3460  116.1530  103.8860 C.ar      1 U7E        -0.0519
      9 C2          9.4320  115.6620  103.1590 C.ar      1 U7E         0.0113
     10 C1          9.1990  114.7110  102.1670 C.ar      1 U7E        -0.0254
     11 C6         10.8400  116.1100  103.4020 C.2       1 U7E         0.1488
     12 N3         12.0050  115.8060  102.8070 N.2       1 U7E        -0.1754
     13 N2         13.0200  116.5190  103.5020 N.2       1 U7E        -0.0518
     14 N1         12.4250  117.2990  104.4900 N.pl3     1 U7E        -0.1036
     15 N          11.0570  117.0070  104.3790 N.2       1 U7E        -0.1435
     16 H1          7.5452  114.6167   99.0041 H         1 U7E         0.1635
     17 H2          8.7986  113.4480   98.7533 H         1 U7E         0.1635
     18 H3          5.8333  114.4003  102.3879 H         1 U7E         0.0636
     19 H4          6.2172  116.0719  104.1856 H         1 U7E         0.0618
     20 H5          8.5042  116.8920  104.6631 H         1 U7E         0.0624
     21 H6         10.0378  114.3203  101.6023 H         1 U7E         0.0643
     22 H7         12.8836  117.9425  105.1506 H         1 U7E         0.2946
@<TRIPOS>BOND
     1    1    2 2  
     2    2    3 2  
     3    2    4 am 
     4    2    5 1  
     5    5    6 ar 
     6    5   10 ar 
     7    6    7 ar 
     8    7    8 ar 
     9    8    9 ar 
    10    9   10 ar 
    11    9   11 1  
    12   11   12 1  
    13   11   15 2  
    14   12   13 2  
    15   13   14 1  
    16   14   15 1  
    17    4   16 1  
    18    4   17 1  
    19    6   18 1  
    20    7   19 1  
    21    8   20 1  
    22   10   21 1  
    23   14   22 1  
@<TRIPOS>SUBSTRUCTURE
     1 U7E         1

