### 
### Created by X-TOOL on Mon Sep 10 21:13:25 2018
### 

@<TRIPOS>MOLECULE
5a6x_ligand
   26    26     1     0     0
SMALL
GAST_HUCK


@<TRIPOS>ATOM
      1 C1         -5.2390    6.8280    9.2330 C.3       1 MFU         0.1875
      2 C2         -4.2700    6.7240    8.0540 C.3       1 MFU         0.1341
      3 C3         -3.9690    8.0820    7.4980 C.3       1 MFU         0.1140
      4 C4         -3.3190    8.9000    8.5940 C.3       1 MFU         0.1095
      5 C5         -4.2500    8.9880    9.7910 C.3       1 MFU         0.0873
      6 C6         -3.6860    9.7260   10.9900 C.3       1 MFU        -0.0361
      7 O1         -6.4110    7.4190    8.7370 O.3       1 MFU        -0.3520
      8 O2         -4.8350    5.9270    7.0230 O.3       1 MFU        -0.3841
      9 O3         -2.9870    7.8530    6.4520 O.3       1 MFU        -0.3864
     10 O4         -2.0480    8.2810    8.8960 O.3       1 MFU        -0.3866
     11 O5         -4.6480    7.6710   10.2010 O.3       1 MFU        -0.3431
     12 CM         -7.4480    7.4290    9.7190 C.3       1 MFU         0.0395
     13 H1         -5.4525    5.8378    9.6618 H         1 MFU         0.0937
     14 H2         -3.3352    6.2596    8.4011 H         1 MFU         0.0671
     15 H3         -4.8715    8.5778    7.1112 H         1 MFU         0.0648
     16 H4         -3.1346    9.9206    8.2275 H         1 MFU         0.0646
     17 H5         -5.1471    9.5338    9.4633 H         1 MFU         0.0621
     18 H6         -4.4314    9.7350   11.7989 H         1 MFU         0.0255
     19 H7         -3.4435   10.7599   10.7034 H         1 MFU         0.0255
     20 H8         -2.7741    9.2183   11.3374 H         1 MFU         0.0255
     21 H9         -5.0305    5.0621    7.3640 H         1 MFU         0.2101
     22 H10        -2.6949    8.6878    6.1052 H         1 MFU         0.2100
     23 H11        -1.6028    8.7855    9.5667 H         1 MFU         0.2100
     24 H12        -8.3487    7.8982    9.2963 H         1 MFU         0.0525
     25 H13        -7.1151    8.0004   10.5980 H         1 MFU         0.0525
     26 H14        -7.6790    6.3962   10.0189 H         1 MFU         0.0525
@<TRIPOS>BOND
     1    1    2 1  
     2    1    7 1  
     3    1   11 1  
     4    2    3 1  
     5    2    8 1  
     6    3    4 1  
     7    3    9 1  
     8    4    5 1  
     9    4   10 1  
    10    5    6 1  
    11    5   11 1  
    12    7   12 1  
    13    1   13 1  
    14    2   14 1  
    15    3   15 1  
    16    4   16 1  
    17    5   17 1  
    18    6   18 1  
    19    6   19 1  
    20    6   20 1  
    21    8   21 1  
    22    9   22 1  
    23   10   23 1  
    24   12   24 1  
    25   12   25 1  
    26   12   26 1  
@<TRIPOS>SUBSTRUCTURE
     1 MFU         1

