### 
### Created by X-TOOL on Mon Sep 10 21:13:23 2018
### 

@<TRIPOS>MOLECULE
5a7b_ligand
   65    67     1     0     0
SMALL
GAST_HUCK


@<TRIPOS>ATOM
      1 C          92.2320   93.8370  -40.8630 C.1       1 KMN        -0.1209
      2 O          90.8200   89.7810  -48.9600 O.3       1 KMN        -0.3059
      3 C01        91.4600   93.2740  -45.6560 C.ar      1 KMN         0.0094
      4 C1         90.8150   95.5820  -45.1930 C.ar      1 KMN         0.0346
      5 N1         90.7820   98.1240  -44.9610 N.4       1 KMN         0.2459
      6 O1         90.9920   96.4090  -42.9400 O.3       1 KMN        -0.3327
      7 C02        91.7950   93.0810  -44.3150 C.ar      1 KMN        -0.0448
      8 C2         90.2820   96.8960  -45.7060 C.3       1 KMN         0.0008
      9 N2         92.1190  102.2070  -44.2090 N.4       1 KMN         0.2373
     10 C03        89.7810   99.2390  -45.0750 C.3       1 KMN        -0.0255
     11 C3         90.9810   94.5150  -46.0930 C.ar      1 KMN        -0.0471
     12 C04        91.6360   92.2010  -46.5890 C.1       1 KMN        -0.0744
     13 C4         91.6320   94.1340  -43.4090 C.ar      1 KMN         0.0504
     14 C05        91.8060   91.3290  -47.3990 C.1       1 KMN        -0.0696
     15 C06        92.0360   90.2460  -48.3690 C.3       1 KMN         0.1293
     16 C07        90.2430   90.5730  -49.9090 C.ar      1 KMN         0.0923
     17 C7         91.1500   95.3720  -43.8410 C.ar      1 KMN         0.1134
     18 C08        88.9820   90.1520  -50.3460 C.ar      1 KMN        -0.0331
     19 C8         90.2770  100.4560  -44.3060 C.3       1 KMN         0.0307
     20 C09        88.2910   90.8840  -51.3140 C.ar      1 KMN        -0.0706
     21 C10        91.6380  100.8890  -44.8430 C.3       1 KMN        -0.0111
     22 C11        90.9750  103.0080  -43.5790 C.3       1 KMN        -0.0345
     23 C12        90.4110  103.9980  -44.5850 C.3       1 KMN        -0.0245
     24 C13        93.3010  102.1080  -43.2520 C.3       1 KMN        -0.0345
     25 C14        93.6020  103.4750  -42.6610 C.3       1 KMN        -0.0245
     26 C15        92.6570   99.7580  -44.6600 C.3       1 KMN         0.0307
     27 C16        92.1760   98.5070  -45.3870 C.3       1 KMN        -0.0255
     28 C17        88.8610   92.0370  -51.8470 C.ar      1 KMN        -0.0729
     29 C18        90.1190   92.4610  -51.4160 C.ar      1 KMN        -0.0706
     30 C19        90.8110   91.7270  -50.4460 C.ar      1 KMN        -0.0331
     31 C20        91.9660   93.9530  -42.0280 C.1       1 KMN        -0.0776
     32 H1         92.4660   93.7350  -39.8383 H         1 KMN         0.1188
     33 H2         90.8376   97.8800  -43.9846 H         1 KMN         0.2046
     34 H3         91.2568   96.1187  -42.0751 H         1 KMN         0.2477
     35 H4         92.1778   92.1242  -43.9788 H         1 KMN         0.0561
     36 H5         89.1849   96.8731  -45.6296 H         1 KMN         0.0955
     37 H6         90.5740   96.9945  -46.7619 H         1 KMN         0.0955
     38 H7         92.4514  102.7602  -44.9833 H         1 KMN         0.2036
     39 H8         88.8182   98.9100  -44.6569 H         1 KMN         0.0816
     40 H9         89.6491   99.5049  -46.1342 H         1 KMN         0.0816
     41 H10        90.7349   94.6548  -47.1394 H         1 KMN         0.0545
     42 H11        92.6968   90.6187  -49.1655 H         1 KMN         0.0747
     43 H12        92.5225   89.4055  -47.8523 H         1 KMN         0.0747
     44 H13        88.5395   89.2535  -49.9312 H         1 KMN         0.0542
     45 H14        90.3696  100.2012  -43.2399 H         1 KMN         0.0372
     46 H15        89.5587  101.2805  -44.4249 H         1 KMN         0.0372
     47 H16        87.3139   90.5555  -51.6493 H         1 KMN         0.0589
     48 H17        91.5285  101.0678  -45.9228 H         1 KMN         0.0855
     49 H18        91.3540  103.5557  -42.7036 H         1 KMN         0.0812
     50 H19        90.1790  102.3177  -43.2632 H         1 KMN         0.0812
     51 H20        89.5914  104.5659  -44.1205 H         1 KMN         0.0281
     52 H21        90.0291  103.4533  -45.4610 H         1 KMN         0.0281
     53 H22        91.2042  104.6913  -44.9014 H         1 KMN         0.0281
     54 H23        94.1836  101.7443  -43.7985 H         1 KMN         0.0812
     55 H24        93.0565  101.4058  -42.4414 H         1 KMN         0.0812
     56 H25        94.4556  103.3965  -41.9716 H         1 KMN         0.0281
     57 H26        92.7207  103.8398  -42.1132 H         1 KMN         0.0281
     58 H27        93.8478  104.1783  -43.4703 H         1 KMN         0.0281
     59 H28        92.7690   99.5372  -43.5882 H         1 KMN         0.0372
     60 H29        93.6273  100.0702  -45.0734 H         1 KMN         0.0372
     61 H30        92.1789   98.6993  -46.4700 H         1 KMN         0.0816
     62 H31        92.8603   97.6762  -45.1602 H         1 KMN         0.0816
     63 H32        88.3265   92.6068  -52.5985 H         1 KMN         0.0523
     64 H33        90.5602   93.3592  -51.8328 H         1 KMN         0.0589
     65 H34        91.7885   92.0559  -50.1124 H         1 KMN         0.0542
@<TRIPOS>BOND
     1   31    1 3  
     2   15    2 1  
     3    2   16 1  
     4    3    7 ar 
     5   11    3 ar 
     6    3   12 1  
     7    8    4 1  
     8    4   11 ar 
     9    4   17 ar 
    10    5    8 1  
    11   10    5 1  
    12    5   27 1  
    13   17    6 1  
    14   13    7 ar 
    15   21    9 1  
    16    9   22 1  
    17    9   24 1  
    18   19   10 1  
    19   12   14 3  
    20   17   13 ar 
    21   13   31 1  
    22   14   15 1  
    23   16   18 ar 
    24   16   30 ar 
    25   18   20 ar 
    26   19   21 1  
    27   20   28 ar 
    28   21   26 1  
    29   22   23 1  
    30   24   25 1  
    31   26   27 1  
    32   28   29 ar 
    33   29   30 ar 
    34    1   32 1  
    35    5   33 1  
    36    6   34 1  
    37    7   35 1  
    38    8   36 1  
    39    8   37 1  
    40    9   38 1  
    41   10   39 1  
    42   10   40 1  
    43   11   41 1  
    44   15   42 1  
    45   15   43 1  
    46   18   44 1  
    47   19   45 1  
    48   19   46 1  
    49   20   47 1  
    50   21   48 1  
    51   22   49 1  
    52   22   50 1  
    53   23   51 1  
    54   23   52 1  
    55   23   53 1  
    56   24   54 1  
    57   24   55 1  
    58   25   56 1  
    59   25   57 1  
    60   25   58 1  
    61   26   59 1  
    62   26   60 1  
    63   27   61 1  
    64   27   62 1  
    65   28   63 1  
    66   29   64 1  
    67   30   65 1  
@<TRIPOS>SUBSTRUCTURE
     1 KMN         1

