### 
### Created by X-TOOL on Mon Sep 10 21:13:29 2018
### 

@<TRIPOS>MOLECULE
5a7c_ligand
   34    33     1     0     0
SMALL
GAST_HUCK


@<TRIPOS>ATOM
      1 O1         12.1780  -36.1760   34.0430 O.2       1 5D4        -0.3974
      2 C8         12.6520  -36.4800   32.9770 C.2       1 5D4         0.1729
      3 C9         13.0480  -35.4060   32.0150 C.3       1 5D4         0.0256
      4 N1         12.8150  -37.7220   32.5550 N.am      1 5D4        -0.2872
      5 C7         12.4090  -38.9150   33.2850 C.3       1 5D4         0.0309
      6 C6         13.5500  -39.6180   34.0570 C.3       1 5D4        -0.0327
      7 C5         14.8970  -39.7570   33.3010 C.3       1 5D4        -0.0512
      8 C4         15.3340  -41.2150   33.0210 C.3       1 5D4        -0.0512
      9 C3         16.6270  -41.2970   32.1840 C.3       1 5D4        -0.0327
     10 C2         16.8640  -42.6850   31.5980 C.3       1 5D4         0.0309
     11 N          16.8890  -42.7900   30.1490 N.am      1 5D4        -0.2872
     12 C1         16.0630  -42.2280   29.2010 C.2       1 5D4         0.1729
     13 O          16.1550  -42.6150   28.0440 O.2       1 5D4        -0.3974
     14 C          14.9830  -41.1740   29.4270 C.3       1 5D4         0.0256
     15 H1         13.4583  -35.8639   31.1028 H         1 5D4         0.0467
     16 H2         13.8111  -34.7627   32.4774 H         1 5D4         0.0467
     17 H3         12.1660  -34.8014   31.7570 H         1 5D4         0.0467
     18 H4         13.2513  -37.8527   31.6647 H         1 5D4         0.1850
     19 H5         11.9901  -39.6323   32.5639 H         1 5D4         0.0520
     20 H6         11.6324  -38.6266   34.0086 H         1 5D4         0.0520
     21 H7         13.2056  -40.6291   34.3197 H         1 5D4         0.0285
     22 H8         13.7378  -39.0441   34.9765 H         1 5D4         0.0285
     23 H9         15.6800  -39.2746   33.9045 H         1 5D4         0.0266
     24 H10        14.8041  -39.2360   32.3367 H         1 5D4         0.0266
     25 H11        14.5276  -41.7255   32.4742 H         1 5D4         0.0266
     26 H12        15.5039  -41.7225   33.9820 H         1 5D4         0.0266
     27 H13        17.4799  -41.0371   32.8282 H         1 5D4         0.0285
     28 H14        16.5576  -40.5739   31.3580 H         1 5D4         0.0285
     29 H15        16.0622  -43.3424   31.9652 H         1 5D4         0.0520
     30 H16        17.8334  -43.0437   31.9741 H         1 5D4         0.0520
     31 H17        17.6229  -43.3613   29.7816 H         1 5D4         0.1850
     32 H18        14.4996  -40.9330   28.4687 H         1 5D4         0.0467
     33 H19        15.4395  -40.2652   29.8461 H         1 5D4         0.0467
     34 H20        14.2312  -41.5639   30.1290 H         1 5D4         0.0467
@<TRIPOS>BOND
     1    1    2 2  
     2    2    3 1  
     3    2    4 am 
     4    4    5 1  
     5    5    6 1  
     6    6    7 1  
     7    7    8 1  
     8    8    9 1  
     9    9   10 1  
    10   10   11 1  
    11   11   12 am 
    12   12   13 2  
    13   12   14 1  
    14    3   15 1  
    15    3   16 1  
    16    3   17 1  
    17    4   18 1  
    18    5   19 1  
    19    5   20 1  
    20    6   21 1  
    21    6   22 1  
    22    7   23 1  
    23    7   24 1  
    24    8   25 1  
    25    8   26 1  
    26    9   27 1  
    27    9   28 1  
    28   10   29 1  
    29   10   30 1  
    30   11   31 1  
    31   14   32 1  
    32   14   33 1  
    33   14   34 1  
@<TRIPOS>SUBSTRUCTURE
     1 5D4         1

