### 
### Created by X-TOOL on Mon Sep 10 21:13:30 2018
### 

@<TRIPOS>MOLECULE
5a7y_ligand
   46    48     1     0     0
SMALL
GAST_HUCK


@<TRIPOS>ATOM
      1 N          46.4430   11.3920   36.8500 N.4       1 SAH         0.2327
      2 CA         45.8320   11.6030   38.1440 C.3       1 SAH         0.0291
      3 CB         44.5770   12.4640   38.0020 C.3       1 SAH         0.0114
      4 CG         44.3540   13.3590   39.2180 C.3       1 SAH         0.0005
      5 SD         44.7930   15.0380   38.9700 S.3       1 SAH        -0.1578
      6 C          45.5490   10.2120   38.5710 C.2       1 SAH         0.0844
      7 O          45.6990    9.3470   37.6860 O.co2     1 SAH        -0.5643
      8 OXT        45.2260    9.9710   39.7500 O.co2     1 SAH        -0.5643
      9 C5'        43.3150   15.7560   38.3740 C.3       1 SAH         0.0226
     10 C4'        43.3380   15.9460   36.8730 C.3       1 SAH         0.0995
     11 O4'        44.0700   17.1090   36.5760 O.3       1 SAH        -0.3383
     12 C3'        44.0190   14.8390   36.1420 C.3       1 SAH         0.1132
     13 O3'        43.1870   13.7350   35.8380 O.3       1 SAH        -0.3864
     14 C2'        44.5060   15.5590   34.9310 C.3       1 SAH         0.1385
     15 O2'        43.4360   15.7260   34.0510 O.3       1 SAH        -0.3836
     16 C1'        44.7850   16.9520   35.3700 C.3       1 SAH         0.2009
     17 N9         46.2330   17.1680   35.6140 N.pl3     1 SAH        -0.1919
     18 C8         46.7400   17.4380   36.8070 C.2       1 SAH         0.1123
     19 N7         48.0530   17.6170   36.7670 N.2       1 SAH        -0.2958
     20 C5         48.4410   17.4670   35.5250 C.ar      1 SAH         0.1045
     21 C6         49.7260   17.5220   34.8180 C.ar      1 SAH         0.1298
     22 N6         50.8650   17.7920   35.4500 N.pl3     1 SAH        -0.3152
     23 N1         49.7190   17.3140   33.5080 N.ar      1 SAH        -0.2698
     24 C2         48.5900   17.0560   32.8550 C.ar      1 SAH         0.0533
     25 N3         47.4010   16.9840   33.4400 N.ar      1 SAH        -0.2714
     26 C4         47.2440   17.1780   34.7530 C.ar      1 SAH         0.1613
     27 H1         46.6876   12.2820   36.4448 H         1 SAH         0.2010
     28 H2         45.7929   10.9148   36.2452 H         1 SAH         0.2010
     29 H3         47.2743   10.8323   36.9582 H         1 SAH         0.2010
     30 H4         46.5270   12.0919   38.8425 H         1 SAH         0.1024
     31 H5         43.7054   11.8036   37.8831 H         1 SAH         0.0347
     32 H6         44.6811   13.0981   37.1093 H         1 SAH         0.0347
     33 H7         44.9558   12.9652   40.0503 H         1 SAH         0.0379
     34 H8         43.2877   13.3178   39.4849 H         1 SAH         0.0379
     35 H9         43.1789   16.7367   38.8533 H         1 SAH         0.0402
     36 H10        42.4717   15.0999   38.6353 H         1 SAH         0.0402
     37 H11        42.3036   16.0410   36.5110 H         1 SAH         0.0632
     38 H12        44.8688   14.4644   36.7316 H         1 SAH         0.0647
     39 H13        42.4659   14.0244   35.2914 H         1 SAH         0.2100
     40 H14        45.3708   15.0615   34.4676 H         1 SAH         0.0676
     41 H15        43.7347   16.1844   33.2743 H         1 SAH         0.2101
     42 H16        44.4317   17.6681   34.6134 H         1 SAH         0.0996
     43 H17        46.1461   17.5054   37.7173 H         1 SAH         0.1349
     44 H18        51.7505   17.8232   34.9248 H         1 SAH         0.1820
     45 H19        50.8614   17.9698   36.4645 H         1 SAH         0.1820
     46 H20        48.6437   16.8954   31.7843 H         1 SAH         0.0996
@<TRIPOS>BOND
     1    1    2 1  
     2    2    3 1  
     3    2    6 1  
     4    3    4 1  
     5    4    5 1  
     6    5    9 1  
     7    6    7 ar 
     8    6    8 ar 
     9    9   10 1  
    10   10   11 1  
    11   10   12 1  
    12   11   16 1  
    13   12   13 1  
    14   12   14 1  
    15   14   15 1  
    16   14   16 1  
    17   16   17 1  
    18   17   18 1  
    19   17   26 1  
    20   18   19 2  
    21   19   20 1  
    22   20   21 ar 
    23   20   26 ar 
    24   21   22 1  
    25   21   23 ar 
    26   23   24 ar 
    27   24   25 ar 
    28   25   26 ar 
    29    1   27 1  
    30    1   28 1  
    31    1   29 1  
    32    2   30 1  
    33    3   31 1  
    34    3   32 1  
    35    4   33 1  
    36    4   34 1  
    37    9   35 1  
    38    9   36 1  
    39   10   37 1  
    40   12   38 1  
    41   13   39 1  
    42   14   40 1  
    43   15   41 1  
    44   16   42 1  
    45   18   43 1  
    46   22   44 1  
    47   22   45 1  
    48   24   46 1  
@<TRIPOS>SUBSTRUCTURE
     1 SAH         1

