### 
### Created by X-TOOL on Mon Sep 10 21:13:24 2018
### 

@<TRIPOS>MOLECULE
5a81_ligand
   58    61     1     0     0
SMALL
GAST_HUCK


@<TRIPOS>ATOM
      1 C01       -23.6050   44.8200    9.9600 C.3       1 78J        -0.0223
      2 C05       -24.9320   44.8210   10.6730 C.2       1 78J         0.0315
      3 C06       -25.8350   45.7580   10.3440 C.2       1 78J        -0.0442
      4 C08       -27.1100   45.7880   11.0090 C.ar      1 78J         0.0047
      5 C09       -28.1080   46.7260   10.7420 C.ar      1 78J        -0.0575
      6 C11       -29.2890   46.6400   11.4480 C.ar      1 78J        -0.0239
      7 N13       -29.5420   45.7100   12.3860 N.ar      1 78J        -0.3045
      8 C14       -28.6130   44.7760   12.6820 C.ar      1 78J         0.1389
      9 N15       -28.9240   43.8750   13.6390 N.pl3     1 78J        -0.3060
     10 C17       -30.2590   43.5430   14.1140 C.3       1 78J         0.0721
     11 C19       -30.2040   43.0400   15.5540 C.3       1 78J         0.0125
     12 C22       -31.5890   42.6520   16.0260 C.3       1 78J        -0.0314
     13 N25       -32.1350   41.5970   15.1670 N.4       1 78J         0.2289
     14 C27       -32.2750   42.0770   13.7930 C.3       1 78J        -0.0046
     15 C30       -30.9250   42.4970   13.2320 C.3       1 78J         0.1205
     16 O32       -31.1050   43.0550   11.9270 O.3       1 78J        -0.3687
     17 C33       -31.2000   42.1040   10.8630 C.3       1 78J         0.0512
     18 C36       -31.2180   42.8150    9.5330 C.3       1 78J        -0.0175
     19 C38       -29.8960   43.5310    9.2870 C.3       1 78J        -0.0481
     20 C41       -29.8420   44.2050    7.9200 C.3       1 78J        -0.0527
     21 C44       -30.1030   43.2090    6.8080 C.3       1 78J        -0.0530
     22 C47       -31.4190   42.4830    7.0250 C.3       1 78J        -0.0527
     23 C50       -31.4650   41.8240    8.4020 C.3       1 78J        -0.0481
     24 C53       -27.3740   44.8200   11.9850 C.ar      1 78J         0.1300
     25 N54       -26.4000   43.8800   12.2760 N.am      1 78J        -0.2261
     26 C56       -25.1820   43.8100   11.6910 C.2       1 78J         0.2212
     27 O57       -24.3860   42.9320   12.0200 O.2       1 78J        -0.3971
     28 H1        -23.5809   45.6416    9.2290 H         1 78J         0.0404
     29 H2        -23.4698   43.8611    9.4383 H         1 78J         0.0404
     30 H3        -22.7953   44.9566   10.6920 H         1 78J         0.0404
     31 H4        -25.6028   46.4937    9.5754 H         1 78J         0.0568
     32 H5        -27.9587   47.5015    9.9994 H         1 78J         0.0537
     33 H6        -30.0628   47.3682   11.2335 H         1 78J         0.0635
     34 H7        -28.1381   43.3729   14.0761 H         1 78J         0.1776
     35 H8        -30.8696   44.4576   14.0862 H         1 78J         0.0580
     36 H9        -29.8092   43.8363   16.2021 H         1 78J         0.0340
     37 H10       -29.5430   42.1624   15.6073 H         1 78J         0.0340
     38 H11       -32.2476   43.5321   15.9850 H         1 78J         0.0814
     39 H12       -31.5314   42.2851   17.0614 H         1 78J         0.0814
     40 H13       -33.0395   41.3203   15.5155 H         1 78J         0.2014
     41 H14       -31.5130   40.8039   15.1795 H         1 78J         0.2014
     42 H15       -32.9564   42.9404   13.7794 H         1 78J         0.0840
     43 H16       -32.6908   41.2718   13.1695 H         1 78J         0.0840
     44 H17       -30.2743   41.6125   13.1673 H         1 78J         0.0673
     45 H18       -32.1263   41.5218   10.9769 H         1 78J         0.0563
     46 H19       -30.3341   41.4267   10.9018 H         1 78J         0.0563
     47 H20       -32.0297   43.5573    9.5418 H         1 78J         0.0323
     48 H21       -29.0798   42.7963    9.3504 H         1 78J         0.0269
     49 H22       -29.7603   44.2978   10.0639 H         1 78J         0.0269
     50 H23       -28.8456   44.6488    7.7777 H         1 78J         0.0265
     51 H24       -30.6051   44.9962    7.8795 H         1 78J         0.0265
     52 H25       -29.2858   42.4730    6.7852 H         1 78J         0.0265
     53 H26       -30.1416   43.7440    5.8477 H         1 78J         0.0265
     54 H27       -31.5332   41.7084    6.2524 H         1 78J         0.0265
     55 H28       -32.2448   43.2052    6.9450 H         1 78J         0.0265
     56 H29       -32.4567   41.3691    8.5421 H         1 78J         0.0269
     57 H30       -30.6932   41.0413    8.4442 H         1 78J         0.0269
     58 H31       -26.6140   43.1977   12.9750 H         1 78J         0.2357
@<TRIPOS>BOND
     1    1    2 1  
     2    2    3 2  
     3    2   26 1  
     4    3    4 1  
     5    4    5 ar 
     6    4   24 ar 
     7    5    6 ar 
     8    6    7 ar 
     9    7    8 ar 
    10    8    9 1  
    11    8   24 ar 
    12    9   10 1  
    13   10   11 1  
    14   10   15 1  
    15   11   12 1  
    16   12   13 1  
    17   13   14 1  
    18   14   15 1  
    19   15   16 1  
    20   16   17 1  
    21   17   18 1  
    22   18   19 1  
    23   18   23 1  
    24   19   20 1  
    25   20   21 1  
    26   21   22 1  
    27   22   23 1  
    28   24   25 1  
    29   25   26 am 
    30   26   27 2  
    31    1   28 1  
    32    1   29 1  
    33    1   30 1  
    34    3   31 1  
    35    5   32 1  
    36    6   33 1  
    37    9   34 1  
    38   10   35 1  
    39   11   36 1  
    40   11   37 1  
    41   12   38 1  
    42   12   39 1  
    43   13   40 1  
    44   13   41 1  
    45   14   42 1  
    46   14   43 1  
    47   15   44 1  
    48   17   45 1  
    49   17   46 1  
    50   18   47 1  
    51   19   48 1  
    52   19   49 1  
    53   20   50 1  
    54   20   51 1  
    55   21   52 1  
    56   21   53 1  
    57   22   54 1  
    58   22   55 1  
    59   23   56 1  
    60   23   57 1  
    61   25   58 1  
@<TRIPOS>SUBSTRUCTURE
     1 78J         1

