### 
### Created by X-TOOL on Mon Sep 10 21:13:23 2018
### 

@<TRIPOS>MOLECULE
5a82_ligand
   58    61     1     0     0
SMALL
GAST_HUCK


@<TRIPOS>ATOM
      1 O3        -24.3110   42.6350   12.1170 O.2       1 YEJ        -0.3971
      2 C19       -25.1030   43.4970   11.7470 C.2       1 YEJ         0.2212
      3 C1        -24.8340   44.4940   10.7330 C.2       1 YEJ         0.0315
      4 C         -23.4900   44.5010   10.0570 C.3       1 YEJ        -0.0223
      5 N3        -26.3430   43.5730   12.2770 N.am      1 YEJ        -0.2261
      6 C18       -27.3270   44.4870   11.9440 C.ar      1 YEJ         0.1300
      7 C3        -27.0180   45.4480   10.9700 C.ar      1 YEJ         0.0047
      8 C2        -25.7210   45.4340   10.3440 C.2       1 YEJ        -0.0442
      9 C6        -28.5960   44.3970   12.5570 C.ar      1 YEJ         0.1389
     10 N         -29.5290   45.3130   12.2190 N.ar      1 YEJ        -0.3045
     11 C5        -29.2410   46.2530   11.3020 C.ar      1 YEJ        -0.0239
     12 C4        -28.0270   46.3630   10.6490 C.ar      1 YEJ        -0.0575
     13 N1        -28.9570   43.4300   13.4180 N.pl3     1 YEJ        -0.3060
     14 C7        -30.2540   43.2440   14.0330 C.3       1 YEJ         0.0721
     15 C11       -30.9430   42.1840   13.1870 C.3       1 YEJ         0.1205
     16 C10       -32.3260   41.8310   13.8040 C.3       1 YEJ        -0.0046
     17 N2        -32.2040   41.3500   15.1780 N.4       1 YEJ         0.2289
     18 C9        -31.4130   42.2230   16.0560 C.3       1 YEJ        -0.0314
     19 C8        -30.1230   42.7590   15.4730 C.3       1 YEJ         0.0125
     20 O         -31.1380   42.7320   11.8770 O.3       1 YEJ        -0.3687
     21 C12       -31.3210   41.7600   10.8430 C.3       1 YEJ         0.0513
     22 C13       -31.2230   42.5050    9.5350 C.3       1 YEJ        -0.0146
     23 C17       -31.5550   41.5690    8.3790 C.3       1 YEJ        -0.0286
     24 C16       -31.5400   42.2780    7.0220 C.3       1 YEJ         0.0661
     25 S         -29.9100   42.8510    6.6670 S.o2      1 YEJ        -0.0310
     26 O1        -29.9390   43.6640    5.4820 O.2       1 YEJ        -0.1744
     27 O2        -28.9990   41.7390    6.7080 O.2       1 YEJ        -0.1744
     28 C15       -29.6280   43.8820    8.0710 C.3       1 YEJ         0.0661
     29 C14       -29.8230   43.0700    9.3330 C.3       1 YEJ        -0.0286
     30 H1        -23.4547   45.3165    9.3197 H         1 YEJ         0.0404
     31 H2        -23.3307   43.5391    9.5477 H         1 YEJ         0.0404
     32 H3        -22.7019   44.6526   10.8093 H         1 YEJ         0.0404
     33 H4        -26.5731   42.9010   12.9809 H         1 YEJ         0.2357
     34 H5        -25.4628   46.1627    9.5770 H         1 YEJ         0.0568
     35 H6        -30.0130   46.9738   11.0579 H         1 YEJ         0.0635
     36 H7        -27.8614   47.1371    9.9085 H         1 YEJ         0.0537
     37 H8        -28.2296   42.7450   13.6680 H         1 YEJ         0.1776
     38 H9        -30.8240   44.1846   14.0156 H         1 YEJ         0.0580
     39 H10       -30.3185   41.2802   13.1319 H         1 YEJ         0.0673
     40 H11       -32.7978   41.0469   13.1936 H         1 YEJ         0.0840
     41 H12       -32.9583   42.7311   13.7974 H         1 YEJ         0.0840
     42 H13       -31.7657   40.4426   15.1571 H         1 YEJ         0.2014
     43 H14       -33.1302   41.2669   15.5669 H         1 YEJ         0.2014
     44 H15       -31.1608   41.6506   16.9608 H         1 YEJ         0.0814
     45 H16       -32.0414   43.0833   16.3296 H         1 YEJ         0.0814
     46 H17       -29.7857   43.6021   16.0938 H         1 YEJ         0.0340
     47 H18       -29.3699   41.9578   15.5021 H         1 YEJ         0.0340
     48 H19       -32.3090   41.2857   10.9374 H         1 YEJ         0.0563
     49 H20       -30.5375   40.9901   10.9017 H         1 YEJ         0.0563
     50 H21       -31.9446   43.3352    9.5456 H         1 YEJ         0.0324
     51 H22       -32.5572   41.1470    8.5445 H         1 YEJ         0.0284
     52 H23       -30.8136   40.7566    8.3598 H         1 YEJ         0.0284
     53 H24       -32.2303   43.1340    7.0492 H         1 YEJ         0.0500
     54 H25       -31.8587   41.5746    6.2386 H         1 YEJ         0.0500
     55 H26       -30.3393   44.7210    8.0600 H         1 YEJ         0.0500
     56 H27       -28.6001   44.2723    8.0401 H         1 YEJ         0.0500
     57 H28       -29.1170   42.2269    9.3068 H         1 YEJ         0.0284
     58 H29       -29.5904   43.7165   10.1921 H         1 YEJ         0.0284
@<TRIPOS>BOND
     1    1    2 2  
     2    2    3 1  
     3    2    5 am 
     4    3    4 1  
     5    3    8 2  
     6    5    6 1  
     7    6    7 ar 
     8    6    9 ar 
     9    7    8 1  
    10    7   12 ar 
    11    9   10 ar 
    12    9   13 1  
    13   10   11 ar 
    14   11   12 ar 
    15   13   14 1  
    16   14   15 1  
    17   14   19 1  
    18   15   16 1  
    19   15   20 1  
    20   16   17 1  
    21   17   18 1  
    22   18   19 1  
    23   20   21 1  
    24   21   22 1  
    25   22   23 1  
    26   22   29 1  
    27   23   24 1  
    28   24   25 1  
    29   25   26 2  
    30   25   27 2  
    31   25   28 1  
    32   28   29 1  
    33    4   30 1  
    34    4   31 1  
    35    4   32 1  
    36    5   33 1  
    37    8   34 1  
    38   11   35 1  
    39   12   36 1  
    40   13   37 1  
    41   14   38 1  
    42   15   39 1  
    43   16   40 1  
    44   16   41 1  
    45   17   42 1  
    46   17   43 1  
    47   18   44 1  
    48   18   45 1  
    49   19   46 1  
    50   19   47 1  
    51   21   48 1  
    52   21   49 1  
    53   22   50 1  
    54   23   51 1  
    55   23   52 1  
    56   24   53 1  
    57   24   54 1  
    58   28   55 1  
    59   28   56 1  
    60   29   57 1  
    61   29   58 1  
@<TRIPOS>SUBSTRUCTURE
     1 YEJ         1

