### 
### Created by X-TOOL on Mon Sep 10 21:13:22 2018
### 

@<TRIPOS>MOLECULE
5a83_ligand
   71    75     1     0     0
SMALL
GAST_HUCK


@<TRIPOS>ATOM
      1 O3        -24.4860   42.8230   12.0140 O.2       1 YD3        -0.4005
      2 C22       -25.2760   43.6940   11.6550 C.2       1 YD3         0.2155
      3 N3        -26.5140   43.7500   12.2000 N.am      1 YD3        -0.2325
      4 C23       -24.9790   44.7190   10.6780 C.2       1 YD3         0.0264
      5 C24       -23.6600   44.6730    9.9500 C.3       1 YD3        -0.0247
      6 C25       -25.9080   45.6850   10.3930 C.2       1 YD3        -0.0508
      7 C26       -27.2100   45.7330   11.0200 C.ar      1 YD3        -0.0012
      8 C6        -28.1660   46.7220   10.7590 C.ar      1 YD3        -0.0299
      9 C4        -27.8790   47.9210    9.9210 C.ar      1 YD3        -0.0100
     10 C3        -26.7880   48.7490   10.1700 C.ar      1 YD3         0.0073
     11 N         -26.4960   49.8380    9.4480 N.ar      1 YD3        -0.3070
     12 C2        -27.3080   50.1390    8.4270 C.ar      1 YD3         0.0092
     13 C5        -28.6990   48.2770    8.8540 C.ar      1 YD3        -0.0386
     14 C1        -28.4270   49.3970    8.0840 C.ar      1 YD3        -0.0214
     15 C         -29.3130   49.7950    6.9280 C.3       1 YD3        -0.0257
     16 C21       -27.4930   44.6990   11.9340 C.ar      1 YD3         0.1064
     17 C9        -28.7470   44.6190   12.5630 C.ar      1 YD3         0.0700
     18 C8        -29.6910   45.6010   12.2510 C.ar      1 YD3        -0.0522
     19 C7        -29.4110   46.6310   11.3730 C.ar      1 YD3        -0.0769
     20 N1        -29.0120   43.5820   13.4550 N.pl3     1 YD3        -0.3194
     21 C10       -30.3010   43.2530   14.0490 C.3       1 YD3         0.0697
     22 C14       -31.0080   42.1750   13.2370 C.3       1 YD3         0.1202
     23 C13       -32.3510   41.8050   13.8690 C.3       1 YD3        -0.0046
     24 N2        -32.1720   41.4120   15.2640 N.4       1 YD3         0.2289
     25 C12       -31.4480   42.3730   16.1040 C.3       1 YD3        -0.0314
     26 C11       -30.1250   42.7800   15.4910 C.3       1 YD3         0.0122
     27 O         -31.2460   42.7290   11.9360 O.3       1 YD3        -0.3688
     28 C15       -31.4490   41.7650   10.8980 C.3       1 YD3         0.0513
     29 C16       -31.3450   42.5060    9.5880 C.3       1 YD3        -0.0146
     30 C20       -31.7130   41.5810    8.4310 C.3       1 YD3        -0.0286
     31 C19       -31.6970   42.2960    7.0770 C.3       1 YD3         0.0661
     32 S         -30.0690   42.8660    6.7000 S.o2      1 YD3        -0.0310
     33 O1        -30.1180   43.7020    5.5330 O.2       1 YD3        -0.1744
     34 O2        -29.1700   41.7430    6.6940 O.2       1 YD3        -0.1744
     35 C18       -29.7350   43.8670    8.1140 C.3       1 YD3         0.0661
     36 C17       -29.9340   43.0400    9.3720 C.3       1 YD3        -0.0286
     37 H1        -26.7472   43.0364   12.8606 H         1 YD3         0.2331
     38 H2        -23.5980   45.5190    9.2497 H         1 YD3         0.0394
     39 H3        -23.5821   43.7285    9.3917 H         1 YD3         0.0394
     40 H4        -22.8373   44.7380   10.6773 H         1 YD3         0.0394
     41 H5        -25.6544   46.4509    9.6615 H         1 YD3         0.0558
     42 H6        -26.1357   48.4969   10.9982 H         1 YD3         0.0751
     43 H7        -27.0763   51.0157    7.8330 H         1 YD3         0.0739
     44 H8        -29.5650   47.6680    8.6213 H         1 YD3         0.0652
     45 H9        -28.9158   50.7071    6.4587 H         1 YD3         0.0404
     46 H10       -30.3320   49.9858    7.2957 H         1 YD3         0.0404
     47 H11       -29.3367   48.9821    6.1873 H         1 YD3         0.0404
     48 H12       -30.6714   45.5535   12.7110 H         1 YD3         0.0473
     49 H13       -30.1695   47.3758   11.1606 H         1 YD3         0.0495
     50 H14       -28.2148   42.9869   13.7219 H         1 YD3         0.1738
     51 H15       -30.9253   44.1587   14.0498 H         1 YD3         0.0575
     52 H16       -30.3736   41.2793   13.1647 H         1 YD3         0.0672
     53 H17       -32.7942   40.9668   13.3114 H         1 YD3         0.0840
     54 H18       -33.0243   42.6736   13.8218 H         1 YD3         0.0840
     55 H19       -31.6631   40.5420   15.2786 H         1 YD3         0.2014
     56 H20       -33.0854   41.2738   15.6672 H         1 YD3         0.2014
     57 H21       -31.2581   41.9140   17.0854 H         1 YD3         0.0814
     58 H22       -32.0703   43.2708   16.2333 H         1 YD3         0.0814
     59 H23       -29.6916   43.5977   16.0856 H         1 YD3         0.0340
     60 H24       -29.4439   41.9164   15.5038 H         1 YD3         0.0340
     61 H25       -32.4443   41.3071   10.9959 H         1 YD3         0.0563
     62 H26       -30.6782   40.9821   10.9523 H         1 YD3         0.0563
     63 H27       -32.0463   43.3532    9.6066 H         1 YD3         0.0324
     64 H28       -32.7229   41.1819    8.6066 H         1 YD3         0.0284
     65 H29       -30.9912   40.7516    8.3998 H         1 YD3         0.0284
     66 H30       -32.3825   43.1556    7.1131 H         1 YD3         0.0500
     67 H31       -32.0264   41.5969    6.2942 H         1 YD3         0.0500
     68 H32       -30.4217   44.7262    8.1266 H         1 YD3         0.0500
     69 H33       -28.6968   44.2279    8.0719 H         1 YD3         0.0500
     70 H34       -29.2495   42.1802    9.3244 H         1 YD3         0.0284
     71 H35       -29.6734   43.6689   10.2360 H         1 YD3         0.0284
@<TRIPOS>BOND
     1    1    2 2  
     2    2    3 am 
     3    2    4 1  
     4    3   16 1  
     5    4    5 1  
     6    4    6 2  
     7    6    7 1  
     8    7    8 ar 
     9    7   16 ar 
    10    8    9 1  
    11    8   19 ar 
    12    9   10 ar 
    13    9   13 ar 
    14   10   11 ar 
    15   11   12 ar 
    16   12   14 ar 
    17   13   14 ar 
    18   14   15 1  
    19   16   17 ar 
    20   17   18 ar 
    21   17   20 1  
    22   18   19 ar 
    23   20   21 1  
    24   21   22 1  
    25   21   26 1  
    26   22   23 1  
    27   22   27 1  
    28   23   24 1  
    29   24   25 1  
    30   25   26 1  
    31   27   28 1  
    32   28   29 1  
    33   29   30 1  
    34   29   36 1  
    35   30   31 1  
    36   31   32 1  
    37   32   33 2  
    38   32   34 2  
    39   32   35 1  
    40   35   36 1  
    41    3   37 1  
    42    5   38 1  
    43    5   39 1  
    44    5   40 1  
    45    6   41 1  
    46   10   42 1  
    47   12   43 1  
    48   13   44 1  
    49   15   45 1  
    50   15   46 1  
    51   15   47 1  
    52   18   48 1  
    53   19   49 1  
    54   20   50 1  
    55   21   51 1  
    56   22   52 1  
    57   23   53 1  
    58   23   54 1  
    59   24   55 1  
    60   24   56 1  
    61   25   57 1  
    62   25   58 1  
    63   26   59 1  
    64   26   60 1  
    65   28   61 1  
    66   28   62 1  
    67   29   63 1  
    68   30   64 1  
    69   30   65 1  
    70   31   66 1  
    71   31   67 1  
    72   35   68 1  
    73   35   69 1  
    74   36   70 1  
    75   36   71 1  
@<TRIPOS>SUBSTRUCTURE
     1 YD3         1

