### 
### Created by X-TOOL on Mon Sep 10 21:13:23 2018
### 

@<TRIPOS>MOLECULE
5a85_ligand
   58    61     1     0     0
SMALL
GAST_HUCK


@<TRIPOS>ATOM
      1 C01        10.8890    5.3610   12.6890 C.3       1 78J        -0.0223
      2 C05        11.8790    5.3740   11.5510 C.2       1 78J         0.0315
      3 C06        12.6850    4.3130   11.3850 C.2       1 78J        -0.0442
      4 C08        13.6390    4.3060   10.3070 C.ar      1 78J         0.0047
      5 C09        14.5180    3.2570   10.0510 C.ar      1 78J        -0.0575
      6 C11        15.3860    3.3780    8.9880 C.ar      1 78J        -0.0239
      7 N13        15.4360    4.4440    8.1710 N.ar      1 78J        -0.3045
      8 C14        14.5990    5.4850    8.3660 C.ar      1 78J         0.1389
      9 N15        14.7050    6.5310    7.5180 N.pl3     1 78J        -0.3060
     10 C17        15.2290    6.4770    6.1590 C.3       1 78J         0.0721
     11 C19        15.5010    7.8850    5.6280 C.3       1 78J         0.0125
     12 C22        16.0750    7.7900    4.2330 C.3       1 78J        -0.0314
     13 N25        15.1040    7.1520    3.3400 N.4       1 78J         0.2289
     14 C27        14.7820    5.7920    3.7760 C.3       1 78J        -0.0046
     15 C30        14.2960    5.7110    5.2190 C.3       1 78J         0.1205
     16 O32        14.2180    4.3550    5.6920 O.3       1 78J        -0.3687
     17 C33        13.6740    3.3760    4.8010 C.3       1 78J         0.0512
     18 C36        12.5900    2.5710    5.4730 C.3       1 78J        -0.0175
     19 C38        13.1350    1.7740    6.6500 C.3       1 78J        -0.0481
     20 C41        12.0810    0.8780    7.2900 C.3       1 78J        -0.0527
     21 C44        11.4670   -0.0610    6.2710 C.3       1 78J        -0.0530
     22 C47        10.8950    0.7160    5.1030 C.3       1 78J        -0.0527
     23 C50        11.9480    1.6180    4.4710 C.3       1 78J        -0.0481
     24 C53        13.6930    5.4170    9.4570 C.ar      1 78J         0.1300
     25 N54        12.8390    6.4790    9.6810 N.am      1 78J        -0.2261
     26 C56        11.9270    6.5390   10.6770 C.2       1 78J         0.2212
     27 O57        11.2070    7.5280   10.7890 O.2       1 78J        -0.3971
     28 H1         10.9829    4.4170   13.2458 H         1 78J         0.0404
     29 H2          9.8685    5.4504   12.2883 H         1 78J         0.0404
     30 H3         11.0937    6.2060   13.3628 H         1 78J         0.0404
     31 H4         12.6174    3.4627   12.0620 H         1 78J         0.0568
     32 H5         14.5193    2.3684   10.6718 H         1 78J         0.0537
     33 H6         16.0727    2.5610    8.7984 H         1 78J         0.0635
     34 H7         14.3873    7.4483    7.8623 H         1 78J         0.1776
     35 H8         16.1869    5.9372    6.1912 H         1 78J         0.0580
     36 H9         16.2196    8.3940    6.2872 H         1 78J         0.0340
     37 H10        14.5609    8.4554    5.6005 H         1 78J         0.0340
     38 H11        16.9973    7.1911    4.2574 H         1 78J         0.0814
     39 H12        16.3034    8.8002    3.8623 H         1 78J         0.0814
     40 H13        15.4907    7.1142    2.4099 H         1 78J         0.2014
     41 H14        14.2587    7.7010    3.3304 H         1 78J         0.2014
     42 H15        15.6858    5.1727    3.6785 H         1 78J         0.0840
     43 H16        13.9928    5.3947    3.1208 H         1 78J         0.0840
     44 H17        13.2930    6.1601    5.2667 H         1 78J         0.0673
     45 H18        14.4777    2.6975    4.4791 H         1 78J         0.0563
     46 H19        13.2506    3.8856    3.9229 H         1 78J         0.0563
     47 H20        11.8221    3.2649    5.8456 H         1 78J         0.0323
     48 H21        13.5075    2.4773    7.4093 H         1 78J         0.0269
     49 H22        13.9642    1.1443    6.2952 H         1 78J         0.0269
     50 H23        11.2885    1.5076    7.7207 H         1 78J         0.0265
     51 H24        12.5514    0.2840    8.0874 H         1 78J         0.0265
     52 H25        10.6619   -0.6373    6.7502 H         1 78J         0.0265
     53 H26        12.2413   -0.7496    5.9019 H         1 78J         0.0265
     54 H27        10.0592    1.3359    5.4596 H         1 78J         0.0265
     55 H28        10.5288    0.0072    4.3457 H         1 78J         0.0265
     56 H29        12.7349    0.9860    4.0335 H         1 78J         0.0269
     57 H30        11.4711    2.2119    3.6774 H         1 78J         0.0269
     58 H31        12.8998    7.2611    9.0608 H         1 78J         0.2357
@<TRIPOS>BOND
     1    1    2 1  
     2    2    3 2  
     3    2   26 1  
     4    3    4 1  
     5    4    5 ar 
     6    4   24 ar 
     7    5    6 ar 
     8    6    7 ar 
     9    7    8 ar 
    10    8    9 1  
    11    8   24 ar 
    12    9   10 1  
    13   10   11 1  
    14   10   15 1  
    15   11   12 1  
    16   12   13 1  
    17   13   14 1  
    18   14   15 1  
    19   15   16 1  
    20   16   17 1  
    21   17   18 1  
    22   18   19 1  
    23   18   23 1  
    24   19   20 1  
    25   20   21 1  
    26   21   22 1  
    27   22   23 1  
    28   24   25 1  
    29   25   26 am 
    30   26   27 2  
    31    1   28 1  
    32    1   29 1  
    33    1   30 1  
    34    3   31 1  
    35    5   32 1  
    36    6   33 1  
    37    9   34 1  
    38   10   35 1  
    39   11   36 1  
    40   11   37 1  
    41   12   38 1  
    42   12   39 1  
    43   13   40 1  
    44   13   41 1  
    45   14   42 1  
    46   14   43 1  
    47   15   44 1  
    48   17   45 1  
    49   17   46 1  
    50   18   47 1  
    51   19   48 1  
    52   19   49 1  
    53   20   50 1  
    54   20   51 1  
    55   21   52 1  
    56   21   53 1  
    57   22   54 1  
    58   22   55 1  
    59   23   56 1  
    60   23   57 1  
    61   25   58 1  
@<TRIPOS>SUBSTRUCTURE
     1 78J         1

