### 
### Created by X-TOOL on Mon Sep 10 21:13:27 2018
### 

@<TRIPOS>MOLECULE
5a8x_ligand
   52    55     1     0     0
SMALL
GAST_HUCK


@<TRIPOS>ATOM
      1 C1         27.7150  -21.6670    4.4360 C.2       1 IUY         0.0817
      2 C2         28.6740  -22.4690    5.2890 C.3       1 IUY         0.1270
      3 C3         27.4010  -22.0160    3.1510 C.2       1 IUY         0.0857
      4 N4         27.9170  -23.1500    2.5470 N.pl3     1 IUY        -0.1626
      5 C5         26.4270  -21.1760    2.3450 C.3       1 IUY         0.0005
      6 C6         27.9460  -23.2930    6.3450 C.ar      1 IUY         0.0017
      7 C7         28.1440  -23.0720    7.7130 C.ar      1 IUY        -0.0454
      8 C8         27.4710  -23.8400    8.6640 C.ar      1 IUY        -0.0337
      9 C9         26.5950  -24.8680    8.2380 C.ar      1 IUY         0.0878
     10 C10        26.4160  -25.1010    6.8750 C.ar      1 IUY        -0.0337
     11 C11        27.0900  -24.3280    5.9340 C.ar      1 IUY        -0.0454
     12 C12        27.1640  -20.5120    5.0630 C.2       1 IUY         0.2238
     13 O13        26.3630  -19.7680    4.4990 O.2       1 IUY        -0.3897
     14 O14        27.5160  -20.2410    6.3470 O.3       1 IUY        -0.2874
     15 C15        26.7090  -19.2790    7.0500 C.3       1 IUY         0.0713
     16 C16        27.0330  -19.2880    8.5590 C.3       1 IUY        -0.0374
     17 C17        25.9150  -25.6920    9.1840 C.1       1 IUY         0.0927
     18 N18        25.3880  -26.3640    9.9330 N.1       1 IUY        -0.3344
     19 N19        29.3540  -23.4700    4.4550 N.pl3     1 IUY        -0.2093
     20 C20        28.9650  -23.7930    3.1800 C.2       1 IUY         0.2572
     21 N21        29.7220  -24.7430    2.7240 N.2       1 IUY        -0.3197
     22 C22        30.6180  -25.0880    3.6740 C.2       1 IUY        -0.0402
     23 C23        30.3940  -24.3120    4.7660 C.2       1 IUY         0.0297
     24 C24        27.4590  -23.7080    1.3350 C.ar      1 IUY         0.1194
     25 C25        28.0790  -23.3780    0.1280 C.ar      1 IUY        -0.0040
     26 C26        27.6440  -23.9140   -1.0630 C.ar      1 IUY        -0.0388
     27 C27        26.5830  -24.8080   -1.0540 C.ar      1 IUY        -0.0410
     28 C28        25.9550  -25.1710    0.1330 C.ar      1 IUY         0.0390
     29 C29        26.3950  -24.6340    1.3330 C.ar      1 IUY        -0.0041
     30 C30        24.8110  -26.1620    0.1320 C.3       1 IUY         0.3740
     31 F31        24.0530  -26.1020   -1.0200 F         1 IUY        -0.2206
     32 F32        25.3060  -27.4540    0.2410 F         1 IUY        -0.2206
     33 F33        23.9680  -25.8950    1.1850 F         1 IUY        -0.2206
     34 H1         29.3995  -21.7907    5.7618 H         1 IUY         0.0889
     35 H2         26.1017  -20.3140    2.9460 H         1 IUY         0.0453
     36 H3         25.5523  -21.7861    2.0756 H         1 IUY         0.0453
     37 H4         26.9211  -20.8190    1.4294 H         1 IUY         0.0453
     38 H5         28.8277  -22.2957    8.0372 H         1 IUY         0.0583
     39 H6         27.6177  -23.6511    9.7213 H         1 IUY         0.0700
     40 H7         25.7480  -25.8888    6.5463 H         1 IUY         0.0700
     41 H8         26.9534  -24.5260    4.8770 H         1 IUY         0.0583
     42 H9         25.6468  -19.5272    6.9080 H         1 IUY         0.0606
     43 H10        26.9086  -18.2761    6.6446 H         1 IUY         0.0606
     44 H11        26.4047  -18.5459    9.0733 H         1 IUY         0.0255
     45 H12        28.0935  -19.0367    8.7079 H         1 IUY         0.0255
     46 H13        26.8317  -20.2877    8.9713 H         1 IUY         0.0255
     47 H14        31.3859  -25.8545    3.5807 H         1 IUY         0.0397
     48 H15        30.9363  -24.3501    5.7096 H         1 IUY         0.0772
     49 H16        28.9159  -22.6890    0.1290 H         1 IUY         0.0800
     50 H17        28.1242  -23.6412   -1.9958 H         1 IUY         0.0674
     51 H18        26.2368  -25.2317   -1.9898 H         1 IUY         0.0774
     52 H19        25.9237  -24.9243    2.2650 H         1 IUY         0.0765
@<TRIPOS>BOND
     1    1    2 1  
     2    1    3 2  
     3    1   12 1  
     4    2    6 1  
     5    2   19 1  
     6    3    4 1  
     7    3    5 1  
     8    4   20 1  
     9    4   24 1  
    10    6    7 ar 
    11    6   11 ar 
    12    7    8 ar 
    13    8    9 ar 
    14    9   10 ar 
    15    9   17 1  
    16   10   11 ar 
    17   12   13 2  
    18   12   14 1  
    19   14   15 1  
    20   15   16 1  
    21   17   18 3  
    22   19   20 1  
    23   19   23 1  
    24   20   21 2  
    25   21   22 1  
    26   22   23 2  
    27   24   25 ar 
    28   24   29 ar 
    29   25   26 ar 
    30   26   27 ar 
    31   27   28 ar 
    32   28   29 ar 
    33   28   30 1  
    34   30   31 1  
    35   30   32 1  
    36   30   33 1  
    37    2   34 1  
    38    5   35 1  
    39    5   36 1  
    40    5   37 1  
    41    7   38 1  
    42    8   39 1  
    43   10   40 1  
    44   11   41 1  
    45   15   42 1  
    46   15   43 1  
    47   16   44 1  
    48   16   45 1  
    49   16   46 1  
    50   22   47 1  
    51   23   48 1  
    52   25   49 1  
    53   26   50 1  
    54   27   51 1  
    55   29   52 1  
@<TRIPOS>SUBSTRUCTURE
     1 IUY         1

