### 
### Created by X-TOOL on Mon Sep 10 21:13:26 2018
### 

@<TRIPOS>MOLECULE
5a8y_ligand
   51    54     1     0     0
SMALL
GAST_HUCK


@<TRIPOS>ATOM
      1 C15        -7.2990   35.2910   -5.7260 C.ar      1 VBM        -0.0454
      2 C12        -8.3730   35.1500   -6.6390 C.ar      1 VBM        -0.0337
      3 C13        -8.0990   35.2620   -7.9930 C.ar      1 VBM         0.0878
      4 C19        -9.1650   35.1530   -8.9370 C.1       1 VBM         0.0928
      5 N20       -10.0570   35.0600   -9.6430 N.1       1 VBM        -0.3343
      6 C14        -6.7770   35.5180   -8.4290 C.ar      1 VBM        -0.0337
      7 C18        -5.7300   35.6340   -7.5100 C.ar      1 VBM        -0.0454
      8 C11        -5.9720   35.5400   -6.1400 C.ar      1 VBM         0.0032
      9 C9         -4.7980   35.7500   -5.1400 C.3       1 VBM         0.1479
     10 C8         -4.6410   34.5320   -4.2720 C.2       1 VBM         0.1180
     11 C10        -5.1500   34.4750   -2.9790 C.2       1 VBM         0.1167
     12 C17        -4.9890   33.2090   -2.1350 C.3       1 VBM         0.0130
     13 C16        -3.9430   33.4530   -4.8890 C.1       1 VBM         0.0318
     14 N35        -3.3960   32.5590   -5.3440 N.1       1 VBM        -0.3976
     15 N3         -5.3280   36.9100   -4.3850 N.pl3     1 VBM        -0.1543
     16 N6         -5.4850   38.0940   -4.7650 N.2       1 VBM        -0.2079
     17 C5         -6.0780   38.7650   -3.7620 C.2       1 VBM         0.1646
     18 N7         -6.4430   40.0510   -3.7160 N.am      1 VBM        -0.1969
     19 C31        -6.4030   40.9160   -4.7590 C.2       1 VBM         0.3494
     20 O32        -5.9600   40.6620   -5.8910 O.2       1 VBM        -0.3676
     21 O33        -6.8370   42.1570   -4.4670 O.3       1 VBM        -0.2625
     22 C34        -7.3040   42.9500   -5.6180 C.3       1 VBM         0.0667
     23 N2         -6.3190   37.9380   -2.7350 N.2       1 VBM        -0.2550
     24 C1         -5.9220   36.7430   -3.1380 C.2       1 VBM         0.2831
     25 N4         -5.8390   35.5750   -2.4130 N.pl3     1 VBM        -0.1407
     26 C21        -6.4670   35.5420   -1.1160 C.ar      1 VBM         0.1276
     27 C26        -7.7290   34.9040   -1.1260 C.ar      1 VBM        -0.0019
     28 C22        -5.9990   36.0200    0.1000 C.ar      1 VBM        -0.0020
     29 C23        -6.7400   35.8880    1.2540 C.ar      1 VBM        -0.0379
     30 C24        -7.9960   35.2510    1.2370 C.ar      1 VBM        -0.0401
     31 C25        -8.5060   34.7940    0.0280 C.ar      1 VBM         0.0402
     32 C27        -9.8860   34.1480   -0.0030 C.3       1 VBM         0.3743
     33 F29       -10.7560   35.1080    0.0060 F         1 VBM        -0.2205
     34 F30       -10.1150   33.4120   -1.0960 F         1 VBM        -0.2205
     35 F28       -10.0790   33.4570    1.0750 F         1 VBM        -0.2205
     36 H1         -7.5044   35.2041   -4.6652 H         1 VBM         0.0583
     37 H2         -9.3810   34.9598   -6.2884 H         1 VBM         0.0700
     38 H3         -6.5739   35.6254   -9.4884 H         1 VBM         0.0700
     39 H4         -4.7195   35.7987   -7.8661 H         1 VBM         0.0583
     40 H5         -3.8478   35.9812   -5.6437 H         1 VBM         0.0903
     41 H6         -4.4362   32.4523   -2.7109 H         1 VBM         0.0502
     42 H7         -5.9817   32.8157   -1.8709 H         1 VBM         0.0502
     43 H8         -4.4333   33.4488   -1.2165 H         1 VBM         0.0502
     44 H9         -6.7725   40.4034   -2.8401 H         1 VBM         0.2269
     45 H10        -7.6342   43.9403   -5.2712 H         1 VBM         0.0575
     46 H11        -8.1447   42.4323   -6.1031 H         1 VBM         0.0575
     47 H12        -6.4818   43.0694   -6.3389 H         1 VBM         0.0575
     48 H13        -8.1029   34.4892   -2.0551 H         1 VBM         0.0776
     49 H14        -5.0314   36.5068    0.1427 H         1 VBM         0.0808
     50 H15        -6.3513   36.2795    2.1871 H         1 VBM         0.0677
     51 H16        -8.5573   35.1190    2.1549 H         1 VBM         0.0781
@<TRIPOS>BOND
     1    1    2 ar 
     2    1    8 ar 
     3    2    3 ar 
     4    3    4 1  
     5    3    6 ar 
     6    4    5 3  
     7    6    7 ar 
     8    7    8 ar 
     9    8    9 1  
    10    9   10 1  
    11    9   15 1  
    12   10   11 2  
    13   10   13 1  
    14   11   12 1  
    15   11   25 1  
    16   13   14 3  
    17   15   16 1  
    18   15   24 1  
    19   16   17 2  
    20   17   18 1  
    21   17   23 1  
    22   18   19 am 
    23   19   20 2  
    24   19   21 1  
    25   21   22 1  
    26   23   24 2  
    27   24   25 1  
    28   25   26 1  
    29   26   27 ar 
    30   26   28 ar 
    31   27   31 ar 
    32   28   29 ar 
    33   29   30 ar 
    34   30   31 ar 
    35   31   32 1  
    36   32   33 1  
    37   32   34 1  
    38   32   35 1  
    39    1   36 1  
    40    2   37 1  
    41    6   38 1  
    42    7   39 1  
    43    9   40 1  
    44   12   41 1  
    45   12   42 1  
    46   12   43 1  
    47   18   44 1  
    48   22   45 1  
    49   22   46 1  
    50   22   47 1  
    51   27   48 1  
    52   28   49 1  
    53   29   50 1  
    54   30   51 1  
@<TRIPOS>SUBSTRUCTURE
     1 VBM         1

