### 
### Created by X-TOOL on Mon Sep 10 21:13:28 2018
### 

@<TRIPOS>MOLECULE
5a8z_ligand
   48    51     1     0     0
SMALL
GAST_HUCK


@<TRIPOS>ATOM
      1 C1         28.0720  -23.9090    8.3090 C.ar      1 IUL        -0.0338
      2 C2         28.7080  -23.1090    7.3560 C.ar      1 IUL        -0.0464
      3 C3         28.2890  -23.1380    6.0250 C.ar      1 IUL        -0.0075
      4 C4         27.2330  -23.9700    5.6370 C.ar      1 IUL        -0.0464
      5 C5         26.5990  -24.7670    6.5560 C.ar      1 IUL        -0.0338
      6 C6         27.0050  -24.7390    7.8990 C.ar      1 IUL         0.0876
      7 C7         29.0080  -22.3140    4.9700 C.3       1 IUL         0.0975
      8 N8         28.2090  -22.9570    2.3380 N.am      1 IUL        -0.1377
      9 C9         29.2020  -23.6460    2.9340 C.2       1 IUL         0.3258
     10 N10        29.6950  -23.3410    4.1470 N.am      1 IUL        -0.2441
     11 C11        27.7190  -23.4480    1.0860 C.ar      1 IUL         0.1270
     12 C12        28.2830  -23.1860   -0.1570 C.ar      1 IUL        -0.0041
     13 C13        27.7240  -23.7080   -1.3130 C.ar      1 IUL        -0.0410
     14 C14        26.5950  -24.5190   -1.2520 C.ar      1 IUL        -0.0433
     15 C15        26.0050  -24.8030   -0.0230 C.ar      1 IUL         0.0363
     16 C16        26.5630  -24.2670    1.1310 C.ar      1 IUL        -0.0049
     17 C17        24.8040  -25.7180    0.0280 C.3       1 IUL         0.3733
     18 F18        23.9470  -25.5410   -1.0470 F         1 IUL        -0.2207
     19 F19        25.2470  -27.0460    0.0410 F         1 IUL        -0.2207
     20 F20        24.0630  -25.5580    1.1710 F         1 IUL        -0.2207
     21 O21        29.6800  -24.5890    2.3500 O.2       1 IUL        -0.3785
     22 C22        26.3320  -25.5900    8.8250 C.1       1 IUL         0.0925
     23 N23        25.7800  -26.3240    9.4870 N.1       1 IUL        -0.3345
     24 C24        27.6920  -21.8180    2.9400 C.2       1 IUL         0.1378
     25 C25        28.0520  -21.4520    4.2120 C.2       1 IUL         0.0667
     26 C26        27.5500  -20.2960    4.8310 C.2       1 IUL         0.1984
     27 N27        26.7740  -19.4680    4.1420 N.am      1 IUL        -0.2622
     28 N28        26.5480  -19.6150    2.7940 N.4       1 IUL         0.3796
     29 C29        26.7250  -20.9470    2.1900 C.3       1 IUL         0.0579
     30 O30        27.8170  -20.0460    5.9810 O.2       1 IUL        -0.4148
     31 C31        27.4060  -18.6480    2.1000 C.3       1 IUL        -0.0168
     32 H1         28.3918  -23.8930    9.3446 H         1 IUL         0.0700
     33 H2         29.5283  -22.4647    7.6510 H         1 IUL         0.0582
     34 H3         26.9132  -23.9849    4.6014 H         1 IUL         0.0582
     35 H4         25.7877  -25.4157    6.2461 H         1 IUL         0.0700
     36 H5         29.7555  -21.6596    5.4422 H         1 IUL         0.0780
     37 H6         30.5142  -23.8002    4.4906 H         1 IUL         0.1906
     38 H7         29.1700  -22.5664   -0.2231 H         1 IUL         0.0782
     39 H8         28.1710  -23.4821   -2.2744 H         1 IUL         0.0668
     40 H9         26.1742  -24.9303   -2.1624 H         1 IUL         0.0755
     41 H10        26.1031  -24.4804    2.0891 H         1 IUL         0.0740
     42 H11        26.3368  -18.7077    4.6224 H         1 IUL         0.2346
     43 H12        25.5860  -19.3598    2.6343 H         1 IUL         0.2319
     44 H13        25.7478  -21.4514    2.1656 H         1 IUL         0.1050
     45 H14        27.0966  -20.8175    1.1628 H         1 IUL         0.1050
     46 H15        27.2531  -18.7353    1.0142 H         1 IUL         0.0785
     47 H16        28.4595  -18.8544    2.3396 H         1 IUL         0.0785
     48 H17        27.1486  -17.6294    2.4258 H         1 IUL         0.0785
@<TRIPOS>BOND
     1    2    1 ar 
     2    1    6 ar 
     3    3    2 ar 
     4    3    4 ar 
     5    7    3 1  
     6    4    5 ar 
     7    5    6 ar 
     8    6   22 1  
     9   10    7 1  
    10    7   25 1  
    11    9    8 am 
    12    8   11 1  
    13    8   24 1  
    14    9   10 am 
    15    9   21 2  
    16   11   12 ar 
    17   11   16 ar 
    18   12   13 ar 
    19   13   14 ar 
    20   14   15 ar 
    21   15   16 ar 
    22   15   17 1  
    23   17   18 1  
    24   17   19 1  
    25   17   20 1  
    26   22   23 3  
    27   24   25 2  
    28   24   29 1  
    29   25   26 1  
    30   26   27 am 
    31   26   30 2  
    32   27   28 1  
    33   28   29 1  
    34   28   31 1  
    35    1   32 1  
    36    2   33 1  
    37    4   34 1  
    38    5   35 1  
    39    7   36 1  
    40   10   37 1  
    41   12   38 1  
    42   13   39 1  
    43   14   40 1  
    44   16   41 1  
    45   27   42 1  
    46   28   43 1  
    47   29   44 1  
    48   29   45 1  
    49   31   46 1  
    50   31   47 1  
    51   31   48 1  
@<TRIPOS>SUBSTRUCTURE
     1 IUL         1

