### 
### Created by X-TOOL on Mon Sep 10 21:13:29 2018
### 

@<TRIPOS>MOLECULE
5a9u_ligand
   49    52     1     0     0
SMALL
GAST_HUCK


@<TRIPOS>ATOM
      1 C23        26.3340   48.3750    7.4740 C.1       1 5P8         0.1148
      2 C12        34.2470   46.8300    8.9630 C.ar      1 5P8        -0.0500
      3 C13        34.6930   46.6480   10.2900 C.ar      1 5P8        -0.0292
      4 C6         29.7800   45.5660    8.6020 C.ar      1 5P8        -0.0203
      5 C15        33.4440   44.5330   10.4260 C.ar      1 5P8        -0.0180
      6 C4         27.6870   46.1550    9.5380 C.ar      1 5P8        -0.0103
      7 C19        27.7570   48.5470    7.3700 C.2       1 5P8         0.2054
      8 C5         28.7400   46.5090    8.6710 C.ar      1 5P8        -0.0168
      9 C18        28.8230   47.7670    7.8690 C.2       1 5P8         0.0434
     10 C11        33.3860   45.8600    8.3480 C.ar      1 5P8         0.0502
     11 C10        32.9640   44.6770    9.0740 C.ar      1 5P8         0.0084
     12 C1         29.8080   44.3490    9.3350 C.ar      1 5P8         0.1397
     13 C14        34.2910   45.5080   11.0060 C.ar      1 5P8         0.1312
     14 C22        30.0060   48.4960    7.4150 C.2       1 5P8         0.0649
     15 C2         28.6990   44.0970   10.1720 C.ar      1 5P8         0.1407
     16 C27        32.9670   46.1450    6.9380 C.2       1 5P8         0.2011
     17 C28        31.4880   48.2220    7.5990 C.3       1 5P8         0.0758
     18 C8         32.0270   43.5850    8.4820 C.3       1 5P8         0.1138
     19 C9         32.7220   42.2170    8.4180 C.3       1 5P8        -0.0234
     20 C25        27.6810   50.6950    6.0110 C.3       1 5P8         0.0605
     21 C29        31.7580   47.4290    5.1970 C.3       1 5P8         0.0239
     22 N24        25.1910   48.2320    7.5780 N.1       1 5P8        -0.3433
     23 N3         27.6520   44.9900   10.2720 N.ar      1 5P8        -0.2959
     24 N21        29.6810   49.5890    6.7200 N.2       1 5P8        -0.1979
     25 N20        28.3460   49.6030    6.7050 N.pl3     1 5P8        -0.1869
     26 N26        32.0910   47.2430    6.6220 N.am      1 5P8        -0.2661
     27 N17        28.6530   42.9170   10.9350 N.pl3     1 5P8        -0.3246
     28 O30        33.4400   45.3650    6.1090 O.2       1 5P8        -0.3901
     29 O7         30.8240   43.4000    9.3030 O.3       1 5P8        -0.2995
     30 F16        34.7170   45.3430   12.2620 F         1 5P8        -0.1813
     31 H1         34.5563   47.7068    8.4056 H         1 5P8         0.0642
     32 H2         35.3413   47.3829   10.7534 H         1 5P8         0.0560
     33 H3         30.6159   45.7814    7.9463 H         1 5P8         0.0593
     34 H4         33.1521   43.6655   11.0068 H         1 5P8         0.0555
     35 H5         26.8535   46.8416    9.6331 H         1 5P8         0.0676
     36 H6         31.6362   47.8238    8.6136 H         1 5P8         0.0679
     37 H7         32.0249   49.1767    7.4978 H         1 5P8         0.0679
     38 H8         31.7331   43.8933    7.4678 H         1 5P8         0.0823
     39 H9         32.0300   41.4736    7.9954 H         1 5P8         0.0282
     40 H10        33.0177   41.9081    9.4315 H         1 5P8         0.0282
     41 H11        33.6160   42.2893    7.7812 H         1 5P8         0.0282
     42 H12        28.4358   51.3729    5.5859 H         1 5P8         0.0601
     43 H13        27.0485   51.2490    6.7202 H         1 5P8         0.0601
     44 H14        27.0560   50.2888    5.2021 H         1 5P8         0.0601
     45 H15        32.2594   46.6537    4.5991 H         1 5P8         0.0487
     46 H16        32.0971   48.4223    4.8678 H         1 5P8         0.0487
     47 H17        30.6693   47.3496    5.0614 H         1 5P8         0.0487
     48 H18        27.8455   42.7303   11.5465 H         1 5P8         0.1741
     49 H19        29.4268   42.2393   10.8825 H         1 5P8         0.1741
@<TRIPOS>BOND
     1    7    1 1  
     2    1   22 3  
     3    2    3 ar 
     4   10    2 ar 
     5    3   13 ar 
     6    8    4 ar 
     7    4   12 ar 
     8   11    5 ar 
     9    5   13 ar 
    10    8    6 ar 
    11    6   23 ar 
    12    9    7 2  
    13    7   25 1  
    14    9    8 1  
    15   14    9 1  
    16   10   11 ar 
    17   16   10 1  
    18   11   18 1  
    19   12   15 ar 
    20   12   29 1  
    21   13   30 1  
    22   17   14 1  
    23   14   24 2  
    24   23   15 ar 
    25   15   27 1  
    26   26   16 am 
    27   16   28 2  
    28   17   26 1  
    29   18   19 1  
    30   18   29 1  
    31   25   20 1  
    32   26   21 1  
    33   24   25 1  
    34    2   31 1  
    35    3   32 1  
    36    4   33 1  
    37    5   34 1  
    38    6   35 1  
    39   17   36 1  
    40   17   37 1  
    41   18   38 1  
    42   19   39 1  
    43   19   40 1  
    44   19   41 1  
    45   20   42 1  
    46   20   43 1  
    47   20   44 1  
    48   21   45 1  
    49   21   46 1  
    50   21   47 1  
    51   27   48 1  
    52   27   49 1  
@<TRIPOS>SUBSTRUCTURE
     1 5P8         1

