### 
### Created by X-TOOL on Mon Sep 10 21:13:29 2018
### 

@<TRIPOS>MOLECULE
5aa8_ligand
   49    52     1     0     0
SMALL
GAST_HUCK


@<TRIPOS>ATOM
      1 C23        26.4950   48.5220    7.4840 C.1       1 5P8         0.1148
      2 C12        34.3740   46.6750    8.9770 C.ar      1 5P8        -0.0500
      3 C13        34.8070   46.5120   10.3110 C.ar      1 5P8        -0.0292
      4 C6         29.8220   45.5360    8.6340 C.ar      1 5P8        -0.0203
      5 C15        33.4780   44.4400   10.4970 C.ar      1 5P8        -0.0180
      6 C4         27.7130   46.1740    9.5020 C.ar      1 5P8        -0.0103
      7 C19        27.9230   48.6120    7.3750 C.2       1 5P8         0.2054
      8 C5         28.8030   46.5080    8.6690 C.ar      1 5P8        -0.0168
      9 C18        28.9480   47.7710    7.8670 C.2       1 5P8         0.0434
     10 C11        33.4800   45.7220    8.3820 C.ar      1 5P8         0.0502
     11 C10        33.0090   44.5680    9.1390 C.ar      1 5P8         0.0084
     12 C1         29.8000   44.3170    9.3610 C.ar      1 5P8         0.1397
     13 C14        34.3600   45.4050   11.0570 C.ar      1 5P8         0.1312
     14 C22        30.1680   48.4440    7.4050 C.2       1 5P8         0.0649
     15 C2         28.6570   44.0850   10.1670 C.ar      1 5P8         0.1407
     16 C27        33.0720   45.9830    6.9580 C.2       1 5P8         0.2011
     17 C28        31.6380   48.0980    7.5790 C.3       1 5P8         0.0758
     18 C8         32.0370   43.4980    8.5590 C.3       1 5P8         0.1138
     19 C9         32.6890   42.1040    8.5270 C.3       1 5P8        -0.0234
     20 C25        27.9540   50.7680    6.0230 C.3       1 5P8         0.0605
     21 C29        31.8840   47.2560    5.1890 C.3       1 5P8         0.0239
     22 N24        25.3450   48.4680    7.5900 N.1       1 5P8        -0.3433
     23 N3         27.6270   45.0020   10.2320 N.ar      1 5P8        -0.2959
     24 N21        29.8950   49.5570    6.7150 N.2       1 5P8        -0.1979
     25 N20        28.5640   49.6400    6.7070 N.pl3     1 5P8        -0.1869
     26 N26        32.2160   47.0900    6.6160 N.am      1 5P8        -0.2661
     27 N17        28.5530   42.9020   10.9290 N.pl3     1 5P8        -0.3246
     28 O30        33.5320   45.1760    6.1410 O.2       1 5P8        -0.3901
     29 O7         30.8010   43.3480    9.3520 O.3       1 5P8        -0.2995
     30 F16        34.7720   45.2630   12.3200 F         1 5P8        -0.1813
     31 H1         34.7186   47.5246    8.3987 H         1 5P8         0.0642
     32 H2         35.4797   47.2350   10.7581 H         1 5P8         0.0560
     33 H3         30.6843   45.7329    8.0073 H         1 5P8         0.0593
     34 H4         33.1543   43.5980   11.0981 H         1 5P8         0.0555
     35 H5         26.8930   46.8794    9.5740 H         1 5P8         0.0676
     36 H6         31.7686   47.7000    8.5961 H         1 5P8         0.0679
     37 H7         32.2143   49.0289    7.4727 H         1 5P8         0.0679
     38 H8         31.7718   43.8004    7.5352 H         1 5P8         0.0823
     39 H9         31.9765   41.3754    8.1129 H         1 5P8         0.0282
     40 H10        32.9666   41.8055    9.5487 H         1 5P8         0.0282
     41 H11        33.5898   42.1349    7.8965 H         1 5P8         0.0282
     42 H12        28.7409   51.4058    5.5940 H         1 5P8         0.0601
     43 H13        27.3581   51.3526    6.7393 H         1 5P8         0.0601
     44 H14        27.3014   50.3994    5.2179 H         1 5P8         0.0601
     45 H15        32.3675   46.4590    4.6050 H         1 5P8         0.0487
     46 H16        32.2434   48.2355    4.8404 H         1 5P8         0.0487
     47 H17        30.7935   47.1973    5.0570 H         1 5P8         0.0487
     48 H18        27.7209   42.7373   11.5133 H         1 5P8         0.1741
     49 H19        29.3092   42.2032   10.9009 H         1 5P8         0.1741
@<TRIPOS>BOND
     1    7    1 1  
     2    1   22 3  
     3    2    3 ar 
     4   10    2 ar 
     5    3   13 ar 
     6    8    4 ar 
     7    4   12 ar 
     8   11    5 ar 
     9    5   13 ar 
    10    8    6 ar 
    11    6   23 ar 
    12    9    7 2  
    13    7   25 1  
    14    9    8 1  
    15   14    9 1  
    16   10   11 ar 
    17   16   10 1  
    18   11   18 1  
    19   12   15 ar 
    20   12   29 1  
    21   13   30 1  
    22   17   14 1  
    23   14   24 2  
    24   23   15 ar 
    25   15   27 1  
    26   26   16 am 
    27   16   28 2  
    28   17   26 1  
    29   18   19 1  
    30   18   29 1  
    31   25   20 1  
    32   26   21 1  
    33   24   25 1  
    34    2   31 1  
    35    3   32 1  
    36    4   33 1  
    37    5   34 1  
    38    6   35 1  
    39   17   36 1  
    40   17   37 1  
    41   18   38 1  
    42   19   39 1  
    43   19   40 1  
    44   19   41 1  
    45   20   42 1  
    46   20   43 1  
    47   20   44 1  
    48   21   45 1  
    49   21   46 1  
    50   21   47 1  
    51   27   48 1  
    52   27   49 1  
@<TRIPOS>SUBSTRUCTURE
     1 5P8         1

