### 
### Created by X-TOOL on Mon Sep 10 21:13:28 2018
### 

@<TRIPOS>MOLECULE
5aa9_ligand
   49    52     1     0     0
SMALL
GAST_HUCK


@<TRIPOS>ATOM
      1 C23        26.6460   48.8240    7.2500 C.1       1 5P8         0.1148
      2 C12        34.5640   47.0100    8.9140 C.ar      1 5P8        -0.0500
      3 C13        34.9850   46.8080   10.2490 C.ar      1 5P8        -0.0292
      4 C6         29.9700   45.8860    8.4950 C.ar      1 5P8        -0.0203
      5 C15        33.6300   44.7540   10.3780 C.ar      1 5P8        -0.0180
      6 C4         27.8550   46.5220    9.3600 C.ar      1 5P8        -0.0103
      7 C19        28.0750   48.9430    7.1840 C.2       1 5P8         0.2054
      8 C5         28.9460   46.8560    8.5220 C.ar      1 5P8        -0.0168
      9 C18        29.0940   48.1180    7.7150 C.2       1 5P8         0.0434
     10 C11        33.6640   46.0840    8.2910 C.ar      1 5P8         0.0502
     11 C10        33.1720   44.9180    9.0200 C.ar      1 5P8         0.0084
     12 C1         29.9550   44.6760    9.2290 C.ar      1 5P8         0.1397
     13 C14        34.5200   45.6910   10.9650 C.ar      1 5P8         0.1312
     14 C22        30.3190   48.8030    7.2920 C.2       1 5P8         0.0649
     15 C2         28.8150   44.4420   10.0380 C.ar      1 5P8         0.1407
     16 C27        33.2810   46.3910    6.8730 C.2       1 5P8         0.2011
     17 C28        31.7860   48.4670    7.5230 C.3       1 5P8         0.0758
     18 C8         32.1900   43.8690    8.4200 C.3       1 5P8         0.1138
     19 C9         32.8270   42.4690    8.3440 C.3       1 5P8        -0.0234
     20 C25        28.1290   51.0970    5.8250 C.3       1 5P8         0.0605
     21 C29        32.1150   47.6960    5.1190 C.3       1 5P8         0.0239
     22 N24        25.4970   48.7130    7.3280 N.1       1 5P8        -0.3433
     23 N3         27.7780   45.3530   10.1000 N.ar      1 5P8        -0.2959
     24 N21        30.0570   49.9100    6.5870 N.2       1 5P8        -0.1979
     25 N20        28.7270   49.9770    6.5340 N.pl3     1 5P8        -0.1869
     26 N26        32.4110   47.4960    6.5480 N.am      1 5P8        -0.2661
     27 N17        28.7250   43.2630   10.8060 N.pl3     1 5P8        -0.3246
     28 O30        33.7740   45.6200    6.0370 O.2       1 5P8        -0.3901
     29 O7         30.9660   43.7090    9.2230 O.3       1 5P8        -0.2995
     30 F16        34.9250   45.5120   12.2250 F         1 5P8        -0.1813
     31 H1         34.9235   47.8691    8.3592 H         1 5P8         0.0642
     32 H2         35.6633   47.5114   10.7182 H         1 5P8         0.0560
     33 H3         30.8311   46.0817    7.8662 H         1 5P8         0.0593
     34 H4         33.2899   43.9037   10.9580 H         1 5P8         0.0555
     35 H5         27.0305   47.2226    9.4268 H         1 5P8         0.0676
     36 H6         31.8765   48.0353    8.5307 H         1 5P8         0.0679
     37 H7         32.3569   49.4059    7.4736 H         1 5P8         0.0679
     38 H8         31.9163   44.2004    7.4075 H         1 5P8         0.0823
     39 H9         32.1033   41.7597    7.9161 H         1 5P8         0.0282
     40 H10        33.1097   42.1394    9.3547 H         1 5P8         0.0282
     41 H11        33.7229   42.5079    7.7069 H         1 5P8         0.0282
     42 H12        28.9236   51.7417    5.4212 H         1 5P8         0.0601
     43 H13        27.5027   51.6776    6.5183 H         1 5P8         0.0601
     44 H14        27.5085   50.7190    4.9992 H         1 5P8         0.0601
     45 H15        32.6297   46.9252    4.5266 H         1 5P8         0.0487
     46 H16        32.4644   48.6916    4.8080 H         1 5P8         0.0487
     47 H17        31.0299   47.6204    4.9552 H         1 5P8         0.0487
     48 H18        27.8964   43.0933   11.3938 H         1 5P8         0.1741
     49 H19        29.4879   42.5714   10.7792 H         1 5P8         0.1741
@<TRIPOS>BOND
     1    7    1 1  
     2    1   22 3  
     3    2    3 ar 
     4   10    2 ar 
     5    3   13 ar 
     6    8    4 ar 
     7    4   12 ar 
     8   11    5 ar 
     9    5   13 ar 
    10    8    6 ar 
    11    6   23 ar 
    12    9    7 2  
    13    7   25 1  
    14    9    8 1  
    15   14    9 1  
    16   10   11 ar 
    17   16   10 1  
    18   11   18 1  
    19   12   15 ar 
    20   12   29 1  
    21   13   30 1  
    22   17   14 1  
    23   14   24 2  
    24   23   15 ar 
    25   15   27 1  
    26   26   16 am 
    27   16   28 2  
    28   17   26 1  
    29   18   19 1  
    30   18   29 1  
    31   25   20 1  
    32   26   21 1  
    33   24   25 1  
    34    2   31 1  
    35    3   32 1  
    36    4   33 1  
    37    5   34 1  
    38    6   35 1  
    39   17   36 1  
    40   17   37 1  
    41   18   38 1  
    42   19   39 1  
    43   19   40 1  
    44   19   41 1  
    45   20   42 1  
    46   20   43 1  
    47   20   44 1  
    48   21   45 1  
    49   21   46 1  
    50   21   47 1  
    51   27   48 1  
    52   27   49 1  
@<TRIPOS>SUBSTRUCTURE
     1 5P8         1

