### 
### Created by X-TOOL on Mon Sep 10 21:13:28 2018
### 

@<TRIPOS>MOLECULE
5aaa_ligand
   53    56     1     0     0
SMALL
GAST_HUCK


@<TRIPOS>ATOM
      1 CL         32.8660   46.6480    6.4270 Cl        1 VGH        -0.0808
      2 C13        33.3620   46.3790    8.0700 C.ar      1 VGH         0.0403
      3 C3         34.1920   47.3810    8.6550 C.ar      1 VGH        -0.0561
      4 C2         34.6550   47.2580    9.9920 C.ar      1 VGH        -0.0339
      5 C12        34.2990   46.1300   10.7790 C.ar      1 VGH         0.1404
      6 F          34.7560   46.0510   12.0340 F         1 VGH        -0.1842
      7 C17        32.9730   45.2060    8.8460 C.ar      1 VGH         0.0160
      8 C18        33.4620   45.0970   10.2280 C.ar      1 VGH         0.0774
      9 CL2        33.0750   43.7450   11.2760 Cl        1 VGH        -0.0787
     10 C21        32.0620   44.1070    8.1960 C.3       1 VGH         0.1115
     11 C1         32.7740   42.7410    8.1900 C.3       1 VGH        -0.0242
     12 O27        30.7850   43.8930    8.8930 O.3       1 VGH        -0.3010
     13 C15        29.7620   44.8430    9.0590 C.ar      1 VGH         0.1362
     14 C4         29.6050   46.0430    8.2750 C.ar      1 VGH        -0.0252
     15 C19        28.7640   44.6150   10.0630 C.ar      1 VGH         0.1368
     16 N22        28.8530   43.4560   10.8650 N.pl3     1 VGH        -0.3267
     17 N23        27.7170   45.4430   10.3010 N.ar      1 VGH        -0.3009
     18 C5         27.5940   46.5750    9.5410 C.ar      1 VGH        -0.0161
     19 C14        28.5110   46.9370    8.5060 C.ar      1 VGH        -0.0311
     20 C16        28.3450   48.2020    7.6750 C.2       1 VGH        -0.0030
     21 C6         29.3230   48.8210    6.7800 C.2       1 VGH         0.0048
     22 C7         27.2250   49.0260    7.5980 C.2       1 VGH         0.0622
     23 N26        27.6060   50.0370    6.6940 N.pl3     1 VGH        -0.2005
     24 N24        28.8070   49.8760    6.2580 N.2       1 VGH        -0.2139
     25 C20        26.7600   51.1810    6.2570 C.3       1 VGH         0.0923
     26 C8         26.8250   52.3220    7.2990 C.3       1 VGH         0.0204
     27 C10        25.9430   53.5040    6.8270 C.3       1 VGH        -0.0306
     28 N25        24.5390   53.0860    6.5470 N.4       1 VGH         0.2271
     29 C11        24.4560   51.9560    5.5750 C.3       1 VGH        -0.0306
     30 C9         25.2930   50.7380    6.0220 C.3       1 VGH         0.0204
     31 H1         34.4735   48.2493    8.0703 H         1 VGH         0.0597
     32 H2         35.2854   48.0314   10.4156 H         1 VGH         0.0547
     33 H3         31.8518   44.4143    7.1609 H         1 VGH         0.0813
     34 H4         32.1175   41.9874    7.7305 H         1 VGH         0.0281
     35 H5         33.0060   42.4439    9.2234 H         1 VGH         0.0281
     36 H6         33.7068   42.8162    7.6118 H         1 VGH         0.0281
     37 H7         30.3264   46.2716    7.4989 H         1 VGH         0.0567
     38 H8         28.1447   43.2764   11.5910 H         1 VGH         0.1727
     39 H9         29.6262   42.7903   10.7240 H         1 VGH         0.1727
     40 H10        26.7548   47.2332    9.7348 H         1 VGH         0.0640
     41 H11        30.3276   48.4475    6.5870 H         1 VGH         0.0670
     42 H12        26.2741   48.9145    8.1169 H         1 VGH         0.1021
     43 H13        27.1595   51.5595    5.3046 H         1 VGH         0.0683
     44 H14        27.8658   52.6614    7.4064 H         1 VGH         0.0349
     45 H15        26.4572   51.9545    8.2684 H         1 VGH         0.0349
     46 H16        26.3770   53.9242    5.9077 H         1 VGH         0.0815
     47 H17        25.9329   54.2737    7.6128 H         1 VGH         0.0815
     48 H18        24.0375   53.8742    6.1684 H         1 VGH         0.2013
     49 H19        24.1096   52.7987    7.4125 H         1 VGH         0.2013
     50 H20        24.8266   52.3010    4.5985 H         1 VGH         0.0815
     51 H21        23.4045   51.6473    5.4799 H         1 VGH         0.0815
     52 H22        24.8784   50.3304    6.9558 H         1 VGH         0.0349
     53 H23        25.2636   49.9653    5.2397 H         1 VGH         0.0349
@<TRIPOS>BOND
     1    1    2 1  
     2    2    3 ar 
     3    2    7 ar 
     4    3    4 ar 
     5    4    5 ar 
     6    5    6 1  
     7    5    8 ar 
     8    7    8 ar 
     9    7   10 1  
    10    8    9 1  
    11   10   11 1  
    12   10   12 1  
    13   12   13 1  
    14   13   14 ar 
    15   13   15 ar 
    16   14   19 ar 
    17   15   16 1  
    18   15   17 ar 
    19   17   18 ar 
    20   18   19 ar 
    21   19   20 1  
    22   20   21 1  
    23   20   22 2  
    24   21   24 2  
    25   22   23 1  
    26   23   24 1  
    27   23   25 1  
    28   25   26 1  
    29   25   30 1  
    30   26   27 1  
    31   27   28 1  
    32   28   29 1  
    33   29   30 1  
    34    3   31 1  
    35    4   32 1  
    36   10   33 1  
    37   11   34 1  
    38   11   35 1  
    39   11   36 1  
    40   14   37 1  
    41   16   38 1  
    42   16   39 1  
    43   18   40 1  
    44   21   41 1  
    45   22   42 1  
    46   25   43 1  
    47   26   44 1  
    48   26   45 1  
    49   27   46 1  
    50   27   47 1  
    51   28   48 1  
    52   28   49 1  
    53   29   50 1  
    54   29   51 1  
    55   30   52 1  
    56   30   53 1  
@<TRIPOS>SUBSTRUCTURE
     1 VGH         1

