### 
### Created by X-TOOL on Mon Sep 10 21:13:29 2018
### 

@<TRIPOS>MOLECULE
5aab_ligand
   53    56     1     0     0
SMALL
GAST_HUCK


@<TRIPOS>ATOM
      1 CL         32.9350   46.5870    6.6460 Cl        1 VGH        -0.0808
      2 C13        33.3930   46.2880    8.3030 C.ar      1 VGH         0.0403
      3 C3         34.2140   47.2720    8.9180 C.ar      1 VGH        -0.0561
      4 C2         34.6450   47.1280   10.2610 C.ar      1 VGH        -0.0339
      5 C12        34.2670   45.9940   11.0290 C.ar      1 VGH         0.1404
      6 F          34.6980   45.9010   12.2910 F         1 VGH        -0.1842
      7 C17        32.9780   45.1060    9.0590 C.ar      1 VGH         0.0160
      8 C18        33.4390   44.9740   10.4530 C.ar      1 VGH         0.0774
      9 CL2        33.0270   43.6100   11.4910 Cl        1 VGH        -0.0787
     10 C21        32.0700   44.0340    8.3670 C.3       1 VGH         0.1115
     11 C1         32.7280   42.6420    8.3460 C.3       1 VGH        -0.0242
     12 O27        30.7520   43.8570    9.0060 O.3       1 VGH        -0.3010
     13 C15        29.7680   44.8510    9.1880 C.ar      1 VGH         0.1362
     14 C4         29.6490   46.0670    8.4180 C.ar      1 VGH        -0.0252
     15 C19        28.7700   44.6550   10.2070 C.ar      1 VGH         0.1368
     16 N22        28.8130   43.4900   10.9950 N.pl3     1 VGH        -0.3267
     17 N23        27.7630   45.5270   10.4690 N.ar      1 VGH        -0.3009
     18 C5         27.6770   46.6680    9.7270 C.ar      1 VGH        -0.0161
     19 C14        28.5940   47.0050    8.6780 C.ar      1 VGH        -0.0311
     20 C16        28.4630   48.2910    7.8660 C.2       1 VGH        -0.0030
     21 C6         29.4930   48.9580    7.0710 C.2       1 VGH         0.0048
     22 C7         27.3330   49.0940    7.7160 C.2       1 VGH         0.0622
     23 N26        27.7630   50.1380    6.8720 N.pl3     1 VGH        -0.2005
     24 N24        28.9960   50.0150    6.5350 N.2       1 VGH        -0.2139
     25 C20        26.9320   51.2740    6.3960 C.3       1 VGH         0.0923
     26 C8         26.7050   52.2910    7.5360 C.3       1 VGH         0.0204
     27 C10        25.8410   53.4650    7.0140 C.3       1 VGH        -0.0306
     28 N25        24.5510   53.0000    6.4240 N.4       1 VGH         0.2271
     29 C11        24.7430   51.9830    5.3520 C.3       1 VGH        -0.0306
     30 C9         25.5770   50.7750    5.8360 C.3       1 VGH         0.0204
     31 H1         34.5152   48.1458    8.3516 H         1 VGH         0.0597
     32 H2         35.2706   47.8925   10.7074 H         1 VGH         0.0547
     33 H3         31.9099   44.3645    7.3301 H         1 VGH         0.0813
     34 H4         32.0550   41.9258    7.8520 H         1 VGH         0.0281
     35 H5         32.9212   42.3121    9.3774 H         1 VGH         0.0281
     36 H6         33.6778   42.6937    7.7936 H         1 VGH         0.0281
     37 H7         30.3666   46.2743    7.6325 H         1 VGH         0.0567
     38 H8         28.1051   43.3373   11.7275 H         1 VGH         0.1727
     39 H9         29.5523   42.7900   10.8393 H         1 VGH         0.1727
     40 H10        26.8699   47.3588    9.9426 H         1 VGH         0.0640
     41 H11        30.5192   48.6135    6.9519 H         1 VGH         0.0670
     42 H12        26.3453   48.9482    8.1509 H         1 VGH         0.1021
     43 H13        27.4741   51.7802    5.5837 H         1 VGH         0.0683
     44 H14        27.6753   52.6756    7.8832 H         1 VGH         0.0349
     45 H15        26.1865   51.7968    8.3708 H         1 VGH         0.0349
     46 H16        26.4083   54.0060    6.2423 H         1 VGH         0.0815
     47 H17        25.6226   54.1434    7.8518 H         1 VGH         0.0815
     48 H18        24.0704   53.7947    6.0323 H         1 VGH         0.2013
     49 H19        23.9890   52.5948    7.1561 H         1 VGH         0.2013
     50 H20        25.2619   52.4550    4.5047 H         1 VGH         0.0815
     51 H21        23.7565   51.6237    5.0238 H         1 VGH         0.0815
     52 H22        25.0272   50.2430    6.6264 H         1 VGH         0.0349
     53 H23        25.7579   50.0928    4.9923 H         1 VGH         0.0349
@<TRIPOS>BOND
     1    1    2 1  
     2    2    3 ar 
     3    2    7 ar 
     4    3    4 ar 
     5    4    5 ar 
     6    5    6 1  
     7    5    8 ar 
     8    7    8 ar 
     9    7   10 1  
    10    8    9 1  
    11   10   11 1  
    12   10   12 1  
    13   12   13 1  
    14   13   14 ar 
    15   13   15 ar 
    16   14   19 ar 
    17   15   16 1  
    18   15   17 ar 
    19   17   18 ar 
    20   18   19 ar 
    21   19   20 1  
    22   20   21 1  
    23   20   22 2  
    24   21   24 2  
    25   22   23 1  
    26   23   24 1  
    27   23   25 1  
    28   25   26 1  
    29   25   30 1  
    30   26   27 1  
    31   27   28 1  
    32   28   29 1  
    33   29   30 1  
    34    3   31 1  
    35    4   32 1  
    36   10   33 1  
    37   11   34 1  
    38   11   35 1  
    39   11   36 1  
    40   14   37 1  
    41   16   38 1  
    42   16   39 1  
    43   18   40 1  
    44   21   41 1  
    45   22   42 1  
    46   25   43 1  
    47   26   44 1  
    48   26   45 1  
    49   27   46 1  
    50   27   47 1  
    51   28   48 1  
    52   28   49 1  
    53   29   50 1  
    54   29   51 1  
    55   30   52 1  
    56   30   53 1  
@<TRIPOS>SUBSTRUCTURE
     1 VGH         1

