### 
### Created by X-TOOL on Mon Sep 10 21:13:29 2018
### 

@<TRIPOS>MOLECULE
5aac_ligand
   53    56     1     0     0
SMALL
GAST_HUCK


@<TRIPOS>ATOM
      1 CL         33.0860   46.1050    6.5250 Cl        1 VGH        -0.0808
      2 C13        33.5540   45.7790    8.1740 C.ar      1 VGH         0.0403
      3 C3         34.3830   46.7560    8.7980 C.ar      1 VGH        -0.0561
      4 C2         34.8240   46.5970   10.1360 C.ar      1 VGH        -0.0339
      5 C12        34.4490   45.4550   10.8930 C.ar      1 VGH         0.1404
      6 F          34.8920   45.3500   12.1560 F         1 VGH        -0.1842
      7 C17        33.1420   44.5860    8.9150 C.ar      1 VGH         0.0160
      8 C18        33.6100   44.4390   10.3060 C.ar      1 VGH         0.0774
      9 CL2        33.1970   43.0630   11.3190 Cl        1 VGH        -0.0787
     10 C21        32.2290   43.5170    8.2150 C.3       1 VGH         0.1115
     11 C1         32.9000   42.1330    8.1620 C.3       1 VGH        -0.0242
     12 O27        30.9190   43.3120    8.8620 O.3       1 VGH        -0.3010
     13 C15        29.9410   44.3060    9.0640 C.ar      1 VGH         0.1362
     14 C4         29.8320   45.5310    8.3070 C.ar      1 VGH        -0.0252
     15 C19        28.9470   44.1100   10.0870 C.ar      1 VGH         0.1368
     16 N22        28.9820   42.9360   10.8700 N.pl3     1 VGH        -0.3267
     17 N23        27.9510   44.9920   10.3590 N.ar      1 VGH        -0.3009
     18 C5         27.8800   46.1390    9.6260 C.ar      1 VGH        -0.0161
     19 C14        28.7930   46.4750    8.5800 C.ar      1 VGH        -0.0311
     20 C16        28.6770   47.7680    7.7890 C.2       1 VGH        -0.0030
     21 C6         29.7350   48.4750    7.0590 C.2       1 VGH         0.0048
     22 C7         27.5390   48.5450    7.5990 C.2       1 VGH         0.0622
     23 N26        27.9840   49.6170    6.7980 N.pl3     1 VGH        -0.2005
     24 N24        29.2390   49.5320    6.5190 N.2       1 VGH        -0.2139
     25 C20        27.1420   50.7360    6.3110 C.3       1 VGH         0.0923
     26 C8         26.8310   51.7150    7.4670 C.3       1 VGH         0.0204
     27 C10        25.9510   52.8720    6.9400 C.3       1 VGH        -0.0306
     28 N25        24.7060   52.3810    6.2800 N.4       1 VGH         0.2271
     29 C11        24.9800   51.4030    5.1870 C.3       1 VGH        -0.0306
     30 C9         25.8310   50.2090    5.6750 C.3       1 VGH         0.0204
     31 H1         34.6816   47.6360    8.2399 H         1 VGH         0.0597
     32 H2         35.4543   47.3553   10.5863 H         1 VGH         0.0547
     33 H3         32.0540   43.8649    7.1863 H         1 VGH         0.0813
     34 H4         32.2274   41.4182    7.6653 H         1 VGH         0.0281
     35 H5         33.1106   41.7882    9.1851 H         1 VGH         0.0281
     36 H6         33.8416   42.2033    7.5976 H         1 VGH         0.0281
     37 H7         30.5483   45.7380    7.5202 H         1 VGH         0.0567
     38 H8         28.2758   42.7856   11.6045 H         1 VGH         0.1727
     39 H9         29.7138   42.2297   10.7068 H         1 VGH         0.1727
     40 H10        27.0827   46.8383    9.8503 H         1 VGH         0.0640
     41 H11        30.7737   48.1562    6.9859 H         1 VGH         0.0670
     42 H12        26.5350   48.3665    7.9811 H         1 VGH         0.1021
     43 H13        27.7046   51.2801    5.5380 H         1 VGH         0.0683
     44 H14        27.7718   52.1223    7.8657 H         1 VGH         0.0349
     45 H15        26.2950   51.1811    8.2655 H         1 VGH         0.0349
     46 H16        26.5323   53.4544    6.2100 H         1 VGH         0.0815
     47 H17        25.6720   53.5178    7.7856 H         1 VGH         0.0815
     48 H18        24.2148   53.1704    5.8905 H         1 VGH         0.2013
     49 H19        24.1276   51.9346    6.9744 H         1 VGH         0.2013
     50 H20        25.5207   51.9169    4.3785 H         1 VGH         0.0815
     51 H21        24.0220   51.0223    4.8033 H         1 VGH         0.0815
     52 H22        25.2642   49.6365    6.4240 H         1 VGH         0.0349
     53 H23        26.0729   49.5581    4.8219 H         1 VGH         0.0349
@<TRIPOS>BOND
     1    1    2 1  
     2    2    3 ar 
     3    2    7 ar 
     4    3    4 ar 
     5    4    5 ar 
     6    5    6 1  
     7    5    8 ar 
     8    7    8 ar 
     9    7   10 1  
    10    8    9 1  
    11   10   11 1  
    12   10   12 1  
    13   12   13 1  
    14   13   14 ar 
    15   13   15 ar 
    16   14   19 ar 
    17   15   16 1  
    18   15   17 ar 
    19   17   18 ar 
    20   18   19 ar 
    21   19   20 1  
    22   20   21 1  
    23   20   22 2  
    24   21   24 2  
    25   22   23 1  
    26   23   24 1  
    27   23   25 1  
    28   25   26 1  
    29   25   30 1  
    30   26   27 1  
    31   27   28 1  
    32   28   29 1  
    33   29   30 1  
    34    3   31 1  
    35    4   32 1  
    36   10   33 1  
    37   11   34 1  
    38   11   35 1  
    39   11   36 1  
    40   14   37 1  
    41   16   38 1  
    42   16   39 1  
    43   18   40 1  
    44   21   41 1  
    45   22   42 1  
    46   25   43 1  
    47   26   44 1  
    48   26   45 1  
    49   27   46 1  
    50   27   47 1  
    51   28   48 1  
    52   28   49 1  
    53   29   50 1  
    54   29   51 1  
    55   30   52 1  
    56   30   53 1  
@<TRIPOS>SUBSTRUCTURE
     1 VGH         1

