### 
### Created by X-TOOL on Mon Sep 10 21:13:24 2018
### 

@<TRIPOS>MOLECULE
5aad_ligand
   47    51     1     0     0
SMALL
GAST_HUCK


@<TRIPOS>ATOM
      1 CL         -6.3730   28.7330   75.9670 Cl        1 5GX        -0.0766
      2 C02        -5.4450   30.0080   76.5590 C.ar      1 5GX         0.0515
      3 C03        -5.2520   30.1460   77.9160 C.ar      1 5GX         0.0190
      4 C04        -5.9330   29.3290   79.0010 C.2       1 5GX         0.0082
      5 C05        -7.1450   28.6440   78.7600 C.2       1 5GX         0.0689
      6 N06        -7.5670   28.0750   79.9310 N.pl3     1 5GX        -0.1899
      7 C07        -8.8100   27.2490   79.9690 C.3       1 5GX         0.1062
      8 C08        -8.5280   25.7920   80.3280 C.ar      1 5GX        -0.0104
      9 C09        -7.4220   25.5620   81.1770 C.ar      1 5GX        -0.0575
     10 C10        -7.1270   24.2680   81.5760 C.ar      1 5GX        -0.0685
     11 C11        -7.9330   23.1830   81.1310 C.ar      1 5GX        -0.0687
     12 C12        -9.0470   23.4310   80.2880 C.ar      1 5GX        -0.0685
     13 C13        -9.3470   24.7500   79.8800 C.ar      1 5GX        -0.0575
     14 N14        -6.6840   28.4460   80.9750 N.2       1 5GX        -0.2102
     15 C15        -5.6690   29.2610   80.3850 C.2       1 5GX         0.0078
     16 C16        -4.4710   31.2700   78.3880 C.ar      1 5GX         0.1049
     17 N17        -4.1170   31.6920   79.7280 N.pl3     1 5GX        -0.2485
     18 C18        -3.3590   32.7710   79.5510 C.2       1 5GX         0.1264
     19 C19        -2.7330   33.5780   80.6250 C.2       1 5GX         0.0612
     20 C20        -1.8730   34.6510   80.2680 C.2       1 5GX         0.0746
     21 N21        -1.4780   35.1660   81.3870 N.pl3     1 5GX        -0.2083
     22 C22        -0.5820   36.2850   81.4510 C.3       1 5GX         0.0603
     23 N23        -2.0590   34.4490   82.5280 N.2       1 5GX        -0.2194
     24 C24        -2.8330   33.4740   82.0210 C.2       1 5GX         0.0272
     25 C25        -3.6290   32.5040   82.7800 C.3       1 5GX        -0.0246
     26 N26        -3.1800   33.0800   78.1350 N.2       1 5GX        -0.3061
     27 C27        -3.8760   32.1450   77.4090 C.ar      1 5GX         0.0830
     28 N28        -4.0350   31.9750   76.0910 N.ar      1 5GX        -0.3168
     29 C29        -4.8160   30.9290   75.6110 C.ar      1 5GX        -0.0026
     30 H1         -7.6582   28.5795   77.8016 H         1 5GX         0.1058
     31 H2         -9.2875   27.2830   78.9787 H         1 5GX         0.0810
     32 H3         -9.4930   27.6723   80.7202 H         1 5GX         0.0810
     33 H4         -6.8095   26.3907   81.5133 H         1 5GX         0.0558
     34 H5         -6.2811   24.0821   82.2279 H         1 5GX         0.0599
     35 H6         -7.6966   22.1698   81.4352 H         1 5GX         0.0559
     36 H7         -9.6688   22.6073   79.9565 H         1 5GX         0.0599
     37 H8        -10.1938   24.9503   79.2336 H         1 5GX         0.0558
     38 H9         -4.8433   29.7414   80.9079 H         1 5GX         0.0679
     39 H10        -4.3911   31.2542   80.6191 H         1 5GX         0.2312
     40 H11        -1.6030   34.9725   79.2632 H         1 5GX         0.1114
     41 H12        -0.3921   36.5429   82.5033 H         1 5GX         0.0605
     42 H13        -1.0343   37.1467   80.9382 H         1 5GX         0.0605
     43 H14         0.3672   36.0233   80.9606 H         1 5GX         0.0605
     44 H15        -3.4956   32.6831   83.8571 H         1 5GX         0.0387
     45 H16        -3.2970   31.4846   82.5339 H         1 5GX         0.0387
     46 H17        -4.6915   32.6168   82.5184 H         1 5GX         0.0387
     47 H18        -4.9576   30.7970   74.5444 H         1 5GX         0.0720
@<TRIPOS>BOND
     1    1    2 1  
     2    2    3 ar 
     3    2   29 ar 
     4    3    4 1  
     5    3   16 ar 
     6    4    5 2  
     7    4   15 1  
     8    5    6 1  
     9    6    7 1  
    10    6   14 1  
    11    7    8 1  
    12    8    9 ar 
    13    8   13 ar 
    14    9   10 ar 
    15   10   11 ar 
    16   11   12 ar 
    17   12   13 ar 
    18   14   15 2  
    19   16   17 1  
    20   16   27 ar 
    21   17   18 1  
    22   18   19 1  
    23   18   26 2  
    24   19   20 2  
    25   19   24 1  
    26   20   21 1  
    27   21   22 1  
    28   21   23 1  
    29   23   24 2  
    30   24   25 1  
    31   26   27 1  
    32   27   28 ar 
    33   28   29 ar 
    34    5   30 1  
    35    7   31 1  
    36    7   32 1  
    37    9   33 1  
    38   10   34 1  
    39   11   35 1  
    40   12   36 1  
    41   13   37 1  
    42   15   38 1  
    43   17   39 1  
    44   20   40 1  
    45   22   41 1  
    46   22   42 1  
    47   22   43 1  
    48   25   44 1  
    49   25   45 1  
    50   25   46 1  
    51   29   47 1  
@<TRIPOS>SUBSTRUCTURE
     1 5GX         1

