### 
### Created by X-TOOL on Mon Sep 10 21:13:25 2018
### 

@<TRIPOS>MOLECULE
5aae_ligand
   46    50     1     0     0
SMALL
GAST_HUCK


@<TRIPOS>ATOM
      1 C01         7.9840  -22.0850   -5.1100 C.3       1 7HD         0.0081
      2 C02         7.6280  -23.5220   -4.7400 C.2       1 7HD         0.1287
      3 C03         8.4210  -24.6520   -4.9400 C.2       1 7HD        -0.0300
      4 C04         7.7090  -25.7510   -4.4560 C.2       1 7HD         0.0438
      5 C05         8.1830  -27.2050   -4.4670 C.3       1 7HD         0.1080
      6 N06         7.0920  -28.0570   -4.8800 N.pl3     1 7HD        -0.1910
      7 C07         6.9650  -28.6420   -6.0940 C.2       1 7HD         0.0686
      8 C08         5.7720  -29.3820   -6.1130 C.2       1 7HD         0.0081
      9 C09         5.2190  -30.1600   -7.1720 C.ar      1 7HD         0.0190
     10 C10         5.4620  -29.8900   -8.5380 C.ar      1 7HD         0.0515
     11 CL          6.4900  -28.5720   -9.0730 Cl        1 7HD        -0.0766
     12 C12         4.8680  -30.7040   -9.5290 C.ar      1 7HD        -0.0026
     13 N13         4.0600  -31.7440   -9.1960 N.ar      1 7HD        -0.3168
     14 C14         3.7960  -32.0320   -7.8600 C.ar      1 7HD         0.0830
     15 N15         3.0190  -33.0190   -7.2480 N.2       1 7HD        -0.3061
     16 C16         3.0940  -32.8650   -5.9070 C.2       1 7HD         0.1264
     17 C17         2.4310  -33.6900   -4.9730 C.2       1 7HD         0.0612
     18 C18         1.6360  -34.7930   -5.3120 C.2       1 7HD         0.0746
     19 N19         1.1700  -35.3360   -4.1670 N.pl3     1 7HD        -0.2083
     20 C20         0.3110  -36.4930   -4.0920 C.3       1 7HD         0.0603
     21 N21         1.6340  -34.6220   -3.1150 N.2       1 7HD        -0.2194
     22 C22         2.4110  -33.6060   -3.5750 C.2       1 7HD         0.0272
     23 C23         3.1140  -32.5840   -2.6990 C.3       1 7HD        -0.0246
     24 N24         3.8990  -31.8060   -5.6400 N.pl3     1 7HD        -0.2485
     25 C25         4.3450  -31.2760   -6.8530 C.ar      1 7HD         0.1049
     26 C26         5.2140  -29.2090   -4.8480 C.2       1 7HD         0.0078
     27 N27         6.0280  -28.4010   -4.1210 N.2       1 7HD        -0.2104
     28 N28         6.5330  -25.3060   -3.9790 N.2       1 7HD        -0.1704
     29 O29         6.4750  -23.9310   -4.1500 O.3       1 7HD        -0.1811
     30 H1          8.9815  -22.0620   -5.5730 H         1 7HD         0.0449
     31 H2          7.9864  -21.4627   -4.2030 H         1 7HD         0.0449
     32 H3          7.2408  -21.6945   -5.8207 H         1 7HD         0.0449
     33 H4          9.4123  -24.6730   -5.3904 H         1 7HD         0.0259
     34 H5          8.5123  -27.4923   -3.4576 H         1 7HD         0.0792
     35 H6          9.0213  -27.3134   -5.1709 H         1 7HD         0.0792
     36 H7          7.6707  -28.5534   -6.9187 H         1 7HD         0.1058
     37 H8          5.0609  -30.4944  -10.5749 H         1 7HD         0.0720
     38 H9          1.4304  -35.1492   -6.3204 H         1 7HD         0.1114
     39 H10         0.0869  -36.7156   -3.0383 H         1 7HD         0.0605
     40 H11         0.8173  -37.3559   -4.5493 H         1 7HD         0.0605
     41 H12        -0.6260  -36.2896   -4.6311 H         1 7HD         0.0605
     42 H13         2.8959  -32.7954   -1.6418 H         1 7HD         0.0387
     43 H14         2.7558  -31.5754   -2.9526 H         1 7HD         0.0387
     44 H15         4.1994  -32.6410   -2.8680 H         1 7HD         0.0387
     45 H16         4.1401  -31.4531   -4.7029 H         1 7HD         0.2312
     46 H17         4.2804  -29.6487   -4.5002 H         1 7HD         0.0679
@<TRIPOS>BOND
     1    1    2 1  
     2    2    3 2  
     3    2   29 1  
     4    3    4 1  
     5    4    5 1  
     6    4   28 2  
     7    5    6 1  
     8    6    7 1  
     9    6   27 1  
    10    7    8 2  
    11    8    9 1  
    12    8   26 1  
    13    9   10 ar 
    14    9   25 ar 
    15   10   11 1  
    16   10   12 ar 
    17   12   13 ar 
    18   13   14 ar 
    19   14   15 1  
    20   14   25 ar 
    21   15   16 2  
    22   16   17 1  
    23   16   24 1  
    24   17   18 2  
    25   17   22 1  
    26   18   19 1  
    27   19   20 1  
    28   19   21 1  
    29   21   22 2  
    30   22   23 1  
    31   24   25 1  
    32   26   27 2  
    33   28   29 1  
    34    1   30 1  
    35    1   31 1  
    36    1   32 1  
    37    3   33 1  
    38    5   34 1  
    39    5   35 1  
    40    7   36 1  
    41   12   37 1  
    42   18   38 1  
    43   20   39 1  
    44   20   40 1  
    45   20   41 1  
    46   23   42 1  
    47   23   43 1  
    48   23   44 1  
    49   24   45 1  
    50   26   46 1  
@<TRIPOS>SUBSTRUCTURE
     1 7HD         1

