### 
### Created by X-TOOL on Mon Sep 10 21:13:25 2018
### 

@<TRIPOS>MOLECULE
5aaf_ligand
   57    61     1     0     0
SMALL
GAST_HUCK


@<TRIPOS>ATOM
      1 C01        -4.0420   32.8200    1.3250 C.3       1 NL4         0.0218
      2 N02        -5.2720   32.4400    0.7680 N.am      1 NL4        -0.2786
      3 C03        -6.3090   33.4380    0.6200 C.3       1 NL4         0.0218
      4 C04        -5.4730   31.0180    0.3480 C.2       1 NL4         0.2053
      5 O05        -4.5680   30.2450    0.5010 O.2       1 NL4        -0.3845
      6 C06        -6.7890   30.5010   -0.2740 C.ar      1 NL4         0.0434
      7 C07        -8.0130   30.5610    0.4410 C.ar      1 NL4        -0.0489
      8 C08        -9.1710   30.0890   -0.1320 C.ar      1 NL4        -0.0628
      9 C09        -9.1450   29.5340   -1.4180 C.ar      1 NL4        -0.0532
     10 C10        -7.9290   29.4570   -2.1380 C.ar      1 NL4        -0.0049
     11 C11        -7.9380   28.8420   -3.5380 C.3       1 NL4         0.1073
     12 N12        -6.7130   29.1040   -4.2650 N.pl3     1 NL4        -0.1891
     13 C13        -6.5830   29.9330   -5.3470 C.2       1 NL4         0.0700
     14 C14        -5.2740   29.8980   -5.7500 C.2       1 NL4         0.0073
     15 C15        -4.6840   30.6240   -6.8370 C.ar      1 NL4        -0.0041
     16 C16        -4.9370   30.2930   -8.1880 C.ar      1 NL4         0.0492
     17 CL1        -5.9760   28.9890   -8.5750 Cl        1 NL4        -0.0778
     18 C18        -4.3320   31.0380   -9.2350 C.ar      1 NL4        -0.0001
     19 N19        -3.5040   32.0810   -8.9230 N.ar      1 NL4        -0.2936
     20 C20        -3.2280   32.4400   -7.6010 C.ar      1 NL4         0.1428
     21 N21        -2.4400   33.4330   -7.0500 N.pl3     1 NL4        -0.2423
     22 C22        -2.5230   33.3410   -5.6840 C.2       1 NL4         0.1249
     23 C23        -1.8370   34.2100   -4.7650 C.2       1 NL4         0.0594
     24 C24        -0.8770   35.1500   -5.1190 C.2       1 NL4         0.0736
     25 N25        -0.4670   35.7710   -4.0020 N.pl3     1 NL4        -0.2089
     26 C26         0.5180   36.8090   -3.9410 C.3       1 NL4         0.0601
     27 N27        -1.1300   35.2630   -2.9530 N.2       1 NL4        -0.2197
     28 C28        -1.9740   34.3100   -3.3840 C.2       1 NL4         0.0266
     29 C29        -2.8900   33.5090   -2.4940 C.3       1 NL4        -0.0247
     30 N30        -3.3460   32.3110   -5.3670 N.2       1 NL4        -0.3147
     31 C31        -3.8000   31.7320   -6.5490 C.ar      1 NL4         0.0504
     32 C32        -4.6110   29.0220   -4.8780 C.2       1 NL4         0.0085
     33 N33        -5.5190   28.5610   -4.0060 N.2       1 NL4        -0.2096
     34 C34        -6.7650   29.9350   -1.5620 C.ar      1 NL4        -0.0378
     35 H1         -4.0677   33.8911    1.5744 H         1 NL4         0.0486
     36 H2         -3.2370   32.6318    0.5993 H         1 NL4         0.0486
     37 H3         -3.8567   32.2353    2.2381 H         1 NL4         0.0486
     38 H4         -7.2007   32.9764    0.1708 H         1 NL4         0.0486
     39 H5         -5.9482   34.2480   -0.0309 H         1 NL4         0.0486
     40 H6         -6.5667   33.8483    1.6075 H         1 NL4         0.0486
     41 H7         -8.0356   30.9796    1.4407 H         1 NL4         0.0611
     42 H8        -10.1062   30.1466    0.4130 H         1 NL4         0.0611
     43 H9        -10.0604   29.1618   -1.8636 H         1 NL4         0.0593
     44 H10        -8.7815   29.2643   -4.1038 H         1 NL4         0.0810
     45 H11        -8.0673   27.7536   -3.4447 H         1 NL4         0.0810
     46 H12        -7.3793   30.5170   -5.8061 H         1 NL4         0.1067
     47 H13        -4.5245   30.7826  -10.2708 H         1 NL4         0.0728
     48 H14        -1.8854   34.1239   -7.5753 H         1 NL4         0.2316
     49 H15        -0.5191   35.3485   -6.1282 H         1 NL4         0.1106
     50 H16         0.6504   37.1279   -2.8966 H         1 NL4         0.0604
     51 H17         0.1863   37.6653   -4.5465 H         1 NL4         0.0604
     52 H18         1.4738   36.4310   -4.3329 H         1 NL4         0.0604
     53 H19        -2.7593   33.8296   -1.4499 H         1 NL4         0.0386
     54 H20        -2.6452   32.4403   -2.5828 H         1 NL4         0.0386
     55 H21        -3.9339   33.6727   -2.7998 H         1 NL4         0.0386
     56 H22        -3.5534   28.7638   -4.9044 H         1 NL4         0.0682
     57 H23        -5.8295   29.8730   -2.1061 H         1 NL4         0.0608
@<TRIPOS>BOND
     1    1    2 1  
     2    2    3 1  
     3    2    4 am 
     4    4    5 2  
     5    4    6 1  
     6    6    7 ar 
     7    6   34 ar 
     8    7    8 ar 
     9    8    9 ar 
    10    9   10 ar 
    11   10   11 1  
    12   10   34 ar 
    13   11   12 1  
    14   12   13 1  
    15   12   33 1  
    16   13   14 2  
    17   14   15 1  
    18   14   32 1  
    19   15   16 ar 
    20   15   31 ar 
    21   16   17 1  
    22   16   18 ar 
    23   18   19 ar 
    24   19   20 ar 
    25   20   21 1  
    26   20   31 ar 
    27   21   22 1  
    28   22   23 1  
    29   22   30 2  
    30   23   24 2  
    31   23   28 1  
    32   24   25 1  
    33   25   26 1  
    34   25   27 1  
    35   27   28 2  
    36   28   29 1  
    37   30   31 1  
    38   32   33 2  
    39    1   35 1  
    40    1   36 1  
    41    1   37 1  
    42    3   38 1  
    43    3   39 1  
    44    3   40 1  
    45    7   41 1  
    46    8   42 1  
    47    9   43 1  
    48   11   44 1  
    49   11   45 1  
    50   13   46 1  
    51   18   47 1  
    52   21   48 1  
    53   24   49 1  
    54   26   50 1  
    55   26   51 1  
    56   26   52 1  
    57   29   53 1  
    58   29   54 1  
    59   29   55 1  
    60   32   56 1  
    61   34   57 1  
@<TRIPOS>SUBSTRUCTURE
     1 NL4         1

