### 
### Created by X-TOOL on Mon Sep 10 21:13:25 2018
### 

@<TRIPOS>MOLECULE
5aag_ligand
   67    72     1     0     0
SMALL
GAST_HUCK


@<TRIPOS>ATOM
      1 C01        -6.6390   31.8550    6.1420 C.3       1 6F2        -0.0429
      2 N02        -6.0520   31.6350    5.0790 N.4       1 6F2         0.2359
      3 C03        -5.6360   32.8260    4.4720 C.3       1 6F2        -0.0113
      4 C04        -4.9100   32.5690    3.1600 C.3       1 6F2         0.0735
      5 N05        -5.6170   31.7690    2.2990 N.am      1 6F2        -0.2623
      6 C06        -5.7870   32.1070    0.9020 C.2       1 6F2         0.2061
      7 O07        -5.3010   33.1280    0.4630 O.2       1 6F2        -0.3845
      8 C08        -6.5580   31.2130   -0.0700 C.ar      1 6F2         0.0434
      9 C09        -7.9440   31.2670   -0.1460 C.ar      1 6F2        -0.0489
     10 C10        -8.6280   30.4390   -1.0480 C.ar      1 6F2        -0.0628
     11 C11        -7.9140   29.5590   -1.8770 C.ar      1 6F2        -0.0532
     12 C12        -6.5330   29.4980   -1.7900 C.ar      1 6F2        -0.0049
     13 C13        -5.7520   28.5570   -2.6850 C.3       1 6F2         0.1073
     14 N14        -5.8850   29.0810   -4.0830 N.pl3     1 6F2        -0.1891
     15 C15        -4.9030   29.7020   -4.7700 C.2       1 6F2         0.0700
     16 C16        -5.4120   30.0560   -6.0390 C.2       1 6F2         0.0073
     17 C17        -4.7110   30.7280   -7.0640 C.ar      1 6F2        -0.0041
     18 C18        -4.8630   30.3970   -8.4260 C.ar      1 6F2         0.0492
     19 CL         -5.9230   29.1270   -8.9620 Cl        1 6F2        -0.0778
     20 C20        -4.1370   31.1140   -9.4030 C.ar      1 6F2        -0.0001
     21 N21        -3.3010   32.1050   -9.0670 N.ar      1 6F2        -0.2936
     22 C22        -3.1270   32.4580   -7.7380 C.ar      1 6F2         0.1428
     23 N23        -2.3450   33.4230   -7.1290 N.pl3     1 6F2        -0.2423
     24 C24        -2.5360   33.3580   -5.7830 C.2       1 6F2         0.1249
     25 C25        -1.8810   34.2100   -4.8540 C.2       1 6F2         0.0594
     26 C26        -1.0120   35.2540   -5.2080 C.2       1 6F2         0.0736
     27 N27        -0.5770   35.8400   -4.0830 N.pl3     1 6F2        -0.2089
     28 C28         0.3340   36.9590   -4.0230 C.3       1 6F2         0.0601
     29 N29        -1.1330   35.2090   -3.0180 N.2       1 6F2        -0.2197
     30 C30        -1.9330   34.2100   -3.4620 C.2       1 6F2         0.0266
     31 C31        -2.7260   33.2780   -2.5690 C.3       1 6F2        -0.0247
     32 N32        -3.4290   32.3690   -5.5310 N.2       1 6F2        -0.3147
     33 C33        -3.8140   31.7910   -6.7410 C.ar      1 6F2         0.0504
     34 C34        -6.7300   29.6360   -6.0560 C.2       1 6F2         0.0085
     35 N35        -6.9930   29.0380   -4.8490 N.2       1 6F2        -0.2096
     36 C36        -5.8480   30.3310   -0.8940 C.ar      1 6F2        -0.0378
     37 C37        -6.1170   30.6340    2.8770 C.3       1 6F2         0.0735
     38 C38        -6.8390   30.8810    4.2010 C.3       1 6F2        -0.0113
     39 H1         -5.9901   32.4481    6.8032 H         1 6F2         0.0778
     40 H2         -6.8847   30.9001    6.6297 H         1 6F2         0.0778
     41 H3         -7.5654   32.4129    5.9407 H         1 6F2         0.0778
     42 H4         -5.2282   31.0948    5.2925 H         1 6F2         0.2032
     43 H5         -4.9573   33.3561    5.1563 H         1 6F2         0.0834
     44 H6         -6.5188   33.4516    4.2736 H         1 6F2         0.0834
     45 H7         -3.9495   32.0809    3.3817 H         1 6F2         0.0575
     46 H8         -4.7253   33.5351    2.6675 H         1 6F2         0.0575
     47 H9         -8.4963   31.9483    0.4911 H         1 6F2         0.0611
     48 H10        -9.7098   30.4785   -1.1052 H         1 6F2         0.0611
     49 H11        -8.4423   28.9289   -2.5834 H         1 6F2         0.0593
     50 H12        -6.1673   27.5405   -2.6203 H         1 6F2         0.0810
     51 H13        -4.6936   28.5405   -2.3857 H         1 6F2         0.0810
     52 H14        -3.8942   29.8962   -4.4088 H         1 6F2         0.1067
     53 H15        -4.2594   30.8562  -10.4488 H         1 6F2         0.0728
     54 H16        -1.7205   34.0826   -7.6146 H         1 6F2         0.2316
     55 H17        -0.7380   35.5392   -6.2226 H         1 6F2         0.1106
     56 H18         0.5141   37.2292   -2.9720 H         1 6F2         0.0604
     57 H19        -0.1046   37.8177   -4.5523 H         1 6F2         0.0604
     58 H20         1.2864   36.6824   -4.4988 H         1 6F2         0.0604
     59 H21        -2.5503   33.5418   -1.5157 H         1 6F2         0.0386
     60 H22        -2.4058   32.2405   -2.7454 H         1 6F2         0.0386
     61 H23        -3.7976   33.3749   -2.7974 H         1 6F2         0.0386
     62 H24        -7.4325   29.7580   -6.8791 H         1 6F2         0.0682
     63 H25        -4.7661   30.2922   -0.8390 H         1 6F2         0.0608
     64 H26        -5.2819   29.9423    3.0616 H         1 6F2         0.0575
     65 H27        -6.8276   30.1721    2.1758 H         1 6F2         0.0575
     66 H28        -7.7746   31.4244    4.0024 H         1 6F2         0.0834
     67 H29        -7.0696   29.9126    4.6689 H         1 6F2         0.0834
@<TRIPOS>BOND
     1    1    2 1  
     2    2    3 1  
     3    2   38 1  
     4    3    4 1  
     5    4    5 1  
     6    5    6 am 
     7    5   37 1  
     8    6    7 2  
     9    6    8 1  
    10    8    9 ar 
    11    8   36 ar 
    12    9   10 ar 
    13   10   11 ar 
    14   11   12 ar 
    15   12   13 1  
    16   12   36 ar 
    17   13   14 1  
    18   14   15 1  
    19   14   35 1  
    20   15   16 2  
    21   16   17 1  
    22   16   34 1  
    23   17   18 ar 
    24   17   33 ar 
    25   18   19 1  
    26   18   20 ar 
    27   20   21 ar 
    28   21   22 ar 
    29   22   23 1  
    30   22   33 ar 
    31   23   24 1  
    32   24   25 1  
    33   24   32 2  
    34   25   26 2  
    35   25   30 1  
    36   26   27 1  
    37   27   28 1  
    38   27   29 1  
    39   29   30 2  
    40   30   31 1  
    41   32   33 1  
    42   34   35 2  
    43   37   38 1  
    44    1   39 1  
    45    1   40 1  
    46    1   41 1  
    47    2   42 1  
    48    3   43 1  
    49    3   44 1  
    50    4   45 1  
    51    4   46 1  
    52    9   47 1  
    53   10   48 1  
    54   11   49 1  
    55   13   50 1  
    56   13   51 1  
    57   15   52 1  
    58   20   53 1  
    59   23   54 1  
    60   26   55 1  
    61   28   56 1  
    62   28   57 1  
    63   28   58 1  
    64   31   59 1  
    65   31   60 1  
    66   31   61 1  
    67   34   62 1  
    68   36   63 1  
    69   37   64 1  
    70   37   65 1  
    71   38   66 1  
    72   38   67 1  
@<TRIPOS>SUBSTRUCTURE
     1 6F2         1

