### 
### Created by X-TOOL on Mon Sep 10 21:13:32 2018
### 

@<TRIPOS>MOLECULE
5aan_ligand
   46    49     1     0     0
SMALL
GAST_HUCK


@<TRIPOS>ATOM
      1 C1         -7.3860   -1.8160   10.5610 C.ar      1 XOC         0.0529
      2 C2         -7.3000   -0.4370   10.3860 C.ar      1 XOC        -0.0578
      3 C3         -7.2870    0.3750   11.5130 C.ar      1 XOC        -0.0802
      4 C4         -7.3500   -0.2040   12.7810 C.ar      1 XOC        -0.0794
      5 C5         -7.4300   -1.5850   12.9480 C.ar      1 XOC        -0.0428
      6 C6         -7.4540   -2.4000   11.8160 C.ar      1 XOC         0.1007
      7 C7         -6.3550   -4.3730   11.2220 C.ar      1 XOC         0.1007
      8 C8         -5.4130   -5.1970   11.8450 C.ar      1 XOC        -0.0428
      9 C9         -4.3140   -5.6430   11.1090 C.ar      1 XOC        -0.0794
     10 C10        -4.1360   -5.2680    9.7840 C.ar      1 XOC        -0.0802
     11 C11        -5.0650   -4.4390    9.1600 C.ar      1 XOC        -0.0578
     12 C12        -6.1650   -4.0060    9.8930 C.ar      1 XOC         0.0529
     13 C13        -8.0630   -5.5780   13.4210 C.2       1 XOC         0.2449
     14 C14        -9.1020   -6.6970   13.4480 C.3       1 XOC         0.0600
     15 C15        -7.8190   -8.5570   14.2560 C.3       1 XOC        -0.0301
     16 C16        -7.4080   -9.9980   14.0550 C.3       1 XOC        -0.0123
     17 C17        -7.4450  -10.2840   12.6010 C.3       1 XOC        -0.0434
     18 C18        -8.9010  -10.1930   12.1630 C.3       1 XOC        -0.0123
     19 C19        -9.5760   -8.9650   12.7180 C.3       1 XOC        -0.0301
     20 N1         -7.5050   -3.8190   11.8460 N.pl3     1 XOC        -0.1598
     21 N2         -8.4270   -4.5220   12.6700 N.am      1 XOC        -0.1665
     22 N3         -8.5450   -8.0050   13.0860 N.4       1 XOC         0.2521
     23 O2         -7.0140   -5.6730   14.0630 O.2       1 XOC        -0.3890
     24 S1         -7.3860   -2.9370    9.2020 S.3       1 XOC        -0.0557
     25 H1         -7.2444   -0.0069    9.3925 H         1 XOC         0.0529
     26 H2         -7.2282    1.4523   11.4080 H         1 XOC         0.0494
     27 H3         -7.3364    0.4353   13.6563 H         1 XOC         0.0529
     28 H4         -7.4729   -2.0187   13.9405 H         1 XOC         0.0503
     29 H5         -5.5341   -5.4849   12.8830 H         1 XOC         0.0503
     30 H6         -3.5864   -6.2938   11.5803 H         1 XOC         0.0529
     31 H7         -3.2715   -5.6215    9.2337 H         1 XOC         0.0494
     32 H8         -4.9338   -4.1381    8.1269 H         1 XOC         0.0529
     33 H9         -9.9035   -6.4484   12.7369 H         1 XOC         0.1063
     34 H10        -9.5200   -6.7629   14.4633 H         1 XOC         0.1063
     35 H11        -6.9157   -7.9531   14.4277 H         1 XOC         0.0815
     36 H12        -8.4736   -8.4966   15.1379 H         1 XOC         0.0815
     37 H13        -8.1061  -10.6631   14.5845 H         1 XOC         0.0317
     38 H14        -6.3896  -10.1534   14.4406 H         1 XOC         0.0317
     39 H15        -7.0546  -11.2935   12.4050 H         1 XOC         0.0269
     40 H16        -6.8401   -9.5446   12.0556 H         1 XOC         0.0269
     41 H17        -9.4365  -11.0854   12.5191 H         1 XOC         0.0317
     42 H18        -8.9408  -10.1555   11.0644 H         1 XOC         0.0317
     43 H19       -10.1675   -9.2344   13.6055 H         1 XOC         0.0815
     44 H20       -10.2372   -8.5271   11.9557 H         1 XOC         0.0815
     45 H21        -9.3803   -4.2207   12.6921 H         1 XOC         0.2203
     46 H22        -7.9101   -7.8874   12.3119 H         1 XOC         0.2053
@<TRIPOS>BOND
     1    1    2 ar 
     2    6    1 ar 
     3    1   24 1  
     4    2    3 ar 
     5    4    3 ar 
     6    5    4 ar 
     7    6    5 ar 
     8   20    6 1  
     9    7    8 ar 
    10    7   12 ar 
    11   20    7 1  
    12    8    9 ar 
    13    9   10 ar 
    14   11   10 ar 
    15   12   11 ar 
    16   12   24 1  
    17   13   14 1  
    18   21   13 am 
    19   13   23 2  
    20   14   22 1  
    21   15   16 1  
    22   22   15 1  
    23   16   17 1  
    24   18   17 1  
    25   19   18 1  
    26   22   19 1  
    27   20   21 1  
    28    2   25 1  
    29    3   26 1  
    30    4   27 1  
    31    5   28 1  
    32    8   29 1  
    33    9   30 1  
    34   10   31 1  
    35   11   32 1  
    36   14   33 1  
    37   14   34 1  
    38   15   35 1  
    39   15   36 1  
    40   16   37 1  
    41   16   38 1  
    42   17   39 1  
    43   17   40 1  
    44   18   41 1  
    45   18   42 1  
    46   19   43 1  
    47   19   44 1  
    48   21   45 1  
    49   22   46 1  
@<TRIPOS>SUBSTRUCTURE
     1 XOC         1

