### 
### Created by X-TOOL on Mon Sep 10 21:13:20 2018
### 

@<TRIPOS>MOLECULE
5ab9_ligand
   38    40     1     0     0
SMALL
GAST_HUCK


@<TRIPOS>ATOM
      1 C1         93.7580   92.0400  -41.5680 C.3       1 92O        -0.0566
      2 N1         91.9890   95.1010  -40.9440 N.pl3     1 92O        -0.2912
      3 C2         92.2620   92.1210  -41.6260 C.3       1 92O        -0.0245
      4 N2         90.7080  100.2510  -44.6660 N.4       1 92O         0.2271
      5 C3         91.8830   93.2420  -42.5880 C.ar      1 92O        -0.0244
      6 C4         91.6320   93.0080  -43.9470 C.ar      1 92O        -0.0758
      7 C5         91.2990   94.0570  -44.8110 C.ar      1 92O        -0.0873
      8 C6         91.2160   95.3690  -44.3570 C.ar      1 92O        -0.0826
      9 C7         91.4620   95.6580  -43.0130 C.ar      1 92O        -0.0277
     10 C8         91.4670   96.8260  -42.2510 C.2       1 92O        -0.0449
     11 C9         91.8000   96.4440  -40.9680 C.2       1 92O         0.0156
     12 C10        91.7930   94.5820  -42.1680 C.ar      1 92O         0.0638
     13 C11        91.1910   98.2520  -42.6920 C.3       1 92O        -0.0152
     14 C12        92.2520   98.7030  -43.6360 C.3       1 92O        -0.0053
     15 C13        92.0360  100.1240  -44.0780 C.3       1 92O        -0.0323
     16 C14        89.6340   99.8180  -43.7800 C.3       1 92O        -0.0323
     17 C15        89.8580   98.4040  -43.3350 C.3       1 92O        -0.0053
     18 H1         94.0552   91.2362  -40.8784 H         1 92O         0.0250
     19 H2         94.1635   92.9981  -41.2108 H         1 92O         0.0250
     20 H3         94.1529   91.8262  -42.5722 H         1 92O         0.0250
     21 H4         92.2458   94.5572  -40.1078 H         1 92O         0.2205
     22 H5         91.8616   92.3382  -40.6248 H         1 92O         0.0408
     23 H6         91.8510   91.1664  -41.9861 H         1 92O         0.0408
     24 H7         90.6754   99.6912  -45.5036 H         1 92O         0.2013
     25 H8         90.5553  101.2189  -44.9025 H         1 92O         0.2013
     26 H9         91.6969   91.9979  -44.3350 H         1 92O         0.0456
     27 H10        91.1017   93.8428  -45.8552 H         1 92O         0.0490
     28 H11        90.9607   96.1663  -45.0456 H         1 92O         0.0473
     29 H12        91.8956   97.1121  -40.1133 H         1 92O         0.0793
     30 H13        91.2160   98.8955  -41.8003 H         1 92O         0.0387
     31 H14        92.2434   98.0494  -44.5207 H         1 92O         0.0333
     32 H15        93.2289   98.6300  -43.1356 H         1 92O         0.0333
     33 H16        92.1190  100.7950  -43.2103 H         1 92O         0.0815
     34 H17        92.7960  100.3955  -44.8255 H         1 92O         0.0815
     35 H18        88.6753   99.8813  -44.3156 H         1 92O         0.0815
     36 H19        89.6054  100.4747  -42.8980 H         1 92O         0.0815
     37 H20        89.0764   98.1262  -42.6126 H         1 92O         0.0333
     38 H21        89.8024   97.7388  -44.2093 H         1 92O         0.0333
@<TRIPOS>BOND
     1    3    1 1  
     2   11    2 1  
     3    2   12 1  
     4    5    3 1  
     5   15    4 1  
     6    4   16 1  
     7    5    6 ar 
     8   12    5 ar 
     9    7    6 ar 
    10    8    7 ar 
    11    9    8 ar 
    12   10    9 1  
    13    9   12 ar 
    14   10   11 2  
    15   13   10 1  
    16   14   13 1  
    17   13   17 1  
    18   14   15 1  
    19   16   17 1  
    20    1   18 1  
    21    1   19 1  
    22    1   20 1  
    23    2   21 1  
    24    3   22 1  
    25    3   23 1  
    26    4   24 1  
    27    4   25 1  
    28    6   26 1  
    29    7   27 1  
    30    8   28 1  
    31   11   29 1  
    32   13   30 1  
    33   14   31 1  
    34   14   32 1  
    35   15   33 1  
    36   15   34 1  
    37   16   35 1  
    38   16   36 1  
    39   17   37 1  
    40   17   38 1  
@<TRIPOS>SUBSTRUCTURE
     1 92O         1

