### 
### Created by X-TOOL on Mon Sep 10 21:13:23 2018
### 

@<TRIPOS>MOLECULE
5aba_ligand
   49    51     1     0     0
SMALL
GAST_HUCK


@<TRIPOS>ATOM
      1 N          91.9740  102.1130  -44.1350 N.4       1 UL7         0.2378
      2 C          92.5260  102.9860  -45.2470 C.3       1 UL7        -0.0293
      3 C01        90.9830   93.2880  -44.7730 C.ar      1 UL7         0.0248
      4 C1         90.4210   95.6370  -44.5230 C.ar      1 UL7         0.0339
      5 N1         90.4610   98.1210  -44.4940 N.4       1 UL7         0.2460
      6 O1         90.7450   96.7630  -42.4330 O.3       1 UL7        -0.3341
      7 C02        91.3910   93.2560  -43.4310 C.ar      1 UL7        -0.0541
      8 C2         89.8890   96.8980  -45.1370 C.3       1 UL7         0.0011
      9 C03        91.8070   98.3810  -45.1010 C.3       1 UL7        -0.0255
     10 C3         90.4980   94.4860  -45.3130 C.ar      1 UL7        -0.0471
     11 C04        92.9380  102.0230  -42.9700 C.3       1 UL7        -0.0293
     12 C4         91.3190   94.4140  -42.6440 C.ar      1 UL7         0.0349
     13 C05        93.0910  103.4210  -42.3820 C.3       1 UL7         0.0137
     14 C06        93.6740  104.3510  -43.4350 C.3       1 UL7         0.0649
     15 O          93.7370  105.6620  -42.9020 O.3       1 UL7        -0.3914
     16 C07        92.8110  104.3750  -44.6910 C.3       1 UL7         0.0137
     17 C7         90.8310   95.6090  -43.1800 C.ar      1 UL7         0.1050
     18 C10        91.4280  100.7910  -44.6550 C.3       1 UL7        -0.0111
     19 C15        90.1100  100.4770  -43.9500 C.3       1 UL7         0.0307
     20 C16        89.4850   99.2670  -44.6070 C.3       1 UL7        -0.0255
     21 CL         91.0530   91.9000  -45.7820 Cl        1 UL7        -0.0821
     22 BR         91.8670   94.3200  -40.8420 Br        1 UL7        -0.0600
     23 C8         92.4220   99.6330  -44.5020 C.3       1 UL7         0.0307
     24 H1         91.1702  102.6024  -43.7739 H         1 UL7         0.2036
     25 H2         91.7885  103.0583  -46.0599 H         1 UL7         0.0815
     26 H3         93.4566  102.5456  -45.6343 H         1 UL7         0.0815
     27 H4         90.5970   97.9368  -43.5124 H         1 UL7         0.2046
     28 H5         91.0551   96.5921  -41.5514 H         1 UL7         0.2473
     29 H6         91.7631   92.3330  -43.0013 H         1 UL7         0.0565
     30 H7         88.7952   96.9150  -45.0213 H         1 UL7         0.0956
     31 H8         90.1448   96.9071  -46.2068 H         1 UL7         0.0956
     32 H9         91.6955   98.5154  -46.1870 H         1 UL7         0.0816
     33 H10        92.4661   97.5228  -44.9035 H         1 UL7         0.0816
     34 H11        90.1807   94.5209  -46.3489 H         1 UL7         0.0556
     35 H12        93.9140  101.6554  -43.3196 H         1 UL7         0.0815
     36 H13        92.5399  101.3378  -42.2071 H         1 UL7         0.0815
     37 H14        93.7647  103.3821  -41.5133 H         1 UL7         0.0342
     38 H15        92.1064  103.7960  -42.0659 H         1 UL7         0.0342
     39 H16        94.6858  104.0091  -43.6983 H         1 UL7         0.0597
     40 H17        94.1003  106.2504  -43.5534 H         1 UL7         0.2098
     41 H18        91.8531  104.8582  -44.4483 H         1 UL7         0.0342
     42 H19        93.3321  104.9608  -45.4626 H         1 UL7         0.0342
     43 H20        91.2230  100.9108  -45.7291 H         1 UL7         0.0855
     44 H21        89.4301  101.3374  -44.0360 H         1 UL7         0.0372
     45 H22        90.3000  100.2645  -42.8876 H         1 UL7         0.0372
     46 H23        88.5450   99.0089  -44.0973 H         1 UL7         0.0816
     47 H24        89.2809   99.4809  -45.6665 H         1 UL7         0.0816
     48 H25        93.3564   99.8752  -45.0295 H         1 UL7         0.0372
     49 H26        92.6353   99.4669  -43.4358 H         1 UL7         0.0372
@<TRIPOS>BOND
     1    1    2 1  
     2    1   11 1  
     3   18    1 1  
     4    2   16 1  
     5    3    7 ar 
     6   10    3 ar 
     7    3   21 1  
     8    8    4 1  
     9    4   10 ar 
    10    4   17 ar 
    11    5    8 1  
    12    9    5 1  
    13    5   20 1  
    14   17    6 1  
    15   12    7 ar 
    16   23    9 1  
    17   11   13 1  
    18   17   12 ar 
    19   12   22 1  
    20   13   14 1  
    21   14   15 1  
    22   16   14 1  
    23   18   19 1  
    24   18   23 1  
    25   19   20 1  
    26    1   24 1  
    27    2   25 1  
    28    2   26 1  
    29    5   27 1  
    30    6   28 1  
    31    7   29 1  
    32    8   30 1  
    33    8   31 1  
    34    9   32 1  
    35    9   33 1  
    36   10   34 1  
    37   11   35 1  
    38   11   36 1  
    39   13   37 1  
    40   13   38 1  
    41   14   39 1  
    42   15   40 1  
    43   16   41 1  
    44   16   42 1  
    45   18   43 1  
    46   19   44 1  
    47   19   45 1  
    48   20   46 1  
    49   20   47 1  
    50   23   48 1  
    51   23   49 1  
@<TRIPOS>SUBSTRUCTURE
     1 UL7         1

