### 
### Created by X-TOOL on Mon Sep 10 21:13:24 2018
### 

@<TRIPOS>MOLECULE
5abe_ligand
   46    46     1     0     0
SMALL
GAST_HUCK


@<TRIPOS>ATOM
      1 O13        27.9750   51.9700  245.2940 O.2       1 XQO        -0.3969
      2 C12        29.1830   51.7760  245.1630 C.2       1 XQO         0.1813
      3 N14        29.8380   51.7280  244.0040 N.am      1 XQO        -0.2899
      4 C15        29.1590   51.8980  242.7320 C.3       1 XQO         0.0196
      5 C11        29.9970   51.4990  246.4020 C.3       1 XQO         0.0826
      6 C3         29.0810   50.5050  247.1050 C.3       1 XQO         0.0256
      7 C4         29.7880   49.6720  248.1210 C.3       1 XQO         0.1308
      8 O21        30.7070   48.7410  247.5220 O.3       1 XQO        -0.3832
      9 C5         28.5860   49.0790  248.8550 C.3       1 XQO         0.1309
     10 O20        28.3420   47.7450  248.4510 O.3       1 XQO        -0.3833
     11 C6         27.3490   49.8820  248.4960 C.3       1 XQO         0.0324
     12 C18        26.4300   50.1170  249.6830 C.3       1 XQO         0.0894
     13 O19        25.7130   48.8960  249.7950 O.3       1 XQO        -0.3894
     14 N2         27.8890   51.0790  247.8200 N.4       1 XQO         0.2466
     15 C1         28.0400   52.3240  248.6410 C.3       1 XQO        -0.0310
     16 C7         28.9240   52.4140  249.8840 C.3       1 XQO        -0.0125
     17 C8         28.5820   53.7250  250.6210 C.3       1 XQO        -0.0485
     18 C9         29.7930   54.3610  251.3040 C.3       1 XQO        -0.0557
     19 C10        29.4140   55.6290  252.0480 C.3       1 XQO        -0.0653
     20 H1         30.8255   51.5704  244.0103 H         1 XQO         0.1847
     21 H2         29.8896   51.8214  241.9133 H         1 XQO         0.0484
     22 H3         28.6776   52.8866  242.7025 H         1 XQO         0.0484
     23 H4         28.3954   51.1147  242.6164 H         1 XQO         0.0484
     24 H5         30.1493   52.4083  247.0019 H         1 XQO         0.0560
     25 H6         30.9725   51.0529  246.1581 H         1 XQO         0.0560
     26 H7         28.7019   49.8358  246.3185 H         1 XQO         0.0904
     27 H8         30.3662   50.3066  248.8087 H         1 XQO         0.0680
     28 H9         30.2319   48.1575  246.9420 H         1 XQO         0.2102
     29 H10        28.7643   49.1144  249.9399 H         1 XQO         0.0679
     30 H11        27.5912   47.4046  248.9232 H         1 XQO         0.2102
     31 H12        26.7604   49.3145  247.7601 H         1 XQO         0.0901
     32 H13        25.7470   50.9576  249.4910 H         1 XQO         0.0614
     33 H14        27.0103   50.3171  250.5958 H         1 XQO         0.0614
     34 H15        26.3237   48.1841  249.9457 H         1 XQO         0.2097
     35 H16        27.2256   51.3427  247.1083 H         1 XQO         0.2043
     36 H17        27.0257   52.5890  248.9741 H         1 XQO         0.0815
     37 H18        28.4126   53.0954  247.9510 H         1 XQO         0.0815
     38 H19        29.9836   52.4179  249.5886 H         1 XQO         0.0317
     39 H20        28.7300   51.5545  250.5426 H         1 XQO         0.0317
     40 H21        27.8218   53.5088  251.3861 H         1 XQO         0.0267
     41 H22        28.1750   54.4410  249.8918 H         1 XQO         0.0267
     42 H23        30.5452   54.6069  250.5400 H         1 XQO         0.0263
     43 H24        30.2182   53.6414  252.0190 H         1 XQO         0.0263
     44 H25        30.3088   56.0558  252.5245 H         1 XQO         0.0230
     45 H26        28.6658   55.3922  252.8188 H         1 XQO         0.0230
     46 H27        28.9929   56.3577  251.3398 H         1 XQO         0.0230
@<TRIPOS>BOND
     1    1    2 2  
     2    2    3 am 
     3    2    5 1  
     4    3    4 1  
     5    5    6 1  
     6    6    7 1  
     7    6   14 1  
     8    7    8 1  
     9    7    9 1  
    10    9   10 1  
    11    9   11 1  
    12   11   12 1  
    13   11   14 1  
    14   12   13 1  
    15   14   15 1  
    16   15   16 1  
    17   16   17 1  
    18   17   18 1  
    19   18   19 1  
    20    3   20 1  
    21    4   21 1  
    22    4   22 1  
    23    4   23 1  
    24    5   24 1  
    25    5   25 1  
    26    6   26 1  
    27    7   27 1  
    28    8   28 1  
    29    9   29 1  
    30   10   30 1  
    31   11   31 1  
    32   12   32 1  
    33   12   33 1  
    34   13   34 1  
    35   14   35 1  
    36   15   36 1  
    37   15   37 1  
    38   16   38 1  
    39   16   39 1  
    40   17   40 1  
    41   17   41 1  
    42   18   42 1  
    43   18   43 1  
    44   19   44 1  
    45   19   45 1  
    46   19   46 1  
@<TRIPOS>SUBSTRUCTURE
     1 XQO         1

