### 
### Created by X-TOOL on Mon Sep 10 21:13:24 2018
### 

@<TRIPOS>MOLECULE
5abf_ligand
   46    46     1     0     0
SMALL
GAST_HUCK


@<TRIPOS>ATOM
      1 O13        27.6400   53.0050  246.0540 O.2       1 XRJ        -0.3969
      2 C12        28.7340   52.4720  245.9830 C.2       1 XRJ         0.1813
      3 N14        29.3230   52.1630  244.8310 N.am      1 XRJ        -0.2899
      4 C15        28.6980   52.4570  243.5590 C.3       1 XRJ         0.0196
      5 C11        29.4700   52.1270  247.2490 C.3       1 XRJ         0.0826
      6 C3         28.5500   51.1630  247.9960 C.3       1 XRJ         0.0256
      7 C4         29.2470   49.9360  248.5670 C.3       1 XRJ         0.1308
      8 O21        30.6030   50.2120  248.9180 O.3       1 XRJ        -0.3832
      9 C5         28.4060   49.5770  249.7790 C.3       1 XRJ         0.1309
     10 O20        28.0350   48.2030  249.7430 O.3       1 XRJ        -0.3833
     11 C6         27.1970   50.5070  249.6730 C.3       1 XRJ         0.0324
     12 C18        26.3690   50.7290  250.9430 C.3       1 XRJ         0.0894
     13 O19        26.9060   50.0150  252.0590 O.3       1 XRJ        -0.3894
     14 N2         27.7840   51.7390  249.1230 N.4       1 XRJ         0.2466
     15 C1         28.6330   52.3850  250.1420 C.3       1 XRJ        -0.0310
     16 C7         28.1190   53.7730  250.4890 C.3       1 XRJ        -0.0125
     17 C8         28.5800   54.1320  251.8970 C.3       1 XRJ        -0.0485
     18 C9         28.9070   55.6100  252.0520 C.3       1 XRJ        -0.0557
     19 C10        27.6750   56.4090  252.4090 C.3       1 XRJ        -0.0653
     20 H1         30.2181   51.7174  244.8441 H         1 XRJ         0.1847
     21 H2         29.3529   52.1197  242.7421 H         1 XRJ         0.0484
     22 H3         28.5335   53.5412  243.4732 H         1 XRJ         0.0484
     23 H4         27.7327   51.9334  243.4950 H         1 XRJ         0.0484
     24 H5         29.6506   53.0311  247.8490 H         1 XRJ         0.0560
     25 H6         30.4301   51.6427  247.0175 H         1 XRJ         0.0560
     26 H7         27.8210   50.8139  247.2499 H         1 XRJ         0.0904
     27 H8         29.2327   49.1139  247.8363 H         1 XRJ         0.0680
     28 H9         31.0042   49.4259  249.2695 H         1 XRJ         0.2102
     29 H10        28.9599   49.7744  250.7086 H         1 XRJ         0.0679
     30 H11        27.5103   47.9977  250.5079 H         1 XRJ         0.2102
     31 H12        26.5045   50.0829  248.9310 H         1 XRJ         0.0901
     32 H13        25.3401   50.3847  250.7619 H         1 XRJ         0.0614
     33 H14        26.3600   51.8034  251.1788 H         1 XRJ         0.0614
     34 H15        26.9121   49.0850  251.8653 H         1 XRJ         0.2097
     35 H16        27.0838   52.3896  248.8028 H         1 XRJ         0.2043
     36 H17        29.6585   52.4694  249.7531 H         1 XRJ         0.0815
     37 H18        28.6355   51.7660  251.0513 H         1 XRJ         0.0815
     38 H19        27.0198   53.7810  250.4470 H         1 XRJ         0.0317
     39 H20        28.5187   54.5049  249.7717 H         1 XRJ         0.0317
     40 H21        29.4810   53.5463  252.1318 H         1 XRJ         0.0267
     41 H22        27.7794   53.8731  252.6056 H         1 XRJ         0.0267
     42 H23        29.3171   55.9879  251.1039 H         1 XRJ         0.0263
     43 H24        29.6555   55.7300  252.8490 H         1 XRJ         0.0263
     44 H25        27.9440   57.4704  252.5137 H         1 XRJ         0.0230
     45 H26        27.2613   56.0402  253.3592 H         1 XRJ         0.0230
     46 H27        26.9229   56.2981  251.6140 H         1 XRJ         0.0230
@<TRIPOS>BOND
     1    1    2 2  
     2    2    3 am 
     3    2    5 1  
     4    3    4 1  
     5    5    6 1  
     6    6    7 1  
     7    6   14 1  
     8    7    8 1  
     9    7    9 1  
    10    9   10 1  
    11    9   11 1  
    12   11   12 1  
    13   11   14 1  
    14   12   13 1  
    15   14   15 1  
    16   15   16 1  
    17   16   17 1  
    18   17   18 1  
    19   18   19 1  
    20    3   20 1  
    21    4   21 1  
    22    4   22 1  
    23    4   23 1  
    24    5   24 1  
    25    5   25 1  
    26    6   26 1  
    27    7   27 1  
    28    8   28 1  
    29    9   29 1  
    30   10   30 1  
    31   11   31 1  
    32   12   32 1  
    33   12   33 1  
    34   13   34 1  
    35   14   35 1  
    36   15   36 1  
    37   15   37 1  
    38   16   38 1  
    39   16   39 1  
    40   17   40 1  
    41   17   41 1  
    42   18   42 1  
    43   18   43 1  
    44   19   44 1  
    45   19   45 1  
    46   19   46 1  
@<TRIPOS>SUBSTRUCTURE
     1 XRJ         1

