### 
### Created by X-TOOL on Mon Sep 10 21:13:24 2018
### 

@<TRIPOS>MOLECULE
5abg_ligand
   50    51     1     0     0
SMALL
GAST_HUCK


@<TRIPOS>ATOM
      1 C1         27.7720   52.6430  250.4680 C.3       1 V0N        -0.0292
      2 C2         27.8560   54.7080  251.8020 C.3       1 V0N        -0.0162
      3 N2         27.9400   51.9610  249.1700 N.4       1 V0N         0.2467
      4 C3         29.3850   51.7390  248.9040 C.3       1 V0N         0.0257
      5 C4         29.6140   50.2310  248.8710 C.3       1 V0N         0.1308
      6 C5         28.4620   49.7490  249.7160 C.3       1 V0N         0.1309
      7 C6         27.3310   50.6100  249.1980 C.3       1 V0N         0.0324
      8 O7         28.2350   48.3580  249.5560 O.3       1 V0N        -0.3833
      9 O8         29.5470   49.6710  247.5530 O.3       1 V0N        -0.3832
     10 C9         26.0580   50.4310  250.0240 C.3       1 V0N         0.0894
     11 O10        26.3660   50.3260  251.4160 O.3       1 V0N        -0.3894
     12 C11        29.8940   52.4560  247.6500 C.3       1 V0N         0.0826
     13 C12        28.9470   52.3670  246.4720 C.2       1 V0N         0.1813
     14 N13        29.5040   52.5190  245.2730 N.am      1 V0N        -0.2899
     15 C14        28.7200   52.4940  244.0550 C.3       1 V0N         0.0196
     16 O15        27.7510   52.1810  246.6220 O.2       1 V0N        -0.3969
     17 C16        28.3080   54.0680  250.4900 C.3       1 V0N        -0.0033
     18 C19        28.8980   55.4290  252.6410 C.ar      1 V0N        -0.0467
     19 C20        28.4270   56.4040  253.5160 C.ar      1 V0N        -0.0620
     20 C21        29.3020   57.1140  254.3280 C.ar      1 V0N        -0.0349
     21 C22        30.6630   56.8440  254.2740 C.ar      1 V0N         0.1248
     22 C23        31.1420   55.8670  253.4090 C.ar      1 V0N        -0.0349
     23 C24        30.2630   55.1570  252.5960 C.ar      1 V0N        -0.0620
     24 F25        31.5160   57.5270  255.0570 F         1 V0N        -0.1893
     25 H1         28.3028   52.0614  251.2361 H         1 V0N         0.0816
     26 H2         26.6988   52.6730  250.7072 H         1 V0N         0.0816
     27 H3         27.4299   53.9086  252.4260 H         1 V0N         0.0420
     28 H4         27.0715   55.4388  251.5561 H         1 V0N         0.0420
     29 H5         27.5253   52.5183  248.4396 H         1 V0N         0.2043
     30 H6         29.9510   52.1485  249.7536 H         1 V0N         0.0904
     31 H7         30.5826   49.9704  249.3226 H         1 V0N         0.0680
     32 H8         28.6450   49.9524  250.7814 H         1 V0N         0.0679
     33 H9         27.0843   50.3166  248.1670 H         1 V0N         0.0901
     34 H10        27.4492   48.1101  250.0288 H         1 V0N         0.2102
     35 H11        29.5838   48.7234  247.6105 H         1 V0N         0.2102
     36 H12        25.5429   49.5151  249.6987 H         1 V0N         0.0614
     37 H13        25.4000   51.2980  249.8648 H         1 V0N         0.0614
     38 H14        26.9318   49.5763  251.5583 H         1 V0N         0.2097
     39 H15        30.8544   52.0061  247.3583 H         1 V0N         0.0560
     40 H16        30.0456   53.5177  247.8943 H         1 V0N         0.0560
     41 H17        30.4928   52.6545  245.2109 H         1 V0N         0.1847
     42 H18        29.3830   52.6384  243.1892 H         1 V0N         0.0484
     43 H19        27.9728   53.3008  244.0832 H         1 V0N         0.0484
     44 H20        28.2090   51.5238  243.9677 H         1 V0N         0.0484
     45 H21        27.9049   54.6342  249.6374 H         1 V0N         0.0338
     46 H22        29.4066   54.0570  250.4364 H         1 V0N         0.0338
     47 H23        27.3642   56.6116  253.5642 H         1 V0N         0.0547
     48 H24        28.9242   57.8754  255.0008 H         1 V0N         0.0587
     49 H25        32.2047   55.6571  253.3674 H         1 V0N         0.0587
     50 H26        30.6412   54.3920  251.9276 H         1 V0N         0.0547
@<TRIPOS>BOND
     1    1    3 1  
     2    1   17 1  
     3   17    2 1  
     4    2   18 1  
     5    3    4 1  
     6    3    7 1  
     7    4    5 1  
     8    4   12 1  
     9    5    6 1  
    10    5    9 1  
    11    6    7 1  
    12    6    8 1  
    13    7   10 1  
    14   10   11 1  
    15   12   13 1  
    16   13   14 am 
    17   13   16 2  
    18   14   15 1  
    19   18   19 ar 
    20   18   23 ar 
    21   19   20 ar 
    22   20   21 ar 
    23   21   22 ar 
    24   21   24 1  
    25   22   23 ar 
    26    1   25 1  
    27    1   26 1  
    28    2   27 1  
    29    2   28 1  
    30    3   29 1  
    31    4   30 1  
    32    5   31 1  
    33    6   32 1  
    34    7   33 1  
    35    8   34 1  
    36    9   35 1  
    37   10   36 1  
    38   10   37 1  
    39   11   38 1  
    40   12   39 1  
    41   12   40 1  
    42   14   41 1  
    43   15   42 1  
    44   15   43 1  
    45   15   44 1  
    46   17   45 1  
    47   17   46 1  
    48   19   47 1  
    49   20   48 1  
    50   22   49 1  
    51   23   50 1  
@<TRIPOS>SUBSTRUCTURE
     1 V0N         1

