### 
### Created by X-TOOL on Mon Sep 10 21:13:25 2018
### 

@<TRIPOS>MOLECULE
5abh_ligand
   46    46     1     0     0
SMALL
GAST_HUCK


@<TRIPOS>ATOM
      1 C1         27.5120   52.9680  249.3110 C.3       1 YWN        -0.0310
      2 N2         27.8930   51.8380  248.4430 N.4       1 YWN         0.2466
      3 C3         29.3670   51.6630  248.2870 C.3       1 YWN         0.0256
      4 C4         29.5990   50.1810  248.2560 C.3       1 YWN         0.1308
      5 C5         28.4570   49.6780  249.1280 C.3       1 YWN         0.1309
      6 C6         27.2840   50.5140  248.6810 C.3       1 YWN         0.0324
      7 C7         28.5470   53.5820  250.2520 C.3       1 YWN        -0.0125
      8 C8         27.8460   54.5770  251.1660 C.3       1 YWN        -0.0485
      9 C9         28.3580   56.0010  251.0480 C.3       1 YWN        -0.0557
     10 C10        28.0230   56.7940  252.3020 C.3       1 YWN        -0.0653
     11 C11        29.9100   52.4040  247.0730 C.3       1 YWN         0.0826
     12 C12        28.9710   52.3830  245.8730 C.2       1 YWN         0.1813
     13 O13        27.7820   52.6620  246.0030 O.2       1 YWN        -0.3969
     14 N14        29.5400   52.1700  244.6760 N.am      1 YWN        -0.2899
     15 C15        28.8320   52.4730  243.4420 C.3       1 YWN         0.0196
     16 C18        26.0810   50.4140  249.6330 C.3       1 YWN         0.0894
     17 O19        26.4440   50.6880  250.9870 O.3       1 YWN        -0.3894
     18 O20        28.1910   48.2960  248.9690 O.3       1 YWN        -0.3833
     19 O21        29.5700   49.6230  246.9330 O.3       1 YWN        -0.3832
     20 H1         26.6770   52.6215  249.9377 H         1 YWN         0.0815
     21 H2         27.1638   53.7750  248.6496 H         1 YWN         0.0815
     22 H3         27.5549   52.1132  247.5342 H         1 YWN         0.2043
     23 H4         29.8705   52.0766  249.1732 H         1 YWN         0.0904
     24 H5         30.5699   49.9358  248.7112 H         1 YWN         0.0680
     25 H6         28.6823   49.8685  250.1877 H         1 YWN         0.0679
     26 H7         26.9281   50.1341  247.7120 H         1 YWN         0.0901
     27 H8         29.3200   54.0996  249.6650 H         1 YWN         0.0317
     28 H9         29.0141   52.7901  250.8559 H         1 YWN         0.0317
     29 H10        27.9842   54.2463  252.2059 H         1 YWN         0.0267
     30 H11        26.7739   54.5749  250.9199 H         1 YWN         0.0267
     31 H12        27.8881   56.4836  250.1784 H         1 YWN         0.0263
     32 H13        29.4494   55.9830  250.9121 H         1 YWN         0.0263
     33 H14        28.4014   57.8216  252.1979 H         1 YWN         0.0230
     34 H15        28.4934   56.3167  253.1743 H         1 YWN         0.0230
     35 H16        26.9320   56.8173  252.4406 H         1 YWN         0.0230
     36 H17        30.8613   51.9372  246.7779 H         1 YWN         0.0560
     37 H18        30.0880   53.4518  247.3565 H         1 YWN         0.0560
     38 H19        30.4666   51.7966  244.6319 H         1 YWN         0.1847
     39 H20        29.4721   52.2266  242.5821 H         1 YWN         0.0484
     40 H21        28.5804   53.5435  243.4169 H         1 YWN         0.0484
     41 H22        27.9081   51.8780  243.3937 H         1 YWN         0.0484
     42 H23        25.6667   49.3966  249.5757 H         1 YWN         0.0614
     43 H24        25.3170   51.1394  249.3168 H         1 YWN         0.0614
     44 H25        27.0998   50.0619  251.2708 H         1 YWN         0.2097
     45 H26        27.4329   48.0586  249.4899 H         1 YWN         0.2102
     46 H27        29.6387   48.6770  246.9879 H         1 YWN         0.2102
@<TRIPOS>BOND
     1    1    2 1  
     2    1    7 1  
     3    2    3 1  
     4    2    6 1  
     5    3    4 1  
     6    3   11 1  
     7    4    5 1  
     8    4   19 1  
     9    5    6 1  
    10    5   18 1  
    11    6   16 1  
    12    7    8 1  
    13    8    9 1  
    14    9   10 1  
    15   11   12 1  
    16   12   13 2  
    17   12   14 am 
    18   14   15 1  
    19   16   17 1  
    20    1   20 1  
    21    1   21 1  
    22    2   22 1  
    23    3   23 1  
    24    4   24 1  
    25    5   25 1  
    26    6   26 1  
    27    7   27 1  
    28    7   28 1  
    29    8   29 1  
    30    8   30 1  
    31    9   31 1  
    32    9   32 1  
    33   10   33 1  
    34   10   34 1  
    35   10   35 1  
    36   11   36 1  
    37   11   37 1  
    38   14   38 1  
    39   15   39 1  
    40   15   40 1  
    41   15   41 1  
    42   16   42 1  
    43   16   43 1  
    44   17   44 1  
    45   18   45 1  
    46   19   46 1  
@<TRIPOS>SUBSTRUCTURE
     1 YWN         1

