### 
### Created by X-TOOL on Mon Nov 21 14:23:36 2016
### 

@<TRIPOS>MOLECULE
5abp_ligand
   24    24     1     0     0
SMALL
GAST_HUCK


@<TRIPOS>ATOM
      1 H1         14.7968   57.7092   56.0710 H         1 GLA         0.0935
      2 H2         13.0435   58.3289   54.5733 H         1 GLA         0.0671
      3 H3         12.5326   55.3722   54.2555 H         1 GLA         0.0648
      4 H4         13.1871   55.6681   51.9459 H         1 GLA         0.0647
      5 H5         14.9999   55.1502   53.4001 H         1 GLA         0.0647
      6 H6         15.9247   57.6715   51.8151 H         1 GLA         0.0584
      7 H7         15.5290   56.1341   50.9747 H         1 GLA         0.0584
      8 H8         15.5548   55.6185   56.1240 H         1 GLA         0.2126
      9 H9         11.3653   57.5301   56.0089 H         1 GLA         0.2101
     10 H10        10.6863   56.6593   54.3945 H         1 GLA         0.2100
     11 H11        12.2990   57.8029   51.7750 H         1 GLA         0.2100
     12 H12        17.3319   56.4404   53.1436 H         1 GLA         0.2095
     13 C1         14.4720   56.9750   55.3190 C.3       1 GLA         0.1854
     14 C2         13.0680   57.2990   54.9590 C.3       1 GLA         0.1339
     15 C3         12.5200   56.4060   53.8800 C.3       1 GLA         0.1141
     16 C4         13.4660   56.4640   52.6520 C.3       1 GLA         0.1119
     17 C5         14.8860   56.1970   53.0820 C.3       1 GLA         0.1130
     18 C6         15.8590   56.5790   51.9250 C.3       1 GLA         0.0730
     19 O1         14.6450   55.7290   55.8740 O.3       1 GLA        -0.3649
     20 O2         12.2520   57.2490   56.2020 O.3       1 GLA        -0.3841
     21 O3         11.2010   56.7160   53.5980 O.3       1 GLA        -0.3864
     22 O4         13.2190   57.7380   52.0030 O.3       1 GLA        -0.3865
     23 O5         15.3160   57.1410   54.1220 O.3       1 GLA        -0.3407
     24 O6         17.0720   56.0530   52.3160 O.3       1 GLA        -0.3924
@<TRIPOS>BOND
     1   13    1 1  
     2   14    2 1  
     3   15    3 1  
     4   16    4 1  
     5   17    5 1  
     6   18    6 1  
     7   18    7 1  
     8   19    8 1  
     9   20    9 1  
    10   21   10 1  
    11   22   11 1  
    12   24   12 1  
    13   13   14 1  
    14   13   19 1  
    15   23   13 1  
    16   15   14 1  
    17   14   20 1  
    18   16   15 1  
    19   15   21 1  
    20   17   16 1  
    21   16   22 1  
    22   18   17 1  
    23   17   23 1  
    24   18   24 1  
@<TRIPOS>SUBSTRUCTURE
     1 GLA         1

