### 
### Created by X-TOOL on Mon Sep 10 21:13:21 2018
### 

@<TRIPOS>MOLECULE
5abw_ligand
   62    65     1     0     0
SMALL
GAST_HUCK


@<TRIPOS>ATOM
      1 C36        27.9720  -21.3410    6.5520 C.3       1 WQQ         0.0110
      2 C31        28.1070  -20.1500    5.6080 C.2       1 WQQ         0.1419
      3 O32        27.8050  -18.8510    5.9530 O.3       1 WQQ        -0.1766
      4 N33        28.0660  -18.0400    4.8380 N.2       1 WQQ        -0.1686
      5 C34        28.4600  -18.8410    3.8350 C.2       1 WQQ         0.0214
      6 C35        28.7890  -18.2480    2.4850 C.3       1 WQQ        -0.0273
      7 C16        28.5210  -20.1820    4.2720 C.2       1 WQQ         0.0119
      8 C1         28.8920  -21.3710    3.5680 C.2       1 WQQ        -0.0404
      9 C6         30.0260  -22.0920    3.9850 C.2       1 WQQ        -0.0646
     10 C2         28.1660  -21.8940    2.5000 C.3       1 WQQ         0.0845
     11 C15        26.9190  -21.2010    1.9670 C.3       1 WQQ        -0.0293
     12 N3         28.5840  -23.0840    1.8560 N.am      1 WQQ        -0.2055
     13 C7         27.8620  -23.6280    0.7630 C.ar      1 WQQ         0.0719
     14 C12        26.7030  -24.3340    1.0090 C.ar      1 WQQ        -0.0271
     15 C11        25.9980  -24.8680   -0.0570 C.ar      1 WQQ         0.0270
     16 CL         24.5580  -25.7750    0.2660 Cl        1 WQQ        -0.0748
     17 C10        26.4460  -24.7350   -1.3580 C.ar      1 WQQ        -0.0633
     18 C9         27.6420  -24.0520   -1.6110 C.ar      1 WQQ        -0.0750
     19 C8         28.3450  -23.4910   -0.5390 C.ar      1 WQQ        -0.0408
     20 C4         29.7080  -23.7960    2.2780 C.2       1 WQQ         0.2355
     21 O14        29.9870  -24.8400    1.6570 O.2       1 WQQ        -0.3789
     22 C5         30.4190  -23.3080    3.3880 C.3       1 WQQ         0.1526
     23 C17        31.6960  -23.9460    3.8940 C.2       1 WQQ         0.2062
     24 O19        32.3110  -23.4490    4.8570 O.2       1 WQQ        -0.3912
     25 N18        32.1520  -24.9860    3.2020 N.am      1 WQQ        -0.2723
     26 C20        33.4520  -25.5530    3.5880 C.3       1 WQQ         0.0647
     27 C21        33.4900  -26.6700    4.6190 C.ar      1 WQQ        -0.0209
     28 C22        32.3660  -27.1530    5.2540 C.ar      1 WQQ        -0.0566
     29 C23        32.5110  -28.1990    6.1650 C.ar      1 WQQ        -0.0437
     30 C24        33.7680  -28.7350    6.4380 C.ar      1 WQQ         0.0809
     31 S27        33.8850  -30.0630    7.5940 S.o2      1 WQQ        -0.0088
     32 C30        32.8740  -29.5960    8.9660 C.3       1 WQQ         0.0587
     33 O29        35.3030  -30.3050    7.9950 O.2       1 WQQ        -0.1705
     34 O28        33.3030  -31.2870    6.9670 O.2       1 WQQ        -0.1705
     35 C25        34.8960  -28.2300    5.8110 C.ar      1 WQQ        -0.0437
     36 C26        34.7570  -27.2000    4.9000 C.ar      1 WQQ        -0.0566
     37 H1         28.2767  -22.2596    6.0292 H         1 WQQ         0.0461
     38 H2         26.9254  -21.4343    6.8773 H         1 WQQ         0.0461
     39 H3         28.6167  -21.1879    7.4300 H         1 WQQ         0.0461
     40 H4         29.0902  -19.0505    1.7956 H         1 WQQ         0.0378
     41 H5         29.6136  -17.5279    2.5919 H         1 WQQ         0.0378
     42 H6         27.9028  -17.7340    2.0845 H         1 WQQ         0.0378
     43 H7         30.6253  -21.6946    4.8028 H         1 WQQ         0.0349
     44 H8         27.5530  -22.4754    3.2044 H         1 WQQ         0.0747
     45 H9         26.7189  -20.2977    2.5620 H         1 WQQ         0.0276
     46 H10        26.0604  -21.8849    2.0388 H         1 WQQ         0.0276
     47 H11        27.0769  -20.9198    0.9153 H         1 WQQ         0.0276
     48 H12        26.3481  -24.4693    2.0243 H         1 WQQ         0.0507
     49 H13        25.8750  -25.1568   -2.1772 H         1 WQQ         0.0493
     50 H14        28.0181  -23.9591   -2.6234 H         1 WQQ         0.0577
     51 H15        29.2662  -22.9492   -0.7203 H         1 WQQ         0.0504
     52 H16        29.8043  -23.9038    4.0788 H         1 WQQ         0.0868
     53 H17        31.6269  -25.3703    2.4427 H         1 WQQ         0.1880
     54 H18        34.0595  -24.7265    3.9852 H         1 WQQ         0.0684
     55 H19        33.9186  -25.9436    2.6717 H         1 WQQ         0.0684
     56 H20        31.3897  -26.7287    5.0496 H         1 WQQ         0.0558
     57 H21        31.6369  -28.5992    6.6659 H         1 WQQ         0.0618
     58 H22        32.9033  -30.3876    9.7292 H         1 WQQ         0.0467
     59 H23        31.8377  -29.4528    8.6259 H         1 WQQ         0.0467
     60 H24        33.2516  -28.6570    9.3970 H         1 WQQ         0.0467
     61 H25        35.8756  -28.6380    6.0324 H         1 WQQ         0.0618
     62 H26        35.6319  -26.8001    4.4004 H         1 WQQ         0.0558
@<TRIPOS>BOND
     1    1    2 1  
     2    2    3 1  
     3    2    7 2  
     4    3    4 1  
     5    4    5 2  
     6    5    6 1  
     7    5    7 1  
     8    7    8 1  
     9    8    9 2  
    10    8   10 1  
    11    9   22 1  
    12   10   11 1  
    13   10   12 1  
    14   12   13 1  
    15   12   20 am 
    16   13   14 ar 
    17   13   19 ar 
    18   14   15 ar 
    19   15   16 1  
    20   15   17 ar 
    21   17   18 ar 
    22   18   19 ar 
    23   20   21 2  
    24   20   22 1  
    25   22   23 1  
    26   23   24 2  
    27   23   25 am 
    28   25   26 1  
    29   26   27 1  
    30   27   28 ar 
    31   27   36 ar 
    32   28   29 ar 
    33   29   30 ar 
    34   30   31 1  
    35   30   35 ar 
    36   31   32 1  
    37   31   33 2  
    38   31   34 2  
    39   35   36 ar 
    40    1   37 1  
    41    1   38 1  
    42    1   39 1  
    43    6   40 1  
    44    6   41 1  
    45    6   42 1  
    46    9   43 1  
    47   10   44 1  
    48   11   45 1  
    49   11   46 1  
    50   11   47 1  
    51   14   48 1  
    52   17   49 1  
    53   18   50 1  
    54   19   51 1  
    55   22   52 1  
    56   25   53 1  
    57   26   54 1  
    58   26   55 1  
    59   28   56 1  
    60   29   57 1  
    61   32   58 1  
    62   32   59 1  
    63   32   60 1  
    64   35   61 1  
    65   36   62 1  
@<TRIPOS>SUBSTRUCTURE
     1 WQQ         1

