### 
### Created by X-TOOL on Mon Sep 10 21:13:29 2018
### 

@<TRIPOS>MOLECULE
5acb_ligand
   75    79     1     0     0
SMALL
GAST_HUCK


@<TRIPOS>ATOM
      1 N1         -1.5140  -13.9980   41.1420 N.ar      1 5I1        -0.2658
      2 C2         -0.9890  -14.7030   40.1360 C.ar      1 5I1         0.1784
      3 N3         -0.3260  -14.0710   39.1390 N.ar      1 5I1        -0.2662
      4 C4         -0.1330  -12.7360   39.0710 C.ar      1 5I1         0.0432
      5 C5         -0.6810  -11.9720   40.1210 C.ar      1 5I1         0.0715
      6 CL5        -0.5830  -10.2570   40.2660 Cl        1 5I1        -0.0723
      7 C6         -1.3650  -12.6140   41.1450 C.ar      1 5I1         0.0172
      8 CAB        -0.7790  -18.3750   39.3210 C.3       1 5I1         0.0563
      9 NAD        -0.7640  -19.1720   38.0530 N.am      1 5I1        -0.2725
     10 OAE        -0.0290  -20.7650   36.6450 O.2       1 5I1        -0.3918
     11 CAG         5.3980  -28.0480   44.5580 C.3       1 5I1        -0.0433
     12 CAH         0.0660  -20.1960   37.7320 C.2       1 5I1         0.1959
     13 CAI         0.5400  -12.2140   38.0130 C.2       1 5I1         0.0119
     14 CAJ         2.9130  -22.0610   40.1670 C.ar      1 5I1         0.0719
     15 CAK         1.5630  -22.0130   40.5670 C.ar      1 5I1        -0.0350
     16 CAL         0.6110  -21.3730   39.7730 C.ar      1 5I1        -0.0554
     17 CAM         0.9980  -20.7820   38.5740 C.ar      1 5I1         0.0339
     18 CAN         2.3210  -20.8860   38.1390 C.ar      1 5I1        -0.0554
     19 CAO         3.2730  -21.5200   38.9310 C.ar      1 5I1        -0.0350
     20 CAP         3.9460  -22.8210   42.1910 C.2       1 5I1         0.2056
     21 NAR         5.5760  -26.6720   44.0470 N.4       1 5I1         0.2310
     22 CAT        -1.8710  -16.5680   37.9130 C.3       1 5I1        -0.0259
     23 OAU         3.2900  -22.1710   43.0110 O.2       1 5I1        -0.3839
     24 CAV         1.5460  -12.7810   37.3160 C.ar      1 5I1        -0.0098
     25 CAW         1.8890  -11.9080   36.3440 C.ar      1 5I1         0.0712
     26 CAX         2.8720  -12.1540   35.4660 C.ar      1 5I1        -0.0408
     27 CAY         3.5840  -13.3470   35.5290 C.ar      1 5I1        -0.0749
     28 CAZ         3.2420  -14.2580   36.5220 C.ar      1 5I1        -0.0775
     29 CBA        -1.5260  -17.3230   36.6600 C.3       1 5I1        -0.0304
     30 NBB        -1.1370  -16.0330   40.1450 N.pl3     1 5I1        -0.2861
     31 CBD         2.2080  -13.9500   37.4140 C.ar      1 5I1        -0.0720
     32 CBE         0.2730  -11.0310   37.4490 C.2       1 5I1         0.0501
     33 CBG        -1.7330  -18.7350   37.0120 C.3       1 5I1         0.0332
     34 CBH        -0.8230  -16.8600   38.9750 C.3       1 5I1         0.0620
     35 NBI         3.8570  -22.7270   40.8430 N.am      1 5I1        -0.2306
     36 CBJ         5.0170  -23.8480   42.6510 C.3       1 5I1         0.0484
     37 NBK         1.1050  -10.8460   36.4390 N.pl3     1 5I1        -0.2669
     38 CBL         4.4730  -25.2340   42.1840 C.3       1 5I1         0.0049
     39 CBM         4.3310  -26.2670   43.3340 C.3       1 5I1        -0.0303
     40 CBN         5.9320  -25.7620   45.1650 C.3       1 5I1        -0.0433
     41 H1         -1.7874  -12.0310   41.9554 H         1 5I1         0.0866
     42 H2          0.1288  -18.5928   39.9027 H         1 5I1         0.0544
     43 H3         -1.6668  -18.6427   39.9128 H         1 5I1         0.0544
     44 H4          6.3091  -28.3631   45.0878 H         1 5I1         0.0777
     45 H5          5.2090  -28.7302   43.7161 H         1 5I1         0.0777
     46 H6          4.5436  -28.0744   45.2504 H         1 5I1         0.0777
     47 H7          1.2616  -22.4770   41.4991 H         1 5I1         0.0517
     48 H8         -0.4254  -21.3362   40.0886 H         1 5I1         0.0630
     49 H9          2.6075  -20.4707   37.1796 H         1 5I1         0.0630
     50 H10         4.2984  -21.5943   38.5872 H         1 5I1         0.0517
     51 H11         6.3360  -26.6645   43.3849 H         1 5I1         0.2028
     52 H12        -2.8600  -16.8864   38.2743 H         1 5I1         0.0289
     53 H13        -1.8884  -15.4890   37.6998 H         1 5I1         0.0289
     54 H14         3.1125  -11.4208   34.7047 H         1 5I1         0.0552
     55 H15         4.3809  -13.5600   34.8257 H         1 5I1         0.0538
     56 H16         3.7721  -15.1999   36.6049 H         1 5I1         0.0522
     57 H17        -0.4793  -17.1432   36.3735 H         1 5I1         0.0285
     58 H18        -2.1885  -17.0274   35.8331 H         1 5I1         0.0285
     59 H19        -1.4824  -16.4905   41.0008 H         1 5I1         0.1865
     60 H20         1.9380  -14.6577   38.1895 H         1 5I1         0.0544
     61 H21        -0.5015  -10.3356   37.7690 H         1 5I1         0.1099
     62 H22        -2.7558  -18.8639   37.3957 H         1 5I1         0.0521
     63 H23        -1.5981  -19.3535   36.1125 H         1 5I1         0.0521
     64 H24         0.1659  -16.5692   38.5911 H         1 5I1         0.0580
     65 H25         4.5578  -23.1962   40.3056 H         1 5I1         0.2281
     66 H26         5.1298  -23.8255   43.7450 H         1 5I1         0.0510
     67 H27         5.9867  -23.6338   42.1779 H         1 5I1         0.0510
     68 H28         1.1377  -10.0164   35.8294 H         1 5I1         0.2339
     69 H29         5.1642  -25.6434   41.4326 H         1 5I1         0.0342
     70 H30         3.4833  -25.0832   41.7282 H         1 5I1         0.0342
     71 H31         3.6472  -25.8378   44.0810 H         1 5I1         0.0816
     72 H32         3.8837  -27.1769   42.9074 H         1 5I1         0.0816
     73 H33         6.8556  -26.1162   45.6461 H         1 5I1         0.0777
     74 H34         5.1158  -25.7502   45.9023 H         1 5I1         0.0777
     75 H35         6.0884  -24.7455   44.7748 H         1 5I1         0.0777
@<TRIPOS>BOND
     1    2    1 ar 
     2    1    7 ar 
     3    2    3 ar 
     4   30    2 1  
     5    3    4 ar 
     6    4    5 ar 
     7    4   13 1  
     8    5    6 1  
     9    7    5 ar 
    10    9    8 1  
    11    8   34 1  
    12   12    9 am 
    13    9   33 1  
    14   12   10 2  
    15   21   11 1  
    16   17   12 1  
    17   13   24 1  
    18   13   32 2  
    19   14   15 ar 
    20   14   19 ar 
    21   35   14 1  
    22   15   16 ar 
    23   16   17 ar 
    24   18   17 ar 
    25   19   18 ar 
    26   20   23 2  
    27   20   35 am 
    28   36   20 1  
    29   39   21 1  
    30   21   40 1  
    31   29   22 1  
    32   34   22 1  
    33   24   25 ar 
    34   24   31 ar 
    35   25   26 ar 
    36   37   25 1  
    37   26   27 ar 
    38   28   27 ar 
    39   31   28 ar 
    40   33   29 1  
    41   34   30 1  
    42   32   37 1  
    43   38   36 1  
    44   38   39 1  
    45    7   41 1  
    46    8   42 1  
    47    8   43 1  
    48   11   44 1  
    49   11   45 1  
    50   11   46 1  
    51   15   47 1  
    52   16   48 1  
    53   18   49 1  
    54   19   50 1  
    55   21   51 1  
    56   22   52 1  
    57   22   53 1  
    58   26   54 1  
    59   27   55 1  
    60   28   56 1  
    61   29   57 1  
    62   29   58 1  
    63   30   59 1  
    64   31   60 1  
    65   32   61 1  
    66   33   62 1  
    67   33   63 1  
    68   34   64 1  
    69   35   65 1  
    70   36   66 1  
    71   36   67 1  
    72   37   68 1  
    73   38   69 1  
    74   38   70 1  
    75   39   71 1  
    76   39   72 1  
    77   40   73 1  
    78   40   74 1  
    79   40   75 1  
@<TRIPOS>SUBSTRUCTURE
     1 5I1         1

