### 
### Created by X-TOOL on Mon Sep 10 21:13:20 2018
### 

@<TRIPOS>MOLECULE
5acw_ligand
   15    15     1     0     0
SMALL
GAST_HUCK


@<TRIPOS>ATOM
      1 C01       -34.0040    8.5430    5.5950 C.2       1 RHU         0.2372
      2 N02       -34.5870    9.5760    4.9860 N.2       1 RHU        -0.1790
      3 N03       -35.1650   10.3740    5.8830 N.2       1 RHU        -0.1827
      4 C04       -34.9610    9.8740    7.1210 C.2       1 RHU         0.2314
      5 N05       -34.2100    8.6670    6.9940 N.pl3     1 RHU        -0.1892
      6 S06       -33.1440    7.2210    4.8860 S.3       1 RHU        -0.0325
      7 C07       -33.7590    7.7950    8.0790 C.3       1 RHU         0.0572
      8 C08       -35.4620   10.5330    8.4220 C.3       1 RHU         0.4147
      9 F09       -34.4740   10.7730    9.2660 F         1 RHU        -0.2246
     10 F10       -36.0490   11.6820    8.1970 F         1 RHU        -0.2246
     11 F11       -36.3110    9.7630    9.0790 F         1 RHU        -0.2246
     12 H1        -33.6105    6.3571    5.1144 H         1 RHU         0.1395
     13 H2        -33.2036    6.9437    7.6584 H         1 RHU         0.0591
     14 H3        -34.6309    7.4239    8.6377 H         1 RHU         0.0591
     15 H4        -33.1034    8.3617    8.7565 H         1 RHU         0.0591
@<TRIPOS>BOND
     1    1    2 2  
     2    1    5 1  
     3    1    6 1  
     4    2    3 1  
     5    3    4 2  
     6    4    5 1  
     7    4    8 1  
     8    5    7 1  
     9    8    9 1  
    10    8   10 1  
    11    8   11 1  
    12    6   12 1  
    13    7   13 1  
    14    7   14 1  
    15    7   15 1  
@<TRIPOS>SUBSTRUCTURE
     1 RHU         1

