### 
### Created by X-TOOL on Mon Sep 10 21:13:20 2018
### 

@<TRIPOS>MOLECULE
5acx_ligand
   26    27     1     0     0
SMALL
GAST_HUCK


@<TRIPOS>ATOM
      1 C01       -34.5860    6.8440    7.2800 C.ar      1 WL3         0.0471
      2 C02       -36.6240   11.4350    7.1400 C.ar      1 WL3        -0.0221
      3 C03       -36.4500   10.1580    6.6380 C.ar      1 WL3        -0.0451
      4 C04       -34.5510    9.8480    8.0730 C.ar      1 WL3        -0.0451
      5 C05       -34.7240   11.1270    8.5780 C.ar      1 WL3        -0.0221
      6 C06       -35.7610   11.9180    8.1090 C.ar      1 WL3         0.1378
      7 C07       -34.1200    5.8100    9.4060 C.ar      1 WL3        -0.0536
      8 C08       -33.3840    4.8290    8.7690 C.ar      1 WL3        -0.0539
      9 C09       -33.2540    4.8520    7.3920 C.ar      1 WL3        -0.0421
     10 C10       -33.8450    5.8500    6.6400 C.ar      1 WL3         0.0280
     11 C11       -34.7220    6.8080    8.6600 C.ar      1 WL3        -0.0401
     12 C12       -33.6500    5.7920    5.1370 C.2       1 WL3         0.0667
     13 F13       -35.9400   13.1520    8.5850 F         1 WL3        -0.1792
     14 O14       -34.3800    5.0360    4.4380 O.co2     1 WL3        -0.5594
     15 O15       -32.7460    6.4740    4.5870 O.co2     1 WL3        -0.5594
     16 C16       -35.2720    7.9640    6.5190 C.2       1 WL3         0.1600
     17 C17       -35.4180    9.3590    7.1030 C.ar      1 WL3         0.0304
     18 O18       -35.7250    7.7630    5.4110 O.2       1 WL3        -0.3681
     19 H1        -37.4342   12.0562    6.7756 H         1 WL3         0.0617
     20 H2        -37.1240    9.7807    5.8775 H         1 WL3         0.0660
     21 H3        -33.7386    9.2283    8.4350 H         1 WL3         0.0660
     22 H4        -34.0504   11.5075    9.3373 H         1 WL3         0.0617
     23 H5        -34.2252    5.7978   10.4848 H         1 WL3         0.0650
     24 H6        -32.9099    4.0438    9.3467 H         1 WL3         0.0660
     25 H7        -32.6810    4.0770    6.8960 H         1 WL3         0.0663
     26 H8        -35.3071    7.5712    9.1603 H         1 WL3         0.0677
@<TRIPOS>BOND
     1    1   10 ar 
     2    1   11 ar 
     3   16    1 1  
     4    3    2 ar 
     5    2    6 ar 
     6   17    3 ar 
     7    4    5 ar 
     8   17    4 ar 
     9    5    6 ar 
    10    6   13 1  
    11    7    8 ar 
    12   11    7 ar 
    13    9    8 ar 
    14   10    9 ar 
    15   10   12 1  
    16   12   14 ar 
    17   12   15 ar 
    18   16   17 1  
    19   16   18 2  
    20    2   19 1  
    21    3   20 1  
    22    4   21 1  
    23    5   22 1  
    24    7   23 1  
    25    8   24 1  
    26    9   25 1  
    27   11   26 1  
@<TRIPOS>SUBSTRUCTURE
     1 WL3         1

