### 
### Created by X-TOOL on Mon Sep 10 21:13:25 2018
### 

@<TRIPOS>MOLECULE
5acy_ligand
   70    74     1     0     0
SMALL
GAST_HUCK


@<TRIPOS>ATOM
      1 O          -3.7220  -10.0140   18.1450 O.2       1 9S3        -0.3853
      2 C17        -3.3860   -8.9830   18.7270 C.2       1 9S3         0.2024
      3 C18        -4.1430   -7.6960   18.5380 C.3       1 9S3         0.0317
      4 N2         -2.2900   -9.0140   19.5920 N.am      1 9S3        -0.2190
      5 C2         -1.5960  -10.3250   19.7300 C.3       1 9S3         0.0665
      6 C1         -0.5220  -10.4870   18.6640 C.3       1 9S3        -0.0365
      7 C16        -1.7900   -7.8980   20.3300 C.ar      1 9S3         0.0758
      8 C11        -1.4430   -8.0980   21.6670 C.ar      1 9S3         0.0046
      9 C4         -1.6440   -9.5080   22.1470 C.3       1 9S3         0.0678
     10 N1         -1.1560   -9.7270   23.4960 N.pl3     1 9S3        -0.3109
     11 C5         -1.8320   -9.3730   24.6610 C.ar      1 9S3         0.0395
     12 C10        -1.1270   -9.2670   25.8540 C.ar      1 9S3        -0.0444
     13 C9         -1.7890   -8.9360   27.0250 C.ar      1 9S3        -0.0737
     14 C8         -3.1490   -8.7070   27.0160 C.ar      1 9S3        -0.0751
     15 C7         -3.8520   -8.8170   25.8370 C.ar      1 9S3        -0.0737
     16 C6         -3.2020   -9.1420   24.6610 C.ar      1 9S3        -0.0444
     17 C3         -1.0540  -10.5090   21.1570 C.3       1 9S3         0.0054
     18 C15        -1.6350   -6.6310   19.7700 C.ar      1 9S3        -0.0455
     19 C14        -1.1500   -5.5800   20.5210 C.ar      1 9S3        -0.0745
     20 C13        -0.7890   -5.7600   21.8600 C.ar      1 9S3        -0.0430
     21 C12        -0.9460   -7.0380   22.4170 C.ar      1 9S3        -0.0640
     22 C19        -0.2600   -4.5990   22.6890 C.ar      1 9S3        -0.0354
     23 C30        -0.7170   -3.3020   22.4790 C.ar      1 9S3        -0.0637
     24 C29        -0.2510   -2.2480   23.2430 C.ar      1 9S3        -0.0563
     25 C22         0.7080   -2.4500   24.2250 C.ar      1 9S3         0.0002
     26 C21         1.1590   -3.7500   24.4410 C.ar      1 9S3        -0.0563
     27 C20         0.6920   -4.8040   23.6770 C.ar      1 9S3        -0.0637
     28 C23         1.2110   -1.3020   25.0740 C.3       1 9S3         0.0014
     29 N3          2.4510   -0.6670   24.6000 N.4       1 9S3         0.2471
     30 C28         2.9860    0.2450   25.6230 C.3       1 9S3        -0.0305
     31 C27         4.2600    0.9410   25.1870 C.3       1 9S3        -0.0123
     32 C26         5.3210   -0.0640   24.7850 C.3       1 9S3        -0.0434
     33 C25         4.7690   -1.0400   23.7690 C.3       1 9S3        -0.0123
     34 C24         3.4730   -1.6640   24.2560 C.3       1 9S3        -0.0305
     35 H1         -3.6787   -6.9050   19.1452 H         1 9S3         0.0472
     36 H2         -5.1875   -7.8352   18.8537 H         1 9S3         0.0472
     37 H3         -4.1160   -7.4071   17.4770 H         1 9S3         0.0472
     38 H4         -2.3424  -11.1152   19.5615 H         1 9S3         0.0621
     39 H5         -0.0261  -11.4610   18.7882 H         1 9S3         0.0257
     40 H6          0.2205   -9.6819   18.7662 H         1 9S3         0.0257
     41 H7         -0.9841  -10.4353   17.6671 H         1 9S3         0.0257
     42 H8         -2.7297   -9.6830   22.1736 H         1 9S3         0.0682
     43 H9         -0.2369  -10.1801   23.6001 H         1 9S3         0.1781
     44 H10        -0.0576   -9.4436   25.8682 H         1 9S3         0.0515
     45 H11        -1.2351   -8.8566   27.9534 H         1 9S3         0.0583
     46 H12        -3.6624   -8.4416   27.9331 H         1 9S3         0.0505
     47 H13        -4.9227   -8.6475   25.8310 H         1 9S3         0.0583
     48 H14        -3.7628   -9.2168   23.7363 H         1 9S3         0.0515
     49 H15         0.0384  -10.3816   21.1373 H         1 9S3         0.0333
     50 H16        -1.2985  -11.5260   21.4975 H         1 9S3         0.0333
     51 H17        -1.8989   -6.4693   18.7311 H         1 9S3         0.0487
     52 H18        -1.0474   -4.6011   20.0667 H         1 9S3         0.0527
     53 H19        -0.6742   -7.2024   23.4534 H         1 9S3         0.0514
     54 H20        -1.4507   -3.1145   21.7034 H         1 9S3         0.0588
     55 H21        -0.6401   -1.2507   23.0725 H         1 9S3         0.0556
     56 H22         1.8880   -3.9387   25.2207 H         1 9S3         0.0556
     57 H23         1.0747   -5.8029   23.8524 H         1 9S3         0.0588
     58 H24         1.3913   -1.6837   26.0898 H         1 9S3         0.0979
     59 H25         0.4255   -0.5326   25.1054 H         1 9S3         0.0979
     60 H26         2.2352   -0.1331   23.7727 H         1 9S3         0.2048
     61 H27         3.1972   -0.3347   26.5337 H         1 9S3         0.0814
     62 H28         2.2264    1.0096   25.8429 H         1 9S3         0.0814
     63 H29         4.6398    1.5502   26.0204 H         1 9S3         0.0317
     64 H30         4.0380    1.5918   24.3284 H         1 9S3         0.0317
     65 H31         5.6514   -0.6176   25.6763 H         1 9S3         0.0269
     66 H32         6.1772    0.4694   24.3464 H         1 9S3         0.0269
     67 H33         5.5084   -1.8361   23.5974 H         1 9S3         0.0317
     68 H34         4.5785   -0.5070   22.8258 H         1 9S3         0.0317
     69 H35         3.0762   -2.3133   23.4617 H         1 9S3         0.0814
     70 H36         3.6887   -2.2679   25.1497 H         1 9S3         0.0814
@<TRIPOS>BOND
     1    1    2 2  
     2    2    3 1  
     3    2    4 am 
     4    4    5 1  
     5    4    7 1  
     6    5    6 1  
     7    5   17 1  
     8    7    8 ar 
     9    7   18 ar 
    10    8    9 1  
    11    8   21 ar 
    12    9   10 1  
    13    9   17 1  
    14   10   11 1  
    15   11   12 ar 
    16   11   16 ar 
    17   12   13 ar 
    18   13   14 ar 
    19   14   15 ar 
    20   15   16 ar 
    21   18   19 ar 
    22   19   20 ar 
    23   20   21 ar 
    24   20   22 1  
    25   22   23 ar 
    26   22   27 ar 
    27   23   24 ar 
    28   24   25 ar 
    29   25   26 ar 
    30   25   28 1  
    31   26   27 ar 
    32   28   29 1  
    33   29   30 1  
    34   29   34 1  
    35   30   31 1  
    36   31   32 1  
    37   32   33 1  
    38   33   34 1  
    39    3   35 1  
    40    3   36 1  
    41    3   37 1  
    42    5   38 1  
    43    6   39 1  
    44    6   40 1  
    45    6   41 1  
    46    9   42 1  
    47   10   43 1  
    48   12   44 1  
    49   13   45 1  
    50   14   46 1  
    51   15   47 1  
    52   16   48 1  
    53   17   49 1  
    54   17   50 1  
    55   18   51 1  
    56   19   52 1  
    57   21   53 1  
    58   23   54 1  
    59   24   55 1  
    60   26   56 1  
    61   27   57 1  
    62   28   58 1  
    63   28   59 1  
    64   29   60 1  
    65   30   61 1  
    66   30   62 1  
    67   31   63 1  
    68   31   64 1  
    69   32   65 1  
    70   32   66 1  
    71   33   67 1  
    72   33   68 1  
    73   34   69 1  
    74   34   70 1  
@<TRIPOS>SUBSTRUCTURE
     1 9S3         1

