### 
### Created by X-TOOL on Mon Sep 10 21:13:26 2018
### 

@<TRIPOS>MOLECULE
5ad1_ligand
   58    59     1     0     0
SMALL
GAST_HUCK


@<TRIPOS>ATOM
      1 C2        -21.8960   12.8960  -25.0500 C.ar      1 8LC         0.1379
      2 C3        -22.2130   12.5800  -26.3830 C.ar      1 8LC         0.0700
      3 C4        -22.5100   11.2290  -26.6790 C.ar      1 8LC        -0.0617
      4 C5        -22.4080   10.2440  -25.7360 C.ar      1 8LC        -0.0763
      5 C6        -22.1090   10.5570  -24.4240 C.ar      1 8LC        -0.0372
      6 C7        -21.8410   11.8590  -24.0850 C.ar      1 8LC         0.1223
      7 C8        -22.2970   13.5900  -27.4780 C.2       1 8LC         0.1964
      8 O9        -22.5360   13.2960  -28.6640 O.2       1 8LC        -0.3912
      9 N10       -22.1140   14.8610  -27.1030 N.am      1 8LC        -0.2882
     10 C11       -22.1580   15.9730  -28.0280 C.3       1 8LC         0.0301
     11 C12       -22.3900   17.3020  -27.2950 C.3       1 8LC        -0.0328
     12 C13       -22.2110   18.4550  -28.2010 C.3       1 8LC        -0.0512
     13 C14       -22.6690   19.8110  -27.6580 C.3       1 8LC        -0.0530
     14 C15       -22.1360   20.1510  -26.2490 C.3       1 8LC        -0.0530
     15 C16       -20.6300   20.0920  -26.2140 C.3       1 8LC        -0.0512
     16 C17       -20.0230   20.7920  -24.9580 C.3       1 8LC        -0.0328
     17 C18       -20.4210   20.0610  -23.6690 C.3       1 8LC         0.0301
     18 N19       -19.7560   18.7950  -23.5140 N.am      1 8LC        -0.2882
     19 C20       -18.5010   18.6670  -23.0390 C.2       1 8LC         0.1964
     20 C21       -18.0080   17.2760  -22.8090 C.ar      1 8LC         0.0700
     21 C22       -18.8080   16.1120  -22.8330 C.ar      1 8LC         0.1379
     22 C23       -18.2660   14.8330  -22.7530 C.ar      1 8LC         0.1223
     23 C24       -16.8690   14.6990  -22.5450 C.ar      1 8LC        -0.0372
     24 C25       -16.0900   15.8520  -22.4740 C.ar      1 8LC        -0.0763
     25 C26       -16.6290   17.1230  -22.6320 C.ar      1 8LC        -0.0617
     26 O27       -17.7570   19.6550  -22.8390 O.2       1 8LC        -0.3912
     27 O29       -21.5830   12.2580  -22.8090 O.3       1 8LC        -0.3357
     28 O30       -20.1500   16.2120  -22.9520 O.3       1 8LC        -0.3312
     29 O31       -19.0630   13.7490  -22.8690 O.3       1 8LC        -0.3357
     30 O1        -21.6060   14.1520  -24.6240 O.3       1 8LC        -0.3312
     31 H1        -22.8275   10.9671  -27.6818 H         1 8LC         0.0544
     32 H2        -22.5630    9.2094  -26.0201 H         1 8LC         0.0508
     33 H3        -22.0863    9.7800  -23.6685 H         1 8LC         0.0543
     34 H4        -21.9384   15.0518  -26.1372 H         1 8LC         0.1840
     35 H5        -22.9775   15.8111  -28.7436 H         1 8LC         0.0519
     36 H6        -21.2025   16.0255  -28.5704 H         1 8LC         0.0519
     37 H7        -21.6720   17.3836  -26.4657 H         1 8LC         0.0285
     38 H8        -23.4148   17.3164  -26.8955 H         1 8LC         0.0285
     39 H9        -22.7785   18.2516  -29.1211 H         1 8LC         0.0266
     40 H10       -21.1401   18.5323  -28.4402 H         1 8LC         0.0266
     41 H11       -23.7683   19.8116  -27.6186 H         1 8LC         0.0265
     42 H12       -22.3265   20.5924  -28.3524 H         1 8LC         0.0265
     43 H13       -22.5415   19.4275  -25.5264 H         1 8LC         0.0265
     44 H14       -22.4630   21.1650  -25.9754 H         1 8LC         0.0265
     45 H15       -20.2384   20.5869  -27.1150 H         1 8LC         0.0266
     46 H16       -20.3202   19.0365  -26.2114 H         1 8LC         0.0266
     47 H17       -20.3909   21.8276  -24.9114 H         1 8LC         0.0285
     48 H18       -18.9264   20.7960  -25.0442 H         1 8LC         0.0285
     49 H19       -21.5070   19.8870  -23.6854 H         1 8LC         0.0519
     50 H20       -20.1648   20.6991  -22.8104 H         1 8LC         0.0519
     51 H21       -20.2512   17.9655  -23.7724 H         1 8LC         0.1840
     52 H22       -16.4167   13.7191  -22.4433 H         1 8LC         0.0543
     53 H23       -15.0264   15.7541  -22.2891 H         1 8LC         0.0508
     54 H24       -15.9828   17.9932  -22.6181 H         1 8LC         0.0544
     55 H25       -21.4250   13.1947  -22.7971 H         1 8LC         0.2443
     56 H26       -20.4305   15.7688  -23.7441 H         1 8LC         0.2472
     57 H27       -19.9605   14.0301  -23.0031 H         1 8LC         0.2443
     58 H28       -22.2190   14.4037  -23.9433 H         1 8LC         0.2472
@<TRIPOS>BOND
     1    1    2 ar 
     2    1    6 ar 
     3    1   30 1  
     4    2    3 ar 
     5    2    7 1  
     6    3    4 ar 
     7    4    5 ar 
     8    5    6 ar 
     9    6   27 1  
    10    7    8 2  
    11    7    9 am 
    12    9   10 1  
    13   10   11 1  
    14   11   12 1  
    15   12   13 1  
    16   13   14 1  
    17   14   15 1  
    18   15   16 1  
    19   16   17 1  
    20   17   18 1  
    21   18   19 am 
    22   19   20 1  
    23   19   26 2  
    24   20   21 ar 
    25   20   25 ar 
    26   21   22 ar 
    27   21   28 1  
    28   22   23 ar 
    29   22   29 1  
    30   23   24 ar 
    31   24   25 ar 
    32    3   31 1  
    33    4   32 1  
    34    5   33 1  
    35    9   34 1  
    36   10   35 1  
    37   10   36 1  
    38   11   37 1  
    39   11   38 1  
    40   12   39 1  
    41   12   40 1  
    42   13   41 1  
    43   13   42 1  
    44   14   43 1  
    45   14   44 1  
    46   15   45 1  
    47   15   46 1  
    48   16   47 1  
    49   16   48 1  
    50   17   49 1  
    51   17   50 1  
    52   18   51 1  
    53   23   52 1  
    54   24   53 1  
    55   25   54 1  
    56   27   55 1  
    57   28   56 1  
    58   29   57 1  
    59   30   58 1  
@<TRIPOS>SUBSTRUCTURE
     1 8LC         1

