### 
### Created by X-TOOL on Mon Sep 10 21:13:28 2018
### 

@<TRIPOS>MOLECULE
5adq_ligand
   58    61     1     0     0
SMALL
GAST_HUCK


@<TRIPOS>ATOM
      1 C           1.6450   -4.6320  -22.4800 C.2       1 A95         0.2577
      2 N           0.7210   -5.5090  -22.8430 N.am      1 A95        -0.2299
      3 O           1.7090   -4.1640  -21.3630 O.2       1 A95        -0.3775
      4 C1          2.7090   -4.2890  -23.4660 C.2       1 A95         0.1908
      5 N1         -4.0020   -9.1350  -20.2250 N.am      1 A95        -0.2980
      6 O1          2.6800   -4.9350  -24.5500 O.3       1 A95        -0.2500
      7 C2          3.7350   -4.5000  -25.3540 C.2       1 A95         0.0866
      8 O2         -2.9150   -8.3210  -18.4820 O.2       1 A95        -0.3921
      9 C3          4.4380   -3.5510  -24.6480 C.2       1 A95        -0.0556
     10 O3         -2.0420  -13.8500  -24.0240 O.3       1 A95        -0.2963
     11 C4          3.7870   -3.4210  -23.4320 C.2       1 A95        -0.0431
     12 O4         -8.3320  -11.3790  -19.5740 O.3       1 A95        -0.3816
     13 C5         -0.1760   -6.1670  -22.0570 C.ar      1 A95         0.0712
     14 C6         -0.2530   -6.0350  -20.6850 C.ar      1 A95        -0.0350
     15 C7         -1.1980   -6.7350  -19.9380 C.ar      1 A95        -0.0554
     16 C8         -2.1300   -7.5720  -20.5610 C.ar      1 A95         0.0337
     17 C9         -2.0600   -7.7040  -21.9450 C.ar      1 A95        -0.0554
     18 C10        -1.1080   -6.9950  -22.6880 C.ar      1 A95        -0.0350
     19 C11        -3.0940   -8.3380  -19.6920 C.2       1 A95         0.1925
     20 C12        -4.7370  -10.1030  -19.4640 C.3       1 A95         0.0066
     21 C13        -5.5180  -11.0990  -20.3350 C.3       1 A95        -0.0247
     22 C14        -4.6080  -11.7920  -21.3580 C.ar      1 A95        -0.0598
     23 C15        -4.5680  -11.4520  -22.7280 C.ar      1 A95        -0.0460
     24 C16        -3.7260  -12.1170  -23.6360 C.ar      1 A95         0.0013
     25 C17        -2.8870  -13.1460  -23.1850 C.ar      1 A95         0.1287
     26 C18        -2.0340  -13.6610  -25.4540 C.3       1 A95         0.0687
     27 C19        -2.9090  -13.4800  -21.8400 C.ar      1 A95         0.0013
     28 C20        -3.7430  -12.8270  -20.9420 C.ar      1 A95        -0.0460
     29 C21        -6.6940  -10.4180  -21.0580 C.3       1 A95        -0.0523
     30 C22        -7.8880  -10.1520  -20.1520 C.3       1 A95         0.0392
     31 C23        -7.3610  -11.9070  -18.6700 C.3       1 A95         0.0392
     32 C24        -6.0570  -12.1930  -19.3900 C.3       1 A95        -0.0523
     33 H1          0.6762   -5.7146  -23.8206 H         1 A95         0.2271
     34 H2         -4.1856   -9.0600  -21.2051 H         1 A95         0.1828
     35 H3          3.9612   -4.8494  -26.3603 H         1 A95         0.1039
     36 H4          5.3250   -3.0121  -24.9778 H         1 A95         0.0364
     37 H5          4.0683   -2.7644  -22.6100 H         1 A95         0.0434
     38 H6          0.4376   -5.3715  -20.1772 H         1 A95         0.0517
     39 H7         -1.2113   -6.6297  -18.8592 H         1 A95         0.0630
     40 H8         -2.7520   -8.3647  -22.4546 H         1 A95         0.0630
     41 H9         -1.0939   -7.0899  -23.7678 H         1 A95         0.0517
     42 H10        -5.4507   -9.5701  -18.8185 H         1 A95         0.0405
     43 H11        -4.0283  -10.6669  -18.8398 H         1 A95         0.0405
     44 H12        -5.2059  -10.6540  -23.0904 H         1 A95         0.0823
     45 H13        -3.7252  -11.8350  -24.6827 H         1 A95         0.0651
     46 H14        -1.2841  -14.3258  -25.9075 H         1 A95         0.0597
     47 H15        -1.7836  -12.6149  -25.6842 H         1 A95         0.0597
     48 H16        -3.0281  -13.8982  -25.8608 H         1 A95         0.0597
     49 H17        -2.2596  -14.2699  -21.4804 H         1 A95         0.0651
     50 H18        -3.7295  -13.1186  -19.8981 H         1 A95         0.0823
     51 H19        -7.0202  -11.0687  -21.8827 H         1 A95         0.0176
     52 H20        -6.3443   -9.4577  -21.4649 H         1 A95         0.0176
     53 H21        -7.5933   -9.4561  -19.3527 H         1 A95         0.0550
     54 H22        -8.7037   -9.7087  -20.7419 H         1 A95         0.0550
     55 H23        -7.7445  -12.8409  -18.2333 H         1 A95         0.0550
     56 H24        -7.1781  -11.1756  -17.8690 H         1 A95         0.0550
     57 H25        -5.2893  -12.3759  -18.6237 H         1 A95         0.0176
     58 H26        -6.2025  -13.1046  -19.9882 H         1 A95         0.0176
@<TRIPOS>BOND
     1    2    1 am 
     2    1    3 2  
     3    1    4 1  
     4   13    2 1  
     5    4    6 1  
     6    4   11 2  
     7    5   19 am 
     8   20    5 1  
     9    6    7 1  
    10    9    7 2  
    11   19    8 2  
    12   11    9 1  
    13   25   10 1  
    14   10   26 1  
    15   30   12 1  
    16   12   31 1  
    17   14   13 ar 
    18   18   13 ar 
    19   15   14 ar 
    20   16   15 ar 
    21   16   17 ar 
    22   19   16 1  
    23   17   18 ar 
    24   21   20 1  
    25   21   22 1  
    26   29   21 1  
    27   21   32 1  
    28   22   23 ar 
    29   22   28 ar 
    30   23   24 ar 
    31   24   25 ar 
    32   27   25 ar 
    33   28   27 ar 
    34   29   30 1  
    35   31   32 1  
    36    2   33 1  
    37    5   34 1  
    38    7   35 1  
    39    9   36 1  
    40   11   37 1  
    41   14   38 1  
    42   15   39 1  
    43   17   40 1  
    44   18   41 1  
    45   20   42 1  
    46   20   43 1  
    47   23   44 1  
    48   24   45 1  
    49   26   46 1  
    50   26   47 1  
    51   26   48 1  
    52   27   49 1  
    53   28   50 1  
    54   29   51 1  
    55   29   52 1  
    56   30   53 1  
    57   30   54 1  
    58   31   55 1  
    59   31   56 1  
    60   32   57 1  
    61   32   58 1  
@<TRIPOS>SUBSTRUCTURE
     1 A95         1

