### 
### Created by X-TOOL on Mon Sep 10 21:13:28 2018
### 

@<TRIPOS>MOLECULE
5adr_ligand
   61    64     1     0     0
SMALL
GAST_HUCK


@<TRIPOS>ATOM
      1 CAY         5.1900   -3.6570   26.6250 C.3       1 QS5         0.0042
      2 CAX         4.6240   -3.2700   25.2390 C.2       1 QS5         0.1029
      3 OAZ         5.1180   -2.2790   24.5340 O.3       1 QS5        -0.2477
      4 CAW         3.6030   -3.8370   24.5730 C.2       1 QS5        -0.0566
      5 CAV         3.4570   -3.1630   23.4050 C.2       1 QS5        -0.0542
      6 CAU         4.3650   -2.1850   23.3890 C.2       1 QS5         0.1808
      7 CAS         4.6330   -1.2930   22.4180 C.2       1 QS5         0.2490
      8 OAT         4.0950   -1.3830   21.3250 O.2       1 QS5        -0.3830
      9 NAR         5.5840   -0.4040   22.7790 N.am      1 QS5        -0.2317
     10 CAQ         6.1650    0.4930   21.9770 C.ar      1 QS5         0.0709
     11 CBA         6.0290    0.5460   20.5920 C.ar      1 QS5        -0.0351
     12 CBB         6.7340    1.4770   19.8520 C.ar      1 QS5        -0.0555
     13 CAP         7.0390    1.3860   22.5670 C.ar      1 QS5        -0.0351
     14 CAO         7.7540    2.3210   21.8300 C.ar      1 QS5        -0.0555
     15 CAN         7.5910    2.4100   20.4390 C.ar      1 QS5         0.0337
     16 CAL         8.3240    3.2970   19.6080 C.2       1 QS5         0.1925
     17 OAM         8.3720    3.1320   18.3890 O.2       1 QS5        -0.3921
     18 NAK         9.1230    4.1760   20.1860 N.am      1 QS5        -0.2980
     19 CAJ         9.9650    4.9680   19.3290 C.3       1 QS5         0.0066
     20 CAI        11.0390    5.7240   20.1260 C.3       1 QS5        -0.0247
     21 CBC        10.3650    6.8780   20.8770 C.3       1 QS5        -0.0523
     22 CBD        10.3880    8.0960   20.0280 C.3       1 QS5         0.0392
     23 OBE        11.7700    8.4770   19.8140 O.3       1 QS5        -0.3816
     24 CBF        12.2110    7.6670   18.7280 C.3       1 QS5         0.0392
     25 CBG        12.1420    6.2110   19.1050 C.3       1 QS5        -0.0523
     26 CAF        11.7090    4.8250   21.0700 C.ar      1 QS5        -0.0598
     27 CAE        12.7130    3.9170   20.6730 C.ar      1 QS5        -0.0460
     28 CAD        13.3590    3.0810   21.5810 C.ar      1 QS5         0.0013
     29 CAC        13.0520    3.1130   22.9410 C.ar      1 QS5         0.1287
     30 OAB        13.7450    2.2800   23.7980 O.3       1 QS5        -0.2963
     31 CAA        13.4740    2.3870   25.2010 C.3       1 QS5         0.0687
     32 CAH        12.0590    3.9790   23.3610 C.ar      1 QS5         0.0013
     33 CAG        11.4270    4.8270   22.4450 C.ar      1 QS5        -0.0460
     34 H1          4.6242   -4.5105   27.0268 H         1 QS5         0.0442
     35 H2          5.0988   -2.8014   27.3103 H         1 QS5         0.0442
     36 H3          6.2496   -3.9345   26.5239 H         1 QS5         0.0442
     37 H4          3.0036   -4.6817   24.9093 H         1 QS5         0.0265
     38 H5          2.7311   -3.3803   22.6228 H         1 QS5         0.0410
     39 H6          5.8803   -0.4186   23.7340 H         1 QS5         0.2268
     40 H7          5.3649   -0.1484   20.0901 H         1 QS5         0.0517
     41 H8          6.6169    1.4828   18.7744 H         1 QS5         0.0630
     42 H9          7.1711    1.3557   23.6425 H         1 QS5         0.0517
     43 H10         8.4442    2.9881   22.3337 H         1 QS5         0.0630
     44 H11         9.1419    4.2866   21.1797 H         1 QS5         0.1828
     45 H12         9.3409    5.6973   18.7917 H         1 QS5         0.0405
     46 H13        10.4601    4.3048   18.6044 H         1 QS5         0.0405
     47 H14        10.9072    7.0730   21.8140 H         1 QS5         0.0176
     48 H15         9.3231    6.6090   21.1054 H         1 QS5         0.0176
     49 H16         9.8516    8.9121   20.5341 H         1 QS5         0.0550
     50 H17         9.9068    7.8847   19.0617 H         1 QS5         0.0550
     51 H18        13.2496    7.9288   18.4776 H         1 QS5         0.0550
     52 H19        11.5667    7.8473   17.8549 H         1 QS5         0.0550
     53 H20        11.9879    5.6462   18.1737 H         1 QS5         0.0176
     54 H21        13.1180    5.9458   19.5375 H         1 QS5         0.0176
     55 H22        12.9911    3.8682   19.6264 H         1 QS5         0.0823
     56 H23        14.1154    2.3918   21.2233 H         1 QS5         0.0651
     57 H24        14.0969    1.6660   25.7508 H         1 QS5         0.0597
     58 H25        12.4117    2.1703   25.3869 H         1 QS5         0.0597
     59 H26        13.7055    3.4067   25.5425 H         1 QS5         0.0597
     60 H27        11.7688    4.0009   24.4052 H         1 QS5         0.0651
     61 H28        10.6815    5.5210   22.8162 H         1 QS5         0.0823
@<TRIPOS>BOND
     1    1    2 1  
     2    2    3 1  
     3    2    4 2  
     4    3    6 1  
     5    4    5 1  
     6    5    6 2  
     7    6    7 1  
     8    7    8 2  
     9    7    9 am 
    10    9   10 1  
    11   10   11 ar 
    12   10   13 ar 
    13   11   12 ar 
    14   12   15 ar 
    15   13   14 ar 
    16   14   15 ar 
    17   15   16 1  
    18   16   17 2  
    19   16   18 am 
    20   18   19 1  
    21   19   20 1  
    22   20   21 1  
    23   20   25 1  
    24   20   26 1  
    25   21   22 1  
    26   22   23 1  
    27   23   24 1  
    28   24   25 1  
    29   26   27 ar 
    30   26   33 ar 
    31   27   28 ar 
    32   28   29 ar 
    33   29   30 1  
    34   29   32 ar 
    35   30   31 1  
    36   32   33 ar 
    37    1   34 1  
    38    1   35 1  
    39    1   36 1  
    40    4   37 1  
    41    5   38 1  
    42    9   39 1  
    43   11   40 1  
    44   12   41 1  
    45   13   42 1  
    46   14   43 1  
    47   18   44 1  
    48   19   45 1  
    49   19   46 1  
    50   21   47 1  
    51   21   48 1  
    52   22   49 1  
    53   22   50 1  
    54   24   51 1  
    55   24   52 1  
    56   25   53 1  
    57   25   54 1  
    58   27   55 1  
    59   28   56 1  
    60   31   57 1  
    61   31   58 1  
    62   31   59 1  
    63   32   60 1  
    64   33   61 1  
@<TRIPOS>SUBSTRUCTURE
     1 QS5         1

