### 
### Created by X-TOOL on Mon Sep 10 21:13:27 2018
### 

@<TRIPOS>MOLECULE
5ads_ligand
   58    61     1     0     0
SMALL
GAST_HUCK


@<TRIPOS>ATOM
      1 CAA        13.7180    1.8980   25.1310 C.3       1 QNS         0.0687
      2 OAB        14.0680    1.8190   23.7080 O.3       1 QNS        -0.2963
      3 CAC        13.2740    2.6040   22.8660 C.ar      1 QNS         0.1287
      4 CAD        12.3260    3.5200   23.3300 C.ar      1 QNS         0.0013
      5 CAE        11.5770    4.3140   22.4470 C.ar      1 QNS        -0.0460
      6 CAF        11.7090    4.1970   21.0530 C.ar      1 QNS        -0.0598
      7 CAG        12.6650    3.2600   20.5900 C.ar      1 QNS        -0.0460
      8 CAH        13.4120    2.4760   21.4890 C.ar      1 QNS         0.0013
      9 CAI        10.9280    4.9950   20.0760 C.3       1 QNS        -0.0247
     10 CAJ        10.0000    4.0270   19.2890 C.3       1 QNS         0.0066
     11 NAK         9.1610    3.1800   20.1600 N.am      1 QNS        -0.2980
     12 CAL         8.1060    2.5250   19.6910 C.2       1 QNS         0.1928
     13 OAM         7.9500    2.5200   18.4690 O.2       1 QNS        -0.3921
     14 CAN         7.4430    1.5950   20.5480 C.ar      1 QNS         0.0474
     15 CAO         7.6190    1.4630   21.9440 C.ar      1 QNS         0.0473
     16 CLA         8.7170    2.6290   22.9100 Cl        1 QNS        -0.0688
     17 CAQ         6.9590    0.4530   22.6640 C.ar      1 QNS        -0.0213
     18 CAR         6.1080   -0.4650   22.0670 C.ar      1 QNS         0.0716
     19 NAS         5.5840   -1.4360   22.8340 N.am      1 QNS        -0.2300
     20 CAT         4.6710   -2.3360   22.4500 C.2       1 QNS         0.2577
     21 OAU         3.9920   -2.2840   21.4230 O.2       1 QNS        -0.3775
     22 CAV         4.4620   -3.2770   23.3890 C.2       1 QNS         0.1908
     23 CAW         3.5530   -4.2360   23.3640 C.2       1 QNS        -0.0431
     24 CAX         3.6740   -4.9940   24.4630 C.2       1 QNS        -0.0556
     25 CAY         4.6750   -4.5220   25.2150 C.2       1 QNS         0.0866
     26 OAZ         5.2190   -3.4150   24.5520 O.3       1 QNS        -0.2500
     27 CBA         5.9730   -0.3550   20.6890 C.ar      1 QNS        -0.0349
     28 CBB         6.6240    0.6370   19.9830 C.ar      1 QNS        -0.0550
     29 CBC        11.9230    5.5320   19.0920 C.3       1 QNS        -0.0523
     30 CBD        12.0000    7.0760   18.9390 C.3       1 QNS         0.0392
     31 OBE        11.5960    7.7610   20.1390 O.3       1 QNS        -0.3816
     32 CBF        10.1850    7.4550   20.2290 C.3       1 QNS         0.0392
     33 CBG         9.9860    6.0790   20.7480 C.3       1 QNS        -0.0523
     34 H1         14.3927    1.2511   25.7110 H         1 QNS         0.0597
     35 H2         12.6793    1.5647   25.2722 H         1 QNS         0.0597
     36 H3         13.8198    2.9373   25.4765 H         1 QNS         0.0597
     37 H4         12.1651    3.6199   24.3973 H         1 QNS         0.0651
     38 H5         10.8779    5.0369   22.8516 H         1 QNS         0.0823
     39 H6         12.8242    3.1447   19.5240 H         1 QNS         0.0823
     40 H7         14.1156    1.7511   21.0959 H         1 QNS         0.0651
     41 H8         10.6272    3.3725   18.6659 H         1 QNS         0.0405
     42 H9          9.3397    4.6249   18.6436 H         1 QNS         0.0405
     43 H10         9.3937    3.0976   21.1290 H         1 QNS         0.1828
     44 H11         7.1222    0.3884   23.7337 H         1 QNS         0.0522
     45 H12         5.9060   -1.4912   23.7791 H         1 QNS         0.2271
     46 H13         2.8195   -4.3870   22.5733 H         1 QNS         0.0434
     47 H14         3.0557   -5.8571   24.7053 H         1 QNS         0.0364
     48 H15         5.0068   -4.9259   26.1704 H         1 QNS         0.1039
     49 H16         5.3449   -1.0611   20.1580 H         1 QNS         0.0519
     50 H17         6.4822    0.6661   18.9087 H         1 QNS         0.0630
     51 H18        11.6742    5.1128   18.1059 H         1 QNS         0.0176
     52 H19        12.9182    5.1790   19.4000 H         1 QNS         0.0176
     53 H20        11.3390    7.3840   18.1155 H         1 QNS         0.0550
     54 H21        13.0366    7.3575   18.7021 H         1 QNS         0.0550
     55 H22         9.7325    7.5343   19.2295 H         1 QNS         0.0550
     56 H23         9.7012    8.1721   20.9085 H         1 QNS         0.0550
     57 H24        10.1829    6.0855   21.8302 H         1 QNS         0.0176
     58 H25         8.9405    5.7888   20.5672 H         1 QNS         0.0176
@<TRIPOS>BOND
     1    1    2 1  
     2    2    3 1  
     3    3    4 ar 
     4    3    8 ar 
     5    4    5 ar 
     6    5    6 ar 
     7    6    7 ar 
     8    6    9 1  
     9    7    8 ar 
    10    9   10 1  
    11    9   29 1  
    12    9   33 1  
    13   10   11 1  
    14   11   12 am 
    15   12   13 2  
    16   12   14 1  
    17   14   15 ar 
    18   14   28 ar 
    19   15   16 1  
    20   15   17 ar 
    21   17   18 ar 
    22   18   19 1  
    23   18   27 ar 
    24   19   20 am 
    25   20   21 2  
    26   20   22 1  
    27   22   23 2  
    28   22   26 1  
    29   23   24 1  
    30   24   25 2  
    31   25   26 1  
    32   27   28 ar 
    33   29   30 1  
    34   30   31 1  
    35   31   32 1  
    36   32   33 1  
    37    1   34 1  
    38    1   35 1  
    39    1   36 1  
    40    4   37 1  
    41    5   38 1  
    42    7   39 1  
    43    8   40 1  
    44   10   41 1  
    45   10   42 1  
    46   11   43 1  
    47   17   44 1  
    48   19   45 1  
    49   23   46 1  
    50   24   47 1  
    51   25   48 1  
    52   27   49 1  
    53   28   50 1  
    54   29   51 1  
    55   29   52 1  
    56   30   53 1  
    57   30   54 1  
    58   32   55 1  
    59   32   56 1  
    60   33   57 1  
    61   33   58 1  
@<TRIPOS>SUBSTRUCTURE
     1 QNS         1

