### 
### Created by X-TOOL on Mon Sep 10 21:13:27 2018
### 

@<TRIPOS>MOLECULE
5adt_ligand
   60    63     1     0     0
SMALL
GAST_HUCK


@<TRIPOS>ATOM
      1 CAZ         4.8200   -4.6630   26.6480 C.3       1 1TC         0.0278
      2 CAY         4.2980   -4.1360   25.2900 C.2       1 1TC         0.1817
      3 OBA         4.8810   -3.1440   24.6170 O.3       1 1TC        -0.2148
      4 NAX         3.2300   -4.5800   24.6330 N.2       1 1TC        -0.3052
      5 CAW         3.1340   -3.8270   23.5210 C.2       1 1TC         0.0098
      6 CAV         4.1460   -2.9570   23.4910 C.2       1 1TC         0.2060
      7 CAT         4.4260   -2.0220   22.5480 C.2       1 1TC         0.2574
      8 OAU         3.6990   -1.8470   21.5680 O.2       1 1TC        -0.3783
      9 NAS         5.4650   -1.2510   22.8800 N.am      1 1TC        -0.2302
     10 CAR         6.0300   -0.3040   22.1280 C.ar      1 1TC         0.0716
     11 CAQ         6.7550    0.7060   22.7460 C.ar      1 1TC        -0.0213
     12 CAO         7.4310    1.7050   22.0270 C.ar      1 1TC         0.0473
     13 CLA         8.3130    3.0270   22.9740 Cl        1 1TC        -0.0688
     14 CBB         6.0270   -0.3220   20.7620 C.ar      1 1TC        -0.0349
     15 CBC         6.6990    0.6620   20.0400 C.ar      1 1TC        -0.0550
     16 CAN         7.4100    1.7060   20.6200 C.ar      1 1TC         0.0474
     17 CAL         8.0930    2.6170   19.7500 C.2       1 1TC         0.1928
     18 OAM         7.9280    2.6030   18.5270 O.2       1 1TC        -0.3921
     19 NAK         9.1480    3.2890   20.2330 N.am      1 1TC        -0.2980
     20 CAJ         9.9850    4.0710   19.3500 C.3       1 1TC         0.0066
     21 CAI        10.8330    5.1230   20.1100 C.3       1 1TC        -0.0247
     22 CBD         9.8570    6.1050   20.7790 C.3       1 1TC        -0.0523
     23 CBE        10.2190    7.5410   20.4230 C.3       1 1TC         0.0392
     24 OBF        11.6430    7.7720   20.4640 O.3       1 1TC        -0.3816
     25 CBG        12.2750    7.1730   19.3410 C.3       1 1TC         0.0392
     26 CBH        11.6450    5.7930   18.9950 C.3       1 1TC        -0.0523
     27 CAF        11.6610    4.3780   21.0950 C.ar      1 1TC        -0.0598
     28 CAE        11.4490    4.3850   22.5070 C.ar      1 1TC        -0.0460
     29 CAD        12.2190    3.6480   23.4220 C.ar      1 1TC         0.0013
     30 CAC        13.2650    2.8350   22.9340 C.ar      1 1TC         0.1287
     31 OAB        14.1190    2.0870   23.6970 O.3       1 1TC        -0.2963
     32 CAA        13.9760    2.0850   25.1630 C.3       1 1TC         0.0687
     33 CAH        13.4850    2.8270   21.5590 C.ar      1 1TC         0.0013
     34 CAG        12.7150    3.5580   20.6660 C.ar      1 1TC        -0.0460
     35 H1          4.1712   -5.4793   26.9984 H         1 1TC         0.0498
     36 H2          4.8129   -3.8468   27.3853 H         1 1TC         0.0498
     37 H3          5.8469   -5.0377   26.5257 H         1 1TC         0.0498
     38 H4          2.3543   -3.9139   22.7657 H         1 1TC         0.0592
     39 H5          5.8608   -1.3987   23.7864 H         1 1TC         0.2270
     40 H6          6.8011    0.7242   23.8289 H         1 1TC         0.0522
     41 H7          5.4976   -1.1080   20.2357 H         1 1TC         0.0519
     42 H8          6.6652    0.6101   18.9578 H         1 1TC         0.0630
     43 H9          9.3574    3.2492   21.2100 H         1 1TC         0.1828
     44 H10         9.3423    4.5930   18.6258 H         1 1TC         0.0405
     45 H11        10.6641    3.3913   18.8144 H         1 1TC         0.0405
     46 H12         9.9076    5.9788   21.8706 H         1 1TC         0.0176
     47 H13         8.8349    5.8926   20.4322 H         1 1TC         0.0176
     48 H14         9.7300    8.2174   21.1395 H         1 1TC         0.0550
     49 H15         9.8546    7.7566   19.4078 H         1 1TC         0.0550
     50 H16        13.3424    7.0313   19.5660 H         1 1TC         0.0550
     51 H17        12.1686    7.8410   18.4736 H         1 1TC         0.0550
     52 H18        10.9776    5.9352   18.1323 H         1 1TC         0.0176
     53 H19        12.4621    5.1107   18.7179 H         1 1TC         0.0176
     54 H20        10.6439    4.9971   22.8971 H         1 1TC         0.0823
     55 H21        12.0135    3.7026   24.4849 H         1 1TC         0.0651
     56 H22        14.7432    1.4325   25.6053 H         1 1TC         0.0597
     57 H23        12.9771    1.7121   25.4335 H         1 1TC         0.0597
     58 H24        14.1010    3.1089   25.5450 H         1 1TC         0.0597
     59 H25        14.2951    2.2218   21.1684 H         1 1TC         0.0651
     60 H26        12.9342    3.4936   19.6063 H         1 1TC         0.0823
@<TRIPOS>BOND
     1    1    2 1  
     2    2    3 1  
     3    2    4 2  
     4    3    6 1  
     5    4    5 1  
     6    5    6 2  
     7    6    7 1  
     8    7    8 2  
     9    7    9 am 
    10    9   10 1  
    11   10   11 ar 
    12   10   14 ar 
    13   11   12 ar 
    14   12   13 1  
    15   12   16 ar 
    16   14   15 ar 
    17   15   16 ar 
    18   16   17 1  
    19   17   18 2  
    20   17   19 am 
    21   19   20 1  
    22   20   21 1  
    23   21   22 1  
    24   21   26 1  
    25   21   27 1  
    26   22   23 1  
    27   23   24 1  
    28   24   25 1  
    29   25   26 1  
    30   27   28 ar 
    31   27   34 ar 
    32   28   29 ar 
    33   29   30 ar 
    34   30   31 1  
    35   30   33 ar 
    36   31   32 1  
    37   33   34 ar 
    38    1   35 1  
    39    1   36 1  
    40    1   37 1  
    41    5   38 1  
    42    9   39 1  
    43   11   40 1  
    44   14   41 1  
    45   15   42 1  
    46   19   43 1  
    47   20   44 1  
    48   20   45 1  
    49   22   46 1  
    50   22   47 1  
    51   23   48 1  
    52   23   49 1  
    53   25   50 1  
    54   25   51 1  
    55   26   52 1  
    56   26   53 1  
    57   28   54 1  
    58   29   55 1  
    59   32   56 1  
    60   32   57 1  
    61   32   58 1  
    62   33   59 1  
    63   34   60 1  
@<TRIPOS>SUBSTRUCTURE
     1 1TC         1

