### 
### Created by X-TOOL on Mon Sep 10 21:13:29 2018
### 

@<TRIPOS>MOLECULE
5aeh_ligand
   52    55     1     0     0
SMALL
GAST_HUCK


@<TRIPOS>ATOM
      1 CL         26.0000    5.8180  -30.5290 Cl        1 8IR        -0.0798
      2 CBB        27.3790    6.2070  -29.3910 C.ar      1 8IR         0.0675
      3 CBD        28.5520    6.7320  -29.9340 C.ar      1 8IR        -0.0583
      4 CBE        29.6460    7.0520  -29.1480 C.ar      1 8IR        -0.0740
      5 CBF        29.5980    6.8630  -27.7810 C.ar      1 8IR        -0.0721
      6 CBG        28.4500    6.3420  -27.2130 C.ar      1 8IR        -0.0326
      7 CBA        27.3550    6.0070  -27.9950 C.ar      1 8IR         0.1128
      8 NAT        26.2730    5.5180  -27.3990 N.am      1 8IR        -0.1468
      9 C4         25.1610    6.2510  -27.2410 C.ar      1 8IR         0.1815
     10 N3         24.0220    5.7960  -27.8070 N.ar      1 8IR        -0.2458
     11 C2         22.8330    6.5000  -27.6710 C.ar      1 8IR         0.0706
     12 N1         22.8000    7.6860  -26.9260 N.ar      1 8IR        -0.2850
     13 C6         23.9810    8.1460  -26.3180 C.ar      1 8IR         0.0127
     14 C5         25.1560    7.4230  -26.4830 C.ar      1 8IR         0.0160
     15 CAR        26.2920    4.3220  -26.8420 C.2       1 8IR         0.2546
     16 OAS        25.3290    3.8900  -26.2380 O.2       1 8IR        -0.3662
     17 CAO        27.4560    3.5670  -27.0450 C.ar      1 8IR         0.0472
     18 CAP        27.8250    3.3020  -28.3660 C.ar      1 8IR        -0.0543
     19 CAQ        28.9580    2.5460  -28.6610 C.ar      1 8IR        -0.0349
     20 CAN        28.2390    3.0510  -26.0110 C.ar      1 8IR        -0.0543
     21 CAM        29.3850    2.2990  -26.3050 C.ar      1 8IR        -0.0349
     22 CAL        29.7610    2.0280  -27.6380 C.ar      1 8IR         0.0715
     23 NAA        30.8920    1.3370  -27.9670 N.am      1 8IR        -0.2314
     24 CAB        31.1860    0.1210  -27.4430 C.2       1 8IR         0.2262
     25 OAC        30.4930   -0.5020  -26.6410 O.2       1 8IR        -0.3771
     26 CAD        32.4150   -0.3880  -27.8720 C.ar      1 8IR         0.0451
     27 CAE        32.7860   -1.7040  -27.6710 C.ar      1 8IR        -0.0499
     28 CAF        34.0350   -2.1450  -28.0960 C.ar      1 8IR        -0.0269
     29 CAG        34.9290   -1.2750  -28.7210 C.ar      1 8IR         0.0962
     30 OAH        36.1160   -1.7470  -29.1490 O.3       1 8IR        -0.3177
     31 CAI        37.2230   -0.8360  -29.1330 C.3       1 8IR         0.0607
     32 CAJ        34.5580    0.0370  -28.9350 C.ar      1 8IR        -0.0269
     33 CAK        33.3070    0.4650  -28.5030 C.ar      1 8IR        -0.0499
     34 H1         28.6086    6.8944  -31.0043 H         1 8IR         0.0590
     35 H2         30.5428    7.4521  -29.6071 H         1 8IR         0.0510
     36 H3         30.4494    7.1198  -27.1611 H         1 8IR         0.0586
     37 H4         28.4054    6.1932  -26.1402 H         1 8IR         0.0532
     38 H5         21.9289    6.1314  -28.1420 H         1 8IR         0.1079
     39 H6         23.9751    9.0547  -25.7270 H         1 8IR         0.0875
     40 H7         26.0729    7.7707  -26.0210 H         1 8IR         0.0682
     41 H8         27.2192    3.6914  -29.1762 H         1 8IR         0.0630
     42 H9         29.2207    2.3567  -29.6955 H         1 8IR         0.0518
     43 H10        27.9605    3.2320  -24.9791 H         1 8IR         0.0630
     44 H11        29.9940    1.9184  -25.4930 H         1 8IR         0.0518
     45 H12        31.5295    1.7442  -28.6210 H         1 8IR         0.2275
     46 H13        32.1048   -2.3915  -27.1829 H         1 8IR         0.0642
     47 H14        34.3178   -3.1797  -27.9393 H         1 8IR         0.0556
     48 H15        38.1236   -1.3468  -29.5046 H         1 8IR         0.0580
     49 H16        37.3970   -0.4884  -28.1040 H         1 8IR         0.0580
     50 H17        36.9979    0.0260  -29.7781 H         1 8IR         0.0580
     51 H18        35.2322    0.7245  -29.4329 H         1 8IR         0.0556
     52 H19        33.0207    1.4979  -28.6649 H         1 8IR         0.0642
@<TRIPOS>BOND
     1    1    2 1  
     2    2    3 ar 
     3    2    7 ar 
     4    3    4 ar 
     5    4    5 ar 
     6    5    6 ar 
     7    6    7 ar 
     8    7    8 1  
     9    8    9 1  
    10    8   15 am 
    11    9   10 ar 
    12    9   14 ar 
    13   10   11 ar 
    14   11   12 ar 
    15   12   13 ar 
    16   13   14 ar 
    17   15   16 2  
    18   15   17 1  
    19   17   18 ar 
    20   17   20 ar 
    21   18   19 ar 
    22   19   22 ar 
    23   20   21 ar 
    24   21   22 ar 
    25   22   23 1  
    26   23   24 am 
    27   24   25 2  
    28   24   26 1  
    29   26   27 ar 
    30   26   33 ar 
    31   27   28 ar 
    32   28   29 ar 
    33   29   30 1  
    34   29   32 ar 
    35   30   31 1  
    36   32   33 ar 
    37    3   34 1  
    38    4   35 1  
    39    5   36 1  
    40    6   37 1  
    41   11   38 1  
    42   13   39 1  
    43   14   40 1  
    44   18   41 1  
    45   19   42 1  
    46   20   43 1  
    47   21   44 1  
    48   23   45 1  
    49   27   46 1  
    50   28   47 1  
    51   31   48 1  
    52   31   49 1  
    53   31   50 1  
    54   32   51 1  
    55   33   52 1  
@<TRIPOS>SUBSTRUCTURE
     1 8IR         1

