### 
### Created by X-TOOL on Mon Sep 10 21:13:22 2018
### 

@<TRIPOS>MOLECULE
5aen_ligand
   39    40     1     0     0
SMALL
GAST_HUCK


@<TRIPOS>ATOM
      1 C           5.4580   -2.8940   -0.6780 C.3       1 DP8        -0.0433
      2 N           4.9810   -1.8670   -1.5540 N.4       1 DP8         0.2328
      3 O           7.3480   -0.6490   -1.6890 O.3       1 DP8        -0.3194
      4 C01        13.9420   -2.3650    1.8730 C.ar      1 DP8        -0.0699
      5 O01        12.4180    0.6240    0.2890 O.3       1 DP8        -0.2649
      6 C02        14.3230   -1.8260    3.0900 C.ar      1 DP8        -0.0725
      7 C03        14.0600   -0.4880    3.3720 C.ar      1 DP8        -0.0699
      8 C04        13.4160    0.3090    2.4380 C.ar      1 DP8        -0.0290
      9 C05        13.0290   -0.2230    1.2250 C.ar      1 DP8         0.1133
     10 C06        13.2880   -1.5590    0.9300 C.ar      1 DP8        -0.0290
     11 C07        11.1390    0.2610   -0.2190 C.ar      1 DP8         0.1050
     12 C08        10.0270    0.4230    0.5800 C.ar      1 DP8        -0.0367
     13 C09         8.7960    0.1280    0.0760 C.ar      1 DP8        -0.0404
     14 C10         8.6690   -0.3520   -1.2260 C.ar      1 DP8         0.0809
     15 C11         9.7830   -0.5030   -2.0340 C.ar      1 DP8        -0.0404
     16 C12        11.0190   -0.1870   -1.5310 C.ar      1 DP8        -0.0367
     17 C13         7.1940   -1.6870   -2.6420 C.3       1 DP8         0.1079
     18 C14         5.6980   -1.8650   -2.8110 C.3       1 DP8        -0.0043
     19 C15         3.5830   -2.1430   -1.8110 C.3       1 DP8        -0.0433
     20 H1          4.8912   -2.8647    0.2642 H         1 DP8         0.0777
     21 H2          6.5255   -2.7310   -0.4689 H         1 DP8         0.0777
     22 H3          5.3237   -3.8755   -1.1562 H         1 DP8         0.0777
     23 H4          5.0829   -0.9676   -1.1103 H         1 DP8         0.2029
     24 H5         14.1483   -3.4056    1.6500 H         1 DP8         0.0590
     25 H6         14.8261   -2.4457    3.8234 H         1 DP8         0.0526
     26 H7         14.3599   -0.0680    4.3253 H         1 DP8         0.0590
     27 H8         13.2163    1.3509    2.6608 H         1 DP8         0.0550
     28 H9         12.9854   -1.9742   -0.0245 H         1 DP8         0.0550
     29 H10        10.1310    0.7811    1.5978 H         1 DP8         0.0527
     30 H11         7.9132    0.2671    0.6894 H         1 DP8         0.0518
     31 H12         9.6797   -0.8660   -3.0502 H         1 DP8         0.0518
     32 H13        11.9006   -0.2860   -2.1540 H         1 DP8         0.0527
     33 H14         7.6524   -2.6170   -2.2746 H         1 DP8         0.0663
     34 H15         7.6574   -1.4025   -3.5982 H         1 DP8         0.0663
     35 H16         5.3153   -1.0410   -3.4311 H         1 DP8         0.0841
     36 H17         5.5147   -2.8227   -3.3201 H         1 DP8         0.0841
     37 H18         3.0292   -2.1466   -0.8606 H         1 DP8         0.0777
     38 H19         3.4863   -3.1259   -2.2954 H         1 DP8         0.0777
     39 H20         3.1714   -1.3662   -2.4722 H         1 DP8         0.0777
@<TRIPOS>BOND
     1    2    1 1  
     2   18    2 1  
     3    2   19 1  
     4    3   14 1  
     5   17    3 1  
     6    4    6 ar 
     7   10    4 ar 
     8    5    9 1  
     9   11    5 1  
    10    7    6 ar 
    11    8    7 ar 
    12    9    8 ar 
    13    9   10 ar 
    14   12   11 ar 
    15   16   11 ar 
    16   13   12 ar 
    17   14   13 ar 
    18   14   15 ar 
    19   15   16 ar 
    20   17   18 1  
    21    1   20 1  
    22    1   21 1  
    23    1   22 1  
    24    2   23 1  
    25    4   24 1  
    26    6   25 1  
    27    7   26 1  
    28    8   27 1  
    29   10   28 1  
    30   12   29 1  
    31   13   30 1  
    32   15   31 1  
    33   16   32 1  
    34   17   33 1  
    35   17   34 1  
    36   18   35 1  
    37   18   36 1  
    38   19   37 1  
    39   19   38 1  
    40   19   39 1  
@<TRIPOS>SUBSTRUCTURE
     1 DP8         1

