### 
### Created by X-TOOL on Mon Sep 10 21:13:22 2018
### 

@<TRIPOS>MOLECULE
5aep_ligand
   39    42     1     0     0
SMALL
GAST_HUCK


@<TRIPOS>ATOM
      1 CL         33.7200   17.6830   -7.4440 Cl        1 QUP        -0.0786
      2 C19        32.8160   17.1220   -5.9980 C.ar      1 QUP         0.0300
      3 C18        32.7020   15.7630   -5.7330 C.ar      1 QUP        -0.0178
      4 C21        32.2320   18.0430   -5.1450 C.ar      1 QUP        -0.0607
      5 C22        31.5430   17.5740   -4.0390 C.ar      1 QUP        -0.0627
      6 C23        31.4420   16.2090   -3.7950 C.ar      1 QUP        -0.0084
      7 C24        30.6830   15.7440   -2.5810 C.3       1 QUP        -0.0299
      8 C17        32.0160   15.2570   -4.6290 C.ar      1 QUP         0.1029
      9 N16        31.9170   13.9450   -4.3900 N.pl3     1 QUP        -0.2138
     10 C12        30.8920   13.2200   -4.8260 C.2       1 QUP         0.1457
     11 C13        29.7180   13.6850   -5.6180 C.2       1 QUP         0.2176
     12 N15        29.7480   14.9020   -6.1540 N.am      1 QUP        -0.3010
     13 O14        28.7600   12.9430   -5.7570 O.2       1 QUP        -0.3919
     14 C11        31.1580   11.9320   -4.3790 C.2       1 QUP        -0.0393
     15 C25        32.8380   13.2780   -3.7000 C.2       1 QUP         0.0656
     16 C1         32.3650   11.9690   -3.6810 C.2       1 QUP         0.0126
     17 C2         33.0330   10.8080   -3.0270 C.2       1 QUP         0.0691
     18 N10        32.5220    9.5620   -3.1570 N.2       1 QUP        -0.2877
     19 C9         33.1100    8.5040   -2.5760 C.2       1 QUP         0.0897
     20 N8         34.2240    8.6510   -1.8470 N.2       1 QUP        -0.1546
     21 N7         34.7540    9.9360   -1.7110 N.pl3     1 QUP        -0.1634
     22 C3         34.1870   10.9940   -2.2780 C.2       1 QUP         0.1193
     23 C6         35.8520   10.2720   -1.0260 C.2       1 QUP         0.0533
     24 C5         36.0210   11.6410   -1.1480 C.2       1 QUP        -0.0756
     25 C4         34.9920   12.1310   -1.9300 C.2       1 QUP        -0.0629
     26 H1         33.1683   15.0627   -6.4166 H         1 QUP         0.0579
     27 H2         32.3122   19.1066   -5.3384 H         1 QUP         0.0553
     28 H3         31.0783   18.2774   -3.3575 H         1 QUP         0.0540
     29 H4         30.2963   16.6165   -2.0340 H         1 QUP         0.0381
     30 H5         31.3547   15.1692   -1.9265 H         1 QUP         0.0381
     31 H6         29.8434   15.1067   -2.8954 H         1 QUP         0.0381
     32 H7         28.9701   15.2321   -6.6887 H         1 QUP         0.1800
     33 H8         30.5484   15.4868   -6.0222 H         1 QUP         0.1800
     34 H9         30.5368   11.0528   -4.5437 H         1 QUP         0.0422
     35 H10        33.7518   13.6666   -3.2529 H         1 QUP         0.1041
     36 H11        32.6754    7.5131   -2.6991 H         1 QUP         0.1071
     37 H12        36.4971    9.5917   -0.4720 H         1 QUP         0.0832
     38 H13        36.8240   12.2286   -0.7054 H         1 QUP         0.0340
     39 H14        34.8259   13.1668   -2.2222 H         1 QUP         0.0302
@<TRIPOS>BOND
     1    1    2 1  
     2    2    3 ar 
     3    2    4 ar 
     4    3    8 ar 
     5    4    5 ar 
     6    5    6 ar 
     7    6    7 1  
     8    6    8 ar 
     9    8    9 1  
    10    9   10 1  
    11    9   15 1  
    12   10   11 1  
    13   10   14 2  
    14   11   12 am 
    15   11   13 2  
    16   14   16 1  
    17   15   16 2  
    18   16   17 1  
    19   17   18 2  
    20   17   22 1  
    21   18   19 1  
    22   19   20 2  
    23   20   21 1  
    24   21   22 1  
    25   21   23 1  
    26   22   25 2  
    27   23   24 2  
    28   24   25 1  
    29    3   26 1  
    30    4   27 1  
    31    5   28 1  
    32    7   29 1  
    33    7   30 1  
    34    7   31 1  
    35   12   32 1  
    36   12   33 1  
    37   14   34 1  
    38   15   35 1  
    39   19   36 1  
    40   23   37 1  
    41   24   38 1  
    42   25   39 1  
@<TRIPOS>SUBSTRUCTURE
     1 QUP         1

