### 
### Created by X-TOOL on Mon Sep 10 21:13:22 2018
### 

@<TRIPOS>MOLECULE
5afj_ligand
   34    35     1     0     0
SMALL
GAST_HUCK


@<TRIPOS>ATOM
      1 C1         11.5740   30.9420   11.0240 C.3       1 42R        -0.0413
      2 N1         12.2840   32.0860   10.3900 N.4       1 42R         0.2503
      3 C2         11.4980   32.7130    9.3650 C.3       1 42R         0.0048
      4 C3         11.3370   34.1920    9.5200 C.3       1 42R         0.1655
      5 C4         10.2050   34.3600   10.4630 C.3       1 42R        -0.0258
      6 O1         10.9950   34.7520    8.3320 O.3       1 42R        -0.3816
      7 C5         12.5490   34.9230    9.9860 C.2       1 42R         0.1705
      8 O2         12.5870   36.1550   10.0180 O.2       1 42R        -0.3291
      9 C6         13.7740   34.1160   10.4230 C.3       1 42R         0.0786
     10 C7         13.5820   32.6340   10.6280 C.3       1 42R         0.0292
     11 C8         14.7330   31.7980   11.0390 C.ar      1 42R         0.0096
     12 C9         15.0250   31.5910   12.3770 C.ar      1 42R        -0.0520
     13 C10        16.0910   30.8300   12.7140 C.ar      1 42R        -0.0588
     14 C11        16.8740   30.2690   11.7090 C.ar      1 42R         0.0056
     15 BR1        18.4040   29.1630   12.1550 Br        1 42R        -0.0561
     16 C12        16.5920   30.4710   10.4060 C.ar      1 42R        -0.0588
     17 C13        15.5120   31.2430   10.0600 C.ar      1 42R        -0.0520
     18 H1         10.5806   30.8276   10.5657 H         1 42R         0.0778
     19 H2         11.4610   31.1322   12.1015 H         1 42R         0.0778
     20 H3         12.1555   30.0205   10.8733 H         1 42R         0.0778
     21 H4         11.9209   32.6966   11.1051 H         1 42R         0.2049
     22 H5         10.4973   32.2565    9.3727 H         1 42R         0.0826
     23 H6         11.9815   32.5204    8.3959 H         1 42R         0.0826
     24 H7         10.0228   35.4319   10.6298 H         1 42R         0.0244
     25 H8         10.4502   33.8765   11.4201 H         1 42R         0.0244
     26 H9          9.3023   33.8963   10.0386 H         1 42R         0.0244
     27 H10        10.8129   35.6757    8.4593 H         1 42R         0.2079
     28 H11        14.1276   34.5392   11.3747 H         1 42R         0.0567
     29 H12        14.5489   34.2465    9.6533 H         1 42R         0.0567
     30 H13        13.3247   32.7972   11.6849 H         1 42R         0.1049
     31 H14        14.4047   32.0350   13.1472 H         1 42R         0.0566
     32 H15        16.3333   30.6586   13.7566 H         1 42R         0.0626
     33 H16        17.2141   30.0266    9.6375 H         1 42R         0.0626
     34 H17        15.2766   31.4127    9.0156 H         1 42R         0.0566
@<TRIPOS>BOND
     1    1    2 1  
     2    2    3 1  
     3    2   10 1  
     4    3    4 1  
     5    4    5 1  
     6    4    6 1  
     7    4    7 1  
     8    7    8 2  
     9    7    9 1  
    10    9   10 1  
    11   10   11 1  
    12   11   12 ar 
    13   11   17 ar 
    14   12   13 ar 
    15   13   14 ar 
    16   14   15 1  
    17   14   16 ar 
    18   16   17 ar 
    19    1   18 1  
    20    1   19 1  
    21    1   20 1  
    22    2   21 1  
    23    3   22 1  
    24    3   23 1  
    25    5   24 1  
    26    5   25 1  
    27    5   26 1  
    28    6   27 1  
    29    9   28 1  
    30    9   29 1  
    31   10   30 1  
    32   12   31 1  
    33   13   32 1  
    34   16   33 1  
    35   17   34 1  
@<TRIPOS>SUBSTRUCTURE
     1 42R         1

