### 
### Created by X-TOOL on Mon Sep 10 21:13:22 2018
### 

@<TRIPOS>MOLECULE
5afk_ligand
   28    29     1     0     0
SMALL
GAST_HUCK


@<TRIPOS>ATOM
      1 O01       -50.6760   -0.9890  -23.2510 O.2       1 5VU        -0.3911
      2 C02       -51.6980   -1.5910  -22.9560 C.2       1 5VU         0.2878
      3 N03       -52.5610   -2.1420  -23.9740 N.am      1 5VU        -0.2210
      4 C04       -52.3460   -2.0990  -25.4030 C.ar      1 5VU         0.0967
      5 C05       -51.0710   -2.0510  -25.9650 C.ar      1 5VU        -0.0444
      6 C06       -50.9050   -2.0380  -27.3450 C.ar      1 5VU        -0.0459
      7 C07       -52.0200   -2.0960  -28.1690 C.ar      1 5VU         0.1140
      8 F08       -51.8690   -2.0880  -29.4840 F         1 5VU        -0.1974
      9 C09       -53.2920   -2.1540  -27.6260 C.ar      1 5VU        -0.0082
     10 C10       -53.4490   -2.1670  -26.2440 C.ar      1 5VU         0.1499
     11 F11       -54.6670   -2.2320  -25.7130 F         1 5VU        -0.1948
     12 N12       -52.0070   -1.7270  -21.5620 N.am      1 5VU        -0.2546
     13 C13       -51.1990   -1.2020  -20.4970 C.3       1 5VU         0.0348
     14 C14       -52.0740   -1.0590  -19.3040 C.3       1 5VU        -0.0309
     15 C15       -53.2880   -1.8740  -19.5970 C.3       1 5VU        -0.0309
     16 C16       -53.1380   -2.3860  -20.9900 C.3       1 5VU         0.0348
     17 H1        -53.3921   -2.6000  -23.6585 H         1 5VU         0.2231
     18 H2        -50.2006   -2.0235  -25.3194 H         1 5VU         0.0480
     19 H3        -49.9113   -1.9829  -27.7746 H         1 5VU         0.0532
     20 H4        -54.1604   -2.1891  -28.2738 H         1 5VU         0.0550
     21 H5        -50.7905   -0.2216  -20.7832 H         1 5VU         0.0520
     22 H6        -50.3725   -1.8934  -20.2762 H         1 5VU         0.0520
     23 H7        -52.3471   -0.0043  -19.1523 H         1 5VU         0.0285
     24 H8        -51.5642   -1.4386  -18.4062 H         1 5VU         0.0285
     25 H9        -54.1908   -1.2505  -19.5180 H         1 5VU         0.0285
     26 H10       -53.3596   -2.7141  -18.8906 H         1 5VU         0.0285
     27 H11       -52.9736   -3.4735  -20.9762 H         1 5VU         0.0520
     28 H12       -54.0419   -2.1592  -21.5744 H         1 5VU         0.0520
@<TRIPOS>BOND
     1    1    2 2  
     2    2    3 am 
     3    2   12 am 
     4    3    4 1  
     5    4    5 ar 
     6    4   10 ar 
     7    5    6 ar 
     8    6    7 ar 
     9    7    8 1  
    10    7    9 ar 
    11    9   10 ar 
    12   10   11 1  
    13   12   13 1  
    14   12   16 1  
    15   13   14 1  
    16   14   15 1  
    17   15   16 1  
    18    3   17 1  
    19    5   18 1  
    20    6   19 1  
    21    9   20 1  
    22   13   21 1  
    23   13   22 1  
    24   14   23 1  
    25   14   24 1  
    26   15   25 1  
    27   15   26 1  
    28   16   27 1  
    29   16   28 1  
@<TRIPOS>SUBSTRUCTURE
     1 5VU         1

