### 
### Created by X-TOOL on Mon Sep 10 21:13:23 2018
### 

@<TRIPOS>MOLECULE
5afl_ligand
   31    32     1     0     0
SMALL
GAST_HUCK


@<TRIPOS>ATOM
      1 C15        -0.9190   16.9010   35.1180 C.ar      1 FHV        -0.0412
      2 C06        -1.1480   15.8420   34.2370 C.ar      1 FHV         0.0596
      3 N07        -0.0500   14.8710   33.9730 N.am      1 FHV        -0.2210
      4 C08         0.0120   13.9970   32.8150 C.2       1 FHV         0.2896
      5 N10         1.1570   13.0360   32.5950 N.am      1 FHV        -0.2542
      6 C14         2.3150   12.8390   33.4540 C.3       1 FHV         0.0348
      7 C13         2.9370   11.5820   33.0700 C.3       1 FHV        -0.0309
      8 C12         2.4020   11.2560   31.7130 C.3       1 FHV        -0.0309
      9 C11         1.2580   12.1890   31.4700 C.3       1 FHV         0.0348
     10 O09        -0.8830   14.0070   31.9210 O.2       1 FHV        -0.3902
     11 C05        -2.3850   15.7520   33.6490 C.ar      1 FHV        -0.0484
     12 C04        -3.4490   16.7120   33.9270 C.ar      1 FHV        -0.0821
     13 C03        -3.2220   17.7250   34.7900 C.ar      1 FHV        -0.0760
     14 C02        -1.9640   17.8270   35.3770 C.ar      1 FHV        -0.0600
     15 C01        -1.7080   18.9420   36.3220 C.3       1 FHV        -0.0347
     16 H1          0.0458   17.0149   35.5989 H         1 FHV         0.0435
     17 H2          0.6948   14.8173   34.6381 H         1 FHV         0.2254
     18 H3          1.9984   12.7949   34.5065 H         1 FHV         0.0520
     19 H4          3.0271   13.6665   33.3196 H         1 FHV         0.0520
     20 H5          2.6720   10.7899   33.7858 H         1 FHV         0.0285
     21 H6          4.0308   11.6922   33.0333 H         1 FHV         0.0285
     22 H7          2.0542   10.2129   31.6825 H         1 FHV         0.0285
     23 H8          3.1817   11.4050   30.9516 H         1 FHV         0.0285
     24 H9          1.4457   12.7862   30.5655 H         1 FHV         0.0520
     25 H10         0.3267   11.6172   31.3452 H         1 FHV         0.0520
     26 H11        -2.5781   14.9415   32.9555 H         1 FHV         0.0446
     27 H12        -4.4143   16.6122   33.4440 H         1 FHV         0.0560
     28 H13        -4.0013   18.4423   35.0205 H         1 FHV         0.0429
     29 H14        -0.6744   18.8782   36.6929 H         1 FHV         0.0388
     30 H15        -2.4064   18.8725   37.1690 H         1 FHV         0.0388
     31 H16        -1.8533   19.9018   35.8047 H         1 FHV         0.0388
@<TRIPOS>BOND
     1    1    2 ar 
     2    1   14 ar 
     3    2    3 1  
     4    2   11 ar 
     5    3    4 am 
     6    4    5 am 
     7    4   10 2  
     8    5    6 1  
     9    5    9 1  
    10    6    7 1  
    11    7    8 1  
    12    8    9 1  
    13   11   12 ar 
    14   12   13 ar 
    15   13   14 ar 
    16   14   15 1  
    17    1   16 1  
    18    3   17 1  
    19    6   18 1  
    20    6   19 1  
    21    7   20 1  
    22    7   21 1  
    23    8   22 1  
    24    8   23 1  
    25    9   24 1  
    26    9   25 1  
    27   11   26 1  
    28   12   27 1  
    29   13   28 1  
    30   15   29 1  
    31   15   30 1  
    32   15   31 1  
@<TRIPOS>SUBSTRUCTURE
     1 FHV         1

