### 
### Created by X-TOOL on Mon Sep 10 21:13:21 2018
### 

@<TRIPOS>MOLECULE
5afm_ligand
   24    24     1     0     0
SMALL
GAST_HUCK


@<TRIPOS>ATOM
      1 O01        28.6070    8.9240  -26.6830 O.2       1 9Z0        -0.3898
      2 C02        29.3750    8.5490  -27.5620 C.2       1 9Z0         0.2201
      3 N03        30.7830    8.3870  -27.3110 N.am      1 9Z0        -0.2865
      4 C04        31.4600    8.6700  -26.0730 C.3       1 9Z0         0.0321
      5 C05        31.3040    7.8190  -24.8390 C.3       1 9Z0        -0.0096
      6 C06        30.1050    8.0380  -23.9730 C.3       1 9Z0         0.0460
      7 O07        30.1220    7.6310  -22.6490 O.3       1 9Z0        -0.3949
      8 C08        28.8790    8.2620  -28.9400 C.2       1 9Z0         0.1292
      9 C09        29.7060    8.1960  -30.0540 C.2       1 9Z0        -0.0479
     10 C10        28.8910    7.9670  -31.1490 C.2       1 9Z0         0.0111
     11 BR1        29.4760    7.7910  -32.9910 Br        1 9Z0        -0.0768
     12 C12        27.5810    7.9060  -30.6880 C.2       1 9Z0         0.1081
     13 BR2        26.0250    7.5800  -31.8200 Br        1 9Z0        -0.0191
     14 N14        27.6050    8.0700  -29.3400 N.pl3     1 9Z0        -0.2698
     15 H1         31.3425    8.0463  -28.0666 H         1 9Z0         0.1838
     16 H2         31.1493    9.6845  -25.7827 H         1 9Z0         0.0519
     17 H3         32.5346    8.6688  -26.3081 H         1 9Z0         0.0519
     18 H4         32.1927    7.9873  -24.2130 H         1 9Z0         0.0307
     19 H5         31.2805    6.7696  -25.1680 H         1 9Z0         0.0307
     20 H6         29.2657    7.5152  -24.4549 H         1 9Z0         0.0558
     21 H7         29.9094    9.1204  -23.9697 H         1 9Z0         0.0558
     22 H8         30.8222    8.0798  -22.1899 H         1 9Z0         0.2094
     23 H9         30.7896    8.3039  -30.0640 H         1 9Z0         0.0405
     24 H10        26.7816    8.0508  -28.7215 H         1 9Z0         0.2375
@<TRIPOS>BOND
     1    1    2 2  
     2    2    3 am 
     3    2    8 1  
     4    3    4 1  
     5    4    5 1  
     6    5    6 1  
     7    6    7 1  
     8    8    9 2  
     9    8   14 1  
    10    9   10 1  
    11   10   11 1  
    12   10   12 2  
    13   12   13 1  
    14   12   14 1  
    15    3   15 1  
    16    4   16 1  
    17    4   17 1  
    18    5   18 1  
    19    5   19 1  
    20    6   20 1  
    21    6   21 1  
    22    7   22 1  
    23    9   23 1  
    24   14   24 1  
@<TRIPOS>SUBSTRUCTURE
     1 9Z0         1

