### 
### Created by X-TOOL on Mon Sep 10 21:13:22 2018
### 

@<TRIPOS>MOLECULE
5afn_ligand
   29    30     1     0     0
SMALL
GAST_HUCK


@<TRIPOS>ATOM
      1 O01        42.0000  -10.0240   15.0240 O.2       1 OJD        -0.3971
      2 C02        41.1380  -10.8970   14.8560 C.2       1 OJD         0.1763
      3 C03        39.7310  -10.8640   15.4080 C.3       1 OJD         0.0420
      4 C04        39.3140  -12.2550   15.3470 C.3       1 OJD        -0.0022
      5 C05        37.8030  -12.3320   15.0610 C.3       1 OJD        -0.0365
      6 C06        37.3560  -13.5920   14.4410 C.3       1 OJD        -0.0187
      7 C07        36.1170  -13.4310   13.5890 C.ar      1 OJD        -0.0430
      8 C08        36.1790  -12.5900   12.4780 C.ar      1 OJD        -0.0603
      9 C09        35.0680  -12.3970   11.6710 C.ar      1 OJD        -0.0686
     10 C10        33.8680  -13.0640   11.9860 C.ar      1 OJD        -0.0687
     11 C11        33.8490  -13.9180   13.1390 C.ar      1 OJD        -0.0686
     12 C12        34.9100  -14.1240   13.9460 C.ar      1 OJD        -0.0603
     13 C13        40.0730  -12.8580   14.1680 C.3       1 OJD         0.0359
     14 N14        41.3000  -12.1250   14.1150 N.am      1 OJD        -0.2865
     15 H1         39.0796  -10.2301   14.7885 H         1 OJD         0.0506
     16 H2         39.7231  -10.4956   16.4444 H         1 OJD         0.0506
     17 H3         39.5530  -12.7800   16.2836 H         1 OJD         0.0346
     18 H4         37.5399  -11.5054   14.3846 H         1 OJD         0.0292
     19 H5         37.2674  -12.2105   16.0141 H         1 OJD         0.0292
     20 H6         37.1391  -14.3167   15.2396 H         1 OJD         0.0426
     21 H7         38.1683  -13.9770   13.8071 H         1 OJD         0.0426
     22 H8         37.1068  -12.0812   12.2426 H         1 OJD         0.0557
     23 H9         35.1222  -11.7416   10.8093 H         1 OJD         0.0599
     24 H10        32.9826  -12.9356   11.3738 H         1 OJD         0.0559
     25 H11        32.9235  -14.4299   13.3765 H         1 OJD         0.0599
     26 H12        34.8553  -14.7736   14.8121 H         1 OJD         0.0557
     27 H13        39.5046  -12.7314   13.2348 H         1 OJD         0.0524
     28 H14        40.2668  -13.9275   14.3372 H         1 OJD         0.0524
     29 H15        42.1323  -12.4152   13.6428 H         1 OJD         0.1851
@<TRIPOS>BOND
     1    1    2 2  
     2    2    3 1  
     3    2   14 am 
     4    3    4 1  
     5    4    5 1  
     6    4   13 1  
     7    5    6 1  
     8    6    7 1  
     9    7    8 ar 
    10    7   12 ar 
    11    8    9 ar 
    12    9   10 ar 
    13   10   11 ar 
    14   11   12 ar 
    15   13   14 1  
    16    3   15 1  
    17    3   16 1  
    18    4   17 1  
    19    5   18 1  
    20    5   19 1  
    21    6   20 1  
    22    6   21 1  
    23    8   22 1  
    24    9   23 1  
    25   10   24 1  
    26   11   25 1  
    27   12   26 1  
    28   13   27 1  
    29   13   28 1  
    30   14   29 1  
@<TRIPOS>SUBSTRUCTURE
     1 OJD         1

