### 
### Created by X-TOOL on Mon Sep 10 21:13:25 2018
### 

@<TRIPOS>MOLECULE
5afv_ligand
   37    39     1     0     0
SMALL
GAST_HUCK


@<TRIPOS>ATOM
      1 C2         10.4870  -16.4850   -5.0540 C.3       1 JH5         0.1075
      2 C4         10.4010  -12.4200   -6.6000 C.ar      1 JH5        -0.0574
      3 C5          9.5770  -11.7830   -5.6800 C.ar      1 JH5        -0.0084
      4 CAA         9.9000  -12.8530   -7.8170 C.ar      1 JH5        -0.0685
      5 CAB         8.5620  -12.6480   -8.1170 C.ar      1 JH5        -0.0687
      6 CAC         7.7460  -12.0190   -7.1880 C.ar      1 JH5        -0.0685
      7 CAD         8.2390  -11.5940   -5.9660 C.ar      1 JH5        -0.0574
      8 CAK        12.5750  -15.0500   -5.6220 C.ar      1 JH5        -0.0574
      9 CAL        13.5650  -14.7240   -6.5690 C.ar      1 JH5        -0.0685
     10 CAM        13.6530  -15.3540   -7.7990 C.ar      1 JH5        -0.0687
     11 CAN        12.7040  -16.3120   -8.1040 C.ar      1 JH5        -0.0685
     12 CAO        11.7020  -16.6290   -7.1710 C.ar      1 JH5        -0.0574
     13 CAP        11.5920  -16.0180   -5.9030 C.ar      1 JH5        -0.0099
     14 CAQ         9.5190  -14.1270   -2.2590 C.2       1 JH5         0.1780
     15 NAQ         9.8850  -14.7460   -3.3800 N.2       1 JH5        -0.1227
     16 CAR        10.0960  -13.7580   -4.2050 C.2       1 JH5         0.2567
     17 NAS         9.8610  -12.5850   -3.6180 N.pl3     1 JH5        -0.0885
     18 NAT         9.5140  -12.7990   -2.4710 N.2       1 JH5        -0.1033
     19 C3         10.0780  -11.3900   -4.4800 C.3       1 JH5         0.1281
     20 N4         10.1340  -15.9410   -3.6990 N.pl3     1 JH5        -0.1925
     21 H1         10.6756  -17.5571   -4.8960 H         1 JH5         0.0816
     22 H2          9.5797  -16.3581   -5.6629 H         1 JH5         0.0816
     23 H3         11.4466  -12.5798   -6.3630 H         1 JH5         0.0558
     24 H4         10.5495  -13.3485   -8.5295 H         1 JH5         0.0599
     25 H5          8.1576  -12.9759   -9.0678 H         1 JH5         0.0559
     26 H6          6.7004  -11.8568   -7.4238 H         1 JH5         0.0599
     27 H7          7.5842  -11.1197   -5.2440 H         1 JH5         0.0558
     28 H8         12.5697  -14.5477   -4.6614 H         1 JH5         0.0558
     29 H9         14.2851  -13.9510   -6.3260 H         1 JH5         0.0599
     30 H10        14.4408  -15.1040   -8.5003 H         1 JH5         0.0559
     31 H11        12.7328  -16.8182   -9.0621 H         1 JH5         0.0599
     32 H12        10.9729  -17.3848   -7.4399 H         1 JH5         0.0558
     33 H13         9.2645  -14.6178   -1.3208 H         1 JH5         0.1082
     34 H14        10.4214  -13.8762   -5.2375 H         1 JH5         0.2140
     35 H15         9.5328  -10.5176   -4.0906 H         1 JH5         0.0831
     36 H16        11.1483  -11.1484   -4.5585 H         1 JH5         0.0831
     37 H17        10.0897  -16.6299   -2.9346 H         1 JH5         0.2699
@<TRIPOS>BOND
     1    1   13 1  
     2   20    1 1  
     3    3    2 ar 
     4    2    4 ar 
     5    3    7 ar 
     6   19    3 1  
     7    4    5 ar 
     8    6    5 ar 
     9    7    6 ar 
    10    8    9 ar 
    11   13    8 ar 
    12    9   10 ar 
    13   11   10 ar 
    14   12   11 ar 
    15   13   12 ar 
    16   14   15 1  
    17   18   14 2  
    18   16   15 2  
    19   15   20 1  
    20   17   16 1  
    21   17   18 1  
    22   17   19 1  
    23    1   21 1  
    24    1   22 1  
    25    2   23 1  
    26    4   24 1  
    27    5   25 1  
    28    6   26 1  
    29    7   27 1  
    30    8   28 1  
    31    9   29 1  
    32   10   30 1  
    33   11   31 1  
    34   12   32 1  
    35   14   33 1  
    36   16   34 1  
    37   19   35 1  
    38   19   36 1  
    39   20   37 1  
@<TRIPOS>SUBSTRUCTURE
     1 JH5         1

