### 
### Created by X-TOOL on Mon Sep 10 21:13:24 2018
### 

@<TRIPOS>MOLECULE
5ahj_ligand
   88    88     1     0     0
SMALL
GAST_HUCK


@<TRIPOS>ATOM
      1 C1         56.2460 -134.6250   35.4120 C.2       1 7IM         0.2000
      2 N2         55.0070 -134.2400   35.1020 N.am      1 7IM        -0.2674
      3 C3         53.9630 -134.1820   36.1500 C.3       1 7IM         0.1040
      4 C4         52.6690 -133.4630   35.7620 C.3       1 7IM         0.0159
      5 C5         52.4680 -133.2880   34.4200 C.ar      1 7IM        -0.0392
      6 C6         52.9730 -132.1790   33.7970 C.ar      1 7IM        -0.0602
      7 C7         52.7330 -132.0100   32.4560 C.ar      1 7IM        -0.0686
      8 C8         51.9960 -132.9290   31.7330 C.ar      1 7IM        -0.0687
      9 C9         51.4840 -134.0380   32.3640 C.ar      1 7IM        -0.0686
     10 C10        51.7150 -134.2000   33.7160 C.ar      1 7IM        -0.0602
     11 C11        53.5370 -135.5640   36.6090 C.2       1 7IM         0.0621
     12 O12        52.9780 -135.6230   37.7070 O.co2     1 7IM        -0.5664
     13 O13        53.7400 -136.5200   35.8480 O.co2     1 7IM        -0.5664
     14 O14        56.5250 -134.9520   36.5490 O.2       1 7IM        -0.3933
     15 C15        57.2900 -134.7240   34.2740 C.3       1 7IM         0.1345
     16 C16        58.5660 -135.4130   34.7580 C.2       1 7IM         0.2005
     17 N17        59.4120 -134.7130   35.4950 N.am      1 7IM        -0.2611
     18 C18        60.5840 -135.3560   36.0650 C.3       1 7IM         0.1565
     19 C19        60.3250 -135.4440   37.5590 C.2       1 7IM         0.2065
     20 N20        60.7610 -136.5140   38.2010 N.am      1 7IM        -0.2613
     21 C21        60.4950 -136.6570   39.6310 C.3       1 7IM         0.1563
     22 C22        61.8320 -136.6530   40.3890 C.2       1 7IM         0.2045
     23 N23        61.7940 -136.3440   41.6790 N.am      1 7IM        -0.2794
     24 C24        62.9530 -136.1410   42.5430 C.3       1 7IM         0.0682
     25 C25        62.9740 -136.9880   43.8320 C.3       1 7IM         0.0801
     26 C26        63.4990 -138.4450   43.6150 C.3       1 7IM        -0.0014
     27 C27        62.3720 -139.2630   43.0710 C.3       1 7IM         0.0466
     28 O28        61.3110 -139.1100   44.0170 O.3       1 7IM        -0.3949
     29 O29        61.7040 -136.9810   44.3460 O.3       1 7IM        -0.3894
     30 C30        62.7410 -134.6890   42.9260 C.3       1 7IM        -0.0251
     31 C31        63.7750 -133.7400   42.3560 C.3       1 7IM        -0.0446
     32 C32        64.1290 -134.0940   40.9380 C.3       1 7IM        -0.0626
     33 C33        63.1870 -132.3630   42.3440 C.3       1 7IM        -0.0626
     34 O34        62.8650 -136.8250   39.7950 O.2       1 7IM        -0.3944
     35 C35        59.5140 -137.8340   39.8630 C.3       1 7IM         0.0924
     36 O36        60.1100 -138.9400   40.4550 O.3       1 7IM        -0.3874
     37 C37        58.4230 -137.4480   40.8280 C.3       1 7IM        -0.0346
     38 O38        59.6940 -134.5710   38.1100 O.2       1 7IM        -0.3943
     39 C39        61.8980 -134.6600   35.7010 C.3       1 7IM         0.0924
     40 C40        61.7590 -133.7400   34.5070 C.3       1 7IM        -0.0346
     41 O41        62.3870 -133.9030   36.7580 O.3       1 7IM        -0.3874
     42 O42        58.7730 -136.5760   34.4710 O.2       1 7IM        -0.3932
     43 C43        57.6170 -133.3640   33.7210 C.3       1 7IM        -0.0282
     44 H1         54.7830 -133.9901   34.1600 H         1 7IM         0.1878
     45 H2         54.4037 -133.6476   37.0045 H         1 7IM         0.0749
     46 H3         52.6792 -132.4698   36.2347 H         1 7IM         0.0467
     47 H4         51.8255 -134.0483   36.1567 H         1 7IM         0.0467
     48 H5         53.5510 -131.4486   34.3515 H         1 7IM         0.0557
     49 H6         53.1305 -131.1361   31.9527 H         1 7IM         0.0599
     50 H7         51.8226 -132.7761   30.6739 H         1 7IM         0.0559
     51 H8         50.9095 -134.7719   31.8105 H         1 7IM         0.0599
     52 H9         51.2972 -135.0580   34.2302 H         1 7IM         0.0557
     53 H10        56.8564 -135.3301   33.4649 H         1 7IM         0.0771
     54 H11        59.2452 -133.7409   35.6601 H         1 7IM         0.1885
     55 H12        60.6459 -136.3791   35.6658 H         1 7IM         0.0826
     56 H13        61.2700 -137.2217   37.7110 H         1 7IM         0.1884
     57 H14        59.9601 -135.7546   39.9620 H         1 7IM         0.0826
     58 H15        60.8911 -136.2411   42.0963 H         1 7IM         0.1855
     59 H16        63.8901 -136.2974   41.9886 H         1 7IM         0.0582
     60 H17        63.6469 -136.5003   44.5527 H         1 7IM         0.0617
     61 H18        63.8385 -138.8665   44.5726 H         1 7IM         0.0313
     62 H19        64.3351 -138.4385   42.9002 H         1 7IM         0.0313
     63 H20        62.6664 -140.3196   42.9883 H         1 7IM         0.0558
     64 H21        62.0653 -138.8894   42.0829 H         1 7IM         0.0558
     65 H22        61.0774 -138.1915   44.0833 H         1 7IM         0.2094
     66 H23        61.1177 -137.4252   43.7447 H         1 7IM         0.2099
     67 H24        62.7709 -134.6135   44.0230 H         1 7IM         0.0291
     68 H25        61.7501 -134.3777   42.5639 H         1 7IM         0.0291
     69 H26        64.6803 -133.7640   42.9804 H         1 7IM         0.0296
     70 H27        64.8800 -133.3849   40.5597 H         1 7IM         0.0232
     71 H28        63.2268 -134.0418   40.3109 H         1 7IM         0.0232
     72 H29        64.5392 -135.1142   40.9062 H         1 7IM         0.0232
     73 H30        62.9157 -132.0712   43.3693 H         1 7IM         0.0232
     74 H31        62.2880 -132.3536   41.7101 H         1 7IM         0.0232
     75 H32        63.9253 -131.6525   41.9438 H         1 7IM         0.0232
     76 H33        59.0803 -138.1200   38.8934 H         1 7IM         0.0639
     77 H34        59.4611 -139.6241   40.5705 H         1 7IM         0.2101
     78 H35        57.7434 -138.3007   40.9732 H         1 7IM         0.0257
     79 H36        57.8594 -136.5949   40.4222 H         1 7IM         0.0257
     80 H37        58.8697 -137.1667   41.7931 H         1 7IM         0.0257
     81 H38        62.6333 -135.4407   35.4564 H         1 7IM         0.0639
     82 H39        62.7296 -133.2692   34.2919 H         1 7IM         0.0257
     83 H40        61.0149 -132.9609   34.7290 H         1 7IM         0.0257
     84 H41        61.4316 -134.3212   33.6324 H         1 7IM         0.0257
     85 H42        62.4847 -134.4565   37.5239 H         1 7IM         0.2101
     86 H43        56.6932 -132.8768   33.3757 H         1 7IM         0.0280
     87 H44        58.3137 -133.4694   32.8763 H         1 7IM         0.0280
     88 H45        58.0832 -132.7511   34.5065 H         1 7IM         0.0280
@<TRIPOS>BOND
     1    1    2 am 
     2    1   14 2  
     3    1   15 1  
     4    2    3 1  
     5    3    4 1  
     6    3   11 1  
     7    4    5 1  
     8    5    6 ar 
     9    5   10 ar 
    10    6    7 ar 
    11    7    8 ar 
    12    8    9 ar 
    13    9   10 ar 
    14   11   12 ar 
    15   11   13 ar 
    16   15   16 1  
    17   15   43 1  
    18   16   17 am 
    19   16   42 2  
    20   17   18 1  
    21   18   19 1  
    22   18   39 1  
    23   19   20 am 
    24   19   38 2  
    25   20   21 1  
    26   21   22 1  
    27   21   35 1  
    28   22   23 am 
    29   22   34 2  
    30   23   24 1  
    31   24   25 1  
    32   24   30 1  
    33   25   26 1  
    34   25   29 1  
    35   26   27 1  
    36   27   28 1  
    37   30   31 1  
    38   31   32 1  
    39   31   33 1  
    40   35   36 1  
    41   35   37 1  
    42   39   40 1  
    43   39   41 1  
    44    2   44 1  
    45    3   45 1  
    46    4   46 1  
    47    4   47 1  
    48    6   48 1  
    49    7   49 1  
    50    8   50 1  
    51    9   51 1  
    52   10   52 1  
    53   15   53 1  
    54   17   54 1  
    55   18   55 1  
    56   20   56 1  
    57   21   57 1  
    58   23   58 1  
    59   24   59 1  
    60   25   60 1  
    61   26   61 1  
    62   26   62 1  
    63   27   63 1  
    64   27   64 1  
    65   28   65 1  
    66   29   66 1  
    67   30   67 1  
    68   30   68 1  
    69   31   69 1  
    70   32   70 1  
    71   32   71 1  
    72   32   72 1  
    73   33   73 1  
    74   33   74 1  
    75   33   75 1  
    76   35   76 1  
    77   36   77 1  
    78   37   78 1  
    79   37   79 1  
    80   37   80 1  
    81   39   81 1  
    82   40   82 1  
    83   40   83 1  
    84   40   84 1  
    85   41   85 1  
    86   43   86 1  
    87   43   87 1  
    88   43   88 1  
@<TRIPOS>SUBSTRUCTURE
     1 7IM         1

