### 
### Created by X-TOOL on Mon Sep 10 21:13:24 2018
### 

@<TRIPOS>MOLECULE
5ai0_ligand
   19    20     1     0     0
SMALL
GAST_HUCK


@<TRIPOS>ATOM
      1 C1         13.3810   14.5180   27.4710 C.ar      1 JF6        -0.0636
      2 C2         12.3990   14.4430   28.5050 C.ar      1 JF6        -0.0633
      3 C6         13.6290   13.4070   26.6450 C.ar      1 JF6        -0.0633
      4 C3         11.6770   13.2690   28.6580 C.ar      1 JF6        -0.0560
      5 C5         12.8990   12.2240   26.8050 C.ar      1 JF6        -0.0560
      6 C4         11.9120   12.1550   27.8410 C.ar      1 JF6        -0.0064
      7 C7         11.1430   10.9480   28.0820 C.2       1 JF6         0.1176
      8 C8         11.6770    9.6030   28.2800 C.2       1 JF6         0.1495
      9 N11         9.7770   10.9230   28.1550 N.2       1 JF6        -0.0962
     10 N9         10.6110    8.7880   28.4700 N.2       1 JF6        -0.1003
     11 N12        13.0300    9.2580   28.2600 N.pl3     1 JF6        -0.3289
     12 O10         9.4720    9.5970   28.3840 O.3       1 JF6        -0.0755
     13 H1         13.9381   15.4359   27.3219 H         1 JF6         0.0602
     14 H2         12.2210   15.2890   29.1589 H         1 JF6         0.0613
     15 H3         14.3923   13.4677   25.8777 H         1 JF6         0.0613
     16 H4         10.9143   13.2118   29.4262 H         1 JF6         0.0605
     17 H5         13.0773   11.3742   26.1561 H         1 JF6         0.0605
     18 H6         13.3142    8.2794   28.4101 H         1 JF6         0.1694
     19 H7         13.7437    9.9821   28.0951 H         1 JF6         0.1694
@<TRIPOS>BOND
     1    1    2 ar 
     2    1    3 ar 
     3    2    4 ar 
     4    3    5 ar 
     5    4    6 ar 
     6    5    6 ar 
     7    6    7 1  
     8    7    8 1  
     9    7    9 2  
    10    8   10 2  
    11    8   11 1  
    12    9   12 1  
    13   10   12 1  
    14    1   13 1  
    15    2   14 1  
    16    3   15 1  
    17    4   16 1  
    18    5   17 1  
    19   11   18 1  
    20   11   19 1  
@<TRIPOS>SUBSTRUCTURE
     1 JF6         1

