### 
### Created by X-TOOL on Mon Sep 10 21:13:24 2018
### 

@<TRIPOS>MOLECULE
5ai1_ligand
   36    39     1     0     0
SMALL
GAST_HUCK


@<TRIPOS>ATOM
      1 C1          4.4080   11.5600   -4.1220 C.ar      1 EQU         0.0967
      2 C2          4.4180   10.7020   -5.2380 C.ar      1 EQU        -0.0167
      3 C3          3.9490   11.1780   -6.4650 C.ar      1 EQU        -0.0019
      4 C4          3.4770   12.5150   -6.5790 C.ar      1 EQU         0.0041
      5 C5          3.4740   13.3610   -5.4640 C.ar      1 EQU        -0.0488
      6 C6          3.9380   12.8810   -4.2360 C.ar      1 EQU        -0.0215
      7 C10         3.9510   10.2940   -7.6760 C.ar      1 EQU        -0.0292
      8 C11         3.4730   10.7930   -8.9430 C.ar      1 EQU        -0.0209
      9 C12         3.0010   12.1010   -9.0830 C.ar      1 EQU        -0.0038
     10 C13         2.9970   13.0070   -7.8040 C.ar      1 EQU         0.0412
     11 C16         2.6770   12.5090   -9.9070 C.3       1 EQU        -0.0276
     12 C17         2.9640   13.6660  -10.1970 C.3       1 EQU        -0.0150
     13 C18         2.4240   14.7010   -9.1970 C.2       1 EQU        -0.1043
     14 C19         2.4990   14.3810   -8.0290 C.2       1 EQU        -0.0199
     15 C24         2.7820   11.8040  -11.1130 C.3       1 EQU        -0.0357
     16 C25         2.4310   12.7180  -12.1660 C.3       1 EQU         0.0051
     17 C26         2.4480   13.8620  -11.6450 C.2       1 EQU         0.0540
     18 C27         4.4920   13.8770  -10.3840 C.3       1 EQU        -0.1053
     19 O1          4.8690   11.1400   -2.8580 O.3       1 EQU        -0.3311
     20 O26         2.1490   14.9240  -12.1790 O.2       1 EQU        -0.3803
     21 H1          4.7845    9.6859   -5.1466 H         1 EQU         0.0589
     22 H2          3.1148   14.3800   -5.5521 H         1 EQU         0.0632
     23 H3          3.9357   13.5297   -3.3675 H         1 EQU         0.0643
     24 H4          4.3132    9.2752   -7.5995 H         1 EQU         0.0888
     25 H5          3.4802   10.1378   -9.8065 H         1 EQU         0.0674
     26 H6          1.5952   12.5479   -9.7118 H         1 EQU         0.0361
     27 H7          2.0038   15.6542   -9.5144 H         1 EQU         0.0488
     28 H8          2.2228   15.0495   -7.2149 H         1 EQU         0.1184
     29 H9          2.0922   10.9471  -11.1110 H         1 EQU         0.0309
     30 H10         3.8124   11.4450  -11.2523 H         1 EQU         0.0309
     31 H11         1.4276   12.4885  -12.5541 H         1 EQU         0.0471
     32 H12         3.1632   12.6589  -12.9847 H         1 EQU         0.0471
     33 H13         4.6881   14.9283  -10.6416 H         1 EQU         0.0036
     34 H14         4.8555   13.2272  -11.1936 H         1 EQU         0.0036
     35 H15         5.0141   13.6251   -9.4492 H         1 EQU         0.0036
     36 H16         5.1571   10.2364   -2.9115 H         1 EQU         0.2484
@<TRIPOS>BOND
     1    1    2 ar 
     2    1    6 ar 
     3    1   19 1  
     4    2    3 ar 
     5    3    4 ar 
     6    3    7 ar 
     7    4    5 ar 
     8    4   10 ar 
     9    5    6 ar 
    10    7    8 ar 
    11    8    9 ar 
    12    9   10 ar 
    13    9   11 1  
    14   10   14 1  
    15   11   12 1  
    16   11   15 1  
    17   12   13 1  
    18   12   17 1  
    19   12   18 1  
    20   13   14 2  
    21   15   16 1  
    22   16   17 1  
    23   17   20 2  
    24    2   21 1  
    25    5   22 1  
    26    6   23 1  
    27    7   24 1  
    28    8   25 1  
    29   11   26 1  
    30   13   27 1  
    31   14   28 1  
    32   15   29 1  
    33   15   30 1  
    34   16   31 1  
    35   16   32 1  
    36   18   33 1  
    37   18   34 1  
    38   18   35 1  
    39   19   36 1  
@<TRIPOS>SUBSTRUCTURE
     1 EQU         1

