### 
### Created by X-TOOL on Mon Sep 10 21:13:23 2018
### 

@<TRIPOS>MOLECULE
5ai4_ligand
   23    23     1     0     0
SMALL
GAST_HUCK


@<TRIPOS>ATOM
      1 C1         14.0940   13.7040   18.6140 C.3       1 4VY         0.0190
      2 N2         13.9870   12.2560   18.5730 N.pl3     1 4VY        -0.2934
      3 C3         15.3390   11.9020   18.3180 C.3       1 4VY         0.0531
      4 C4         15.2240   11.0350   17.2420 C.3       1 4VY         0.0643
      5 O5         16.5510   10.7380   17.0180 O.3       1 4VY        -0.3930
      6 C6         13.6670   11.6810   19.8430 C.ar      1 4VY         0.1164
      7 C7         13.1310   12.4890   20.9590 C.ar      1 4VY        -0.0134
      8 C8         12.8660   11.8610   22.2100 C.ar      1 4VY        -0.0449
      9 C9         13.1170   10.4780   22.3130 C.ar      1 4VY         0.0261
     10 C10        13.6110    9.7240   21.2260 C.ar      1 4VY         0.0058
     11 N11        13.8770   10.2900   20.0120 N.ar      1 4VY        -0.2817
     12 BR         12.7780    9.5410   23.8860 Br        1 4VY        -0.0523
     13 H1         14.3407   14.0820   17.6109 H         1 4VY         0.0485
     14 H2         14.8865   13.9933   19.3199 H         1 4VY         0.0485
     15 H3         13.1359   14.1333   18.9422 H         1 4VY         0.0485
     16 H4         15.7892   11.3997   19.1869 H         1 4VY         0.0543
     17 H5         15.9384   12.7858   18.0541 H         1 4VY         0.0543
     18 H6         14.7650   11.5263   16.3714 H         1 4VY         0.0577
     19 H7         14.6452   10.1370   17.5037 H         1 4VY         0.0577
     20 H8         16.6205   10.1358   16.2865 H         1 4VY         0.2095
     21 H9         12.9416   13.5481   20.8268 H         1 4VY         0.0616
     22 H10        12.4849   12.4267   23.0525 H         1 4VY         0.0723
     23 H11        13.7846    8.6623   21.3595 H         1 4VY         0.0810
@<TRIPOS>BOND
     1    1    2 1  
     2    2    3 1  
     3    2    6 1  
     4    3    4 1  
     5    4    5 1  
     6    6    7 ar 
     7    6   11 ar 
     8    7    8 ar 
     9    8    9 ar 
    10    9   10 ar 
    11    9   12 1  
    12   10   11 ar 
    13    1   13 1  
    14    1   14 1  
    15    1   15 1  
    16    3   16 1  
    17    3   17 1  
    18    4   18 1  
    19    4   19 1  
    20    5   20 1  
    21    7   21 1  
    22    8   22 1  
    23   10   23 1  
@<TRIPOS>SUBSTRUCTURE
     1 4VY         1

