### 
### Created by X-TOOL on Mon Sep 10 21:13:23 2018
### 

@<TRIPOS>MOLECULE
5ai5_ligand
   40    41     1     0     0
SMALL
GAST_HUCK


@<TRIPOS>ATOM
      1 N7        -17.0290  -11.2950   14.8250 N.am      1 BSU        -0.2701
      2 C8        -16.6920  -11.0570   16.1150 C.2       1 BSU         0.2578
      3 N9        -15.7930  -11.8840   16.6980 N.am      1 BSU        -0.2701
      4 O11       -17.1760  -10.1220   16.7300 O.2       1 BSU        -0.4008
      5 C5        -17.9680  -10.4600   14.0620 C.3       1 BSU         0.0424
      6 C4        -17.1840   -9.5330   13.1110 C.3       1 BSU        -0.0301
      7 C3        -18.0030   -9.0880   11.8780 C.3       1 BSU        -0.0510
      8 C2        -19.5420   -9.1310   12.0870 C.3       1 BSU        -0.0529
      9 C1        -20.0670  -10.4760   12.6530 C.3       1 BSU        -0.0510
     10 C6        -18.9430  -11.3310   13.2600 C.3       1 BSU        -0.0301
     11 C10       -15.3400  -11.7390   18.0890 C.3       1 BSU         0.0424
     12 C16       -14.8260  -13.0920   18.6210 C.3       1 BSU        -0.0301
     13 C15       -14.4470  -12.9450   20.1070 C.3       1 BSU        -0.0510
     14 C14       -13.3830  -11.8520   20.3030 C.3       1 BSU        -0.0529
     15 C13       -13.7760  -10.5050   19.6510 C.3       1 BSU        -0.0510
     16 C12       -14.2300  -10.6730   18.1860 C.3       1 BSU        -0.0301
     17 H1        -16.6164  -12.0820   14.3663 H         1 BSU         0.1848
     18 H2        -15.4169  -12.6337   16.1534 H         1 BSU         0.1848
     19 H3        -18.5448   -9.8425   14.7663 H         1 BSU         0.0553
     20 H4        -16.2890  -10.0682   12.7610 H         1 BSU         0.0287
     21 H5        -16.8796   -8.6360   13.6701 H         1 BSU         0.0287
     22 H6        -17.7502   -9.7517   11.0380 H         1 BSU         0.0266
     23 H7        -17.7174   -8.0555   11.6284 H         1 BSU         0.0266
     24 H8        -20.0275   -8.9517   11.1164 H         1 BSU         0.0265
     25 H9        -19.8178   -8.3299   12.7885 H         1 BSU         0.0265
     26 H10       -20.5412  -11.0421   11.8377 H         1 BSU         0.0266
     27 H11       -20.8119  -10.2645   13.4342 H         1 BSU         0.0266
     28 H12       -19.3846  -12.0859   13.9271 H         1 BSU         0.0287
     29 H13       -18.3947  -11.8336   12.4496 H         1 BSU         0.0287
     30 H14       -16.1921  -11.4171   18.7057 H         1 BSU         0.0553
     31 H15       -13.9412  -13.4009   18.0451 H         1 BSU         0.0287
     32 H16       -15.6149  -13.8514   18.5166 H         1 BSU         0.0287
     33 H17       -14.0489  -13.9031   20.4725 H         1 BSU         0.0266
     34 H18       -15.3459  -12.6781   20.6821 H         1 BSU         0.0266
     35 H19       -12.4393  -12.1965   19.8551 H         1 BSU         0.0265
     36 H20       -13.2397  -11.6911   21.3817 H         1 BSU         0.0265
     37 H21       -12.9058   -9.8326   19.6766 H         1 BSU         0.0266
     38 H22       -14.6003  -10.0601   20.2278 H         1 BSU         0.0266
     39 H23       -14.6155   -9.7126   17.8131 H         1 BSU         0.0287
     40 H24       -13.3715  -10.9861   17.5737 H         1 BSU         0.0287
@<TRIPOS>BOND
     1    1    2 am 
     2    1    5 1  
     3    2    3 am 
     4    2    4 2  
     5    3   11 1  
     6    5    6 1  
     7    5   10 1  
     8    6    7 1  
     9    7    8 1  
    10    8    9 1  
    11    9   10 1  
    12   11   12 1  
    13   11   16 1  
    14   12   13 1  
    15   13   14 1  
    16   14   15 1  
    17   15   16 1  
    18    1   17 1  
    19    3   18 1  
    20    5   19 1  
    21    6   20 1  
    22    6   21 1  
    23    7   22 1  
    24    7   23 1  
    25    8   24 1  
    26    8   25 1  
    27    9   26 1  
    28    9   27 1  
    29   10   28 1  
    30   10   29 1  
    31   11   30 1  
    32   12   31 1  
    33   12   32 1  
    34   13   33 1  
    35   13   34 1  
    36   14   35 1  
    37   14   36 1  
    38   15   37 1  
    39   15   38 1  
    40   16   39 1  
    41   16   40 1  
@<TRIPOS>SUBSTRUCTURE
     1 BSU         1

