### 
### Created by X-TOOL on Mon Sep 10 21:13:23 2018
### 

@<TRIPOS>MOLECULE
5ai6_ligand
   17    18     1     0     0
SMALL
GAST_HUCK


@<TRIPOS>ATOM
      1 C1         16.1760   10.3880   12.6280 C.ar      1 4XH        -0.0520
      2 C2         18.5990    9.1370    8.4710 C.ar      1 4XH        -0.0311
      3 C3         18.9850    9.3480    9.7760 C.ar      1 4XH        -0.0342
      4 C4         15.8040   10.1600   11.3190 C.ar      1 4XH        -0.0356
      5 C5         17.4990   10.2790   13.0000 C.ar      1 4XH        -0.0459
      6 C6         17.2600    9.2770    8.1860 C.ar      1 4XH         0.0114
      7 C7         18.0520    9.7010   10.7310 C.ar      1 4XH         0.0150
      8 C8         16.7240    9.8200   10.3450 C.ar      1 4XH         0.0494
      9 C9         18.4300    9.9330   12.0460 C.ar      1 4XH         0.0279
     10 N10        16.3220    9.6080    9.0820 N.ar      1 4XH        -0.2939
     11 BR         20.2370    9.7680   12.6030 Br        1 4XH        -0.0461
     12 H1         15.4267   10.6533   13.3651 H         1 4XH         0.0661
     13 H2         19.3172    8.8727    7.7033 H         1 4XH         0.0700
     14 H3         20.0265    9.2364   10.0550 H         1 4XH         0.0770
     15 H4         14.7588   10.2502   11.0462 H         1 4XH         0.0676
     16 H5         17.8010   10.4623   14.0248 H         1 4XH         0.0678
     17 H6         16.9423    9.1072    7.1636 H         1 4XH         0.0867
@<TRIPOS>BOND
     1    4    1 ar 
     2    1    5 ar 
     3    3    2 ar 
     4    2    6 ar 
     5    7    3 ar 
     6    8    4 ar 
     7    5    9 ar 
     8    6   10 ar 
     9    7    8 ar 
    10    7    9 ar 
    11    8   10 ar 
    12    9   11 1  
    13    1   12 1  
    14    2   13 1  
    15    3   14 1  
    16    4   15 1  
    17    5   16 1  
    18    6   17 1  
@<TRIPOS>SUBSTRUCTURE
     1 4XH         1

