### 
### Created by X-TOOL on Mon Sep 10 21:13:24 2018
### 

@<TRIPOS>MOLECULE
5ai8_ligand
   19    20     1     0     0
SMALL
GAST_HUCK


@<TRIPOS>ATOM
      1 C1         18.6560  -10.4190  -13.7310 C.3       1 K2T        -0.0359
      2 C2         17.8270  -10.1870  -12.5190 C.ar      1 K2T        -0.0580
      3 C3         16.4570  -10.3030  -12.5950 C.ar      1 K2T        -0.0731
      4 C4         15.6330  -10.1000  -11.5110 C.ar      1 K2T        -0.0685
      5 C5         16.2480   -9.7720  -10.3120 C.ar      1 K2T         0.0043
      6 C6         17.6300   -9.6540  -10.2560 C.ar      1 K2T         0.0431
      7 C7         18.4560   -9.8520  -11.3410 C.ar      1 K2T        -0.0518
      8 S8         18.0890   -9.2390   -8.6560 S.3       1 K2T         0.0251
      9 C9         16.4410   -9.2500   -8.1620 C.2       1 K2T         0.1800
     10 N10        15.5960   -9.5390   -9.1270 N.2       1 K2T        -0.3123
     11 N11        16.0970   -8.9650   -6.8880 N.pl3     1 K2T        -0.2947
     12 H1         18.0030  -10.6753  -14.5783 H         1 K2T         0.0376
     13 H2         19.3556  -11.2470  -13.5438 H         1 K2T         0.0376
     14 H3         19.2227   -9.5065  -13.9678 H         1 K2T         0.0376
     15 H4         16.0092  -10.5647  -13.5469 H         1 K2T         0.0494
     16 H5         14.5559  -10.1921  -11.5907 H         1 K2T         0.0524
     17 H6         19.5330   -9.7504  -11.2715 H         1 K2T         0.0493
     18 H7         15.1060   -8.9757   -6.6075 H         1 K2T         0.1889
     19 H8         16.8256   -8.7369   -6.1966 H         1 K2T         0.1889
@<TRIPOS>BOND
     1    1    2 1  
     2    2    3 ar 
     3    2    7 ar 
     4    3    4 ar 
     5    4    5 ar 
     6    5    6 ar 
     7    5   10 1  
     8    6    7 ar 
     9    6    8 1  
    10    8    9 1  
    11    9   10 2  
    12    9   11 1  
    13    1   12 1  
    14    1   13 1  
    15    1   14 1  
    16    3   15 1  
    17    4   16 1  
    18    7   17 1  
    19   11   18 1  
    20   11   19 1  
@<TRIPOS>SUBSTRUCTURE
     1 K2T         1

