### 
### Created by X-TOOL on Mon Sep 10 21:13:24 2018
### 

@<TRIPOS>MOLECULE
5ai9_ligand
   50    51     1     0     0
SMALL
GAST_HUCK


@<TRIPOS>ATOM
      1 C1         19.8400   10.5980   12.2520 C.3       1 K78        -0.0911
      2 C2         19.0330    9.3340   12.0970 C.3       1 K78        -0.0588
      3 C3         19.4570    8.3800   13.1780 C.3       1 K78        -0.0911
      4 C4         19.5010    8.6850   10.8020 C.3       1 K78        -0.0911
      5 C5         17.5410    9.6430   12.1040 C.ar      1 K78        -0.0673
      6 C6         16.9040   10.1200   13.2470 C.ar      1 K78        -0.0387
      7 C7         15.5600   10.4670   13.2840 C.ar      1 K78         0.0661
      8 C8         14.8180   10.3080   12.1230 C.ar      1 K78         0.1442
      9 C9         15.4000    9.8000   10.9810 C.ar      1 K78         0.0711
     10 C10        16.7500    9.4960   10.9680 C.ar      1 K78        -0.0411
     11 BR         14.3230    9.5550    9.4130 Br        1 K78        -0.0480
     12 O12        13.4640   10.6260   12.0960 O.3       1 K78        -0.3083
     13 C13        14.8960   10.9670   14.5430 C.3       1 K78         0.0071
     14 N14        15.7320   11.0470   15.7380 N.4       1 K78         0.2385
     15 C15        14.8890   11.4500   16.8820 C.3       1 K78        -0.0306
     16 C16        15.7180   11.9160   18.0880 C.3       1 K78        -0.0028
     17 C17        14.9200   12.8000   19.0520 C.3       1 K78        -0.0143
     18 C18        13.7640   12.0110   19.5670 C.ar      1 K78        -0.0428
     19 C19        13.9890   11.0040   20.5000 C.ar      1 K78        -0.0603
     20 C20        12.9060   10.2610   20.9510 C.ar      1 K78        -0.0686
     21 C21        11.6190   10.4940   20.5030 C.ar      1 K78        -0.0687
     22 C22        11.4240   11.5050   19.5760 C.ar      1 K78        -0.0686
     23 C23        12.4800   12.2690   19.0950 C.ar      1 K78        -0.0603
     24 H1         20.9121   10.3518   12.2443 H         1 K78         0.0115
     25 H2         19.5821   11.0832   13.2049 H         1 K78         0.0115
     26 H3         19.6147   11.2812   11.4199 H         1 K78         0.0115
     27 H4         18.8826    7.4461   13.0888 H         1 K78         0.0115
     28 H5         19.2686    8.8338   14.1622 H         1 K78         0.0115
     29 H6         20.5301    8.1617   13.0743 H         1 K78         0.0115
     30 H7         19.2272    9.3259    9.9509 H         1 K78         0.0115
     31 H8         19.0206    7.7018   10.6901 H         1 K78         0.0115
     32 H9         20.5933    8.5584   10.8292 H         1 K78         0.0115
     33 H10        17.4875   10.2258   14.1544 H         1 K78         0.0751
     34 H11        17.2023    9.1348   10.0514 H         1 K78         0.0820
     35 H12        13.3080   11.2859   11.4306 H         1 K78         0.2628
     36 H13        14.0569   10.2923   14.7679 H         1 K78         0.0967
     37 H14        14.5101   11.9765   14.3380 H         1 K78         0.0967
     38 H15        16.4604   11.7293   15.5969 H         1 K78         0.2026
     39 H16        16.1461   10.1468   15.9228 H         1 K78         0.2026
     40 H17        14.2744   10.5904   17.1874 H         1 K78         0.0815
     41 H18        14.2340   12.2747   16.5644 H         1 K78         0.0815
     42 H19        16.5822   12.4885   17.7201 H         1 K78         0.0339
     43 H20        16.0713   11.0295   18.6351 H         1 K78         0.0339
     44 H21        14.5543   13.6918   18.5220 H         1 K78         0.0428
     45 H22        15.5617   13.1090   19.8903 H         1 K78         0.0428
     46 H23        14.9890   10.8035   20.8673 H         1 K78         0.0557
     47 H24        13.0749    9.4738   21.6769 H         1 K78         0.0599
     48 H25        10.7864    9.9027   20.8666 H         1 K78         0.0559
     49 H26        10.4211   11.7052   19.2165 H         1 K78         0.0599
     50 H27        12.3072   13.0518   18.3654 H         1 K78         0.0557
@<TRIPOS>BOND
     1    1    2 1  
     2    2    3 1  
     3    2    4 1  
     4    2    5 1  
     5    5    6 ar 
     6    5   10 ar 
     7    6    7 ar 
     8    7    8 ar 
     9    7   13 1  
    10    8    9 ar 
    11    8   12 1  
    12    9   10 ar 
    13    9   11 1  
    14   13   14 1  
    15   14   15 1  
    16   15   16 1  
    17   16   17 1  
    18   17   18 1  
    19   18   19 ar 
    20   18   23 ar 
    21   19   20 ar 
    22   20   21 ar 
    23   21   22 ar 
    24   22   23 ar 
    25    1   24 1  
    26    1   25 1  
    27    1   26 1  
    28    3   27 1  
    29    3   28 1  
    30    3   29 1  
    31    4   30 1  
    32    4   31 1  
    33    4   32 1  
    34    6   33 1  
    35   10   34 1  
    36   12   35 1  
    37   13   36 1  
    38   13   37 1  
    39   14   38 1  
    40   14   39 1  
    41   15   40 1  
    42   15   41 1  
    43   16   42 1  
    44   16   43 1  
    45   17   44 1  
    46   17   45 1  
    47   19   46 1  
    48   20   47 1  
    49   21   48 1  
    50   22   49 1  
    51   23   50 1  
@<TRIPOS>SUBSTRUCTURE
     1 K78         1

