### 
### Created by X-TOOL on Mon Sep 10 21:13:25 2018
### 

@<TRIPOS>MOLECULE
5aia_ligand
   31    32     1     0     0
SMALL
GAST_HUCK


@<TRIPOS>ATOM
      1 C1        -15.6000   -9.4010   10.7420 C.ar      1 KWB        -0.0657
      2 C2        -14.4060   -9.4090   10.0510 C.ar      1 KWB        -0.0356
      3 C3        -14.4290   -9.5810    8.6920 C.ar      1 KWB         0.0959
      4 C4        -15.6160   -9.7620    8.0100 C.ar      1 KWB         0.0321
      5 C5        -16.8050   -9.7620    8.7180 C.ar      1 KWB        -0.0542
      6 C6        -16.8110   -9.5750   10.0870 C.ar      1 KWB        -0.0471
      7 C7        -18.1180   -9.5890   10.8320 C.3       1 KWB        -0.0118
      8 C8        -18.1600  -10.7430   11.8330 C.3       1 KWB        -0.0419
      9 C9        -18.5430  -10.3200   13.2390 C.3       1 KWB        -0.0512
     10 C10       -19.7790   -9.4340   13.2630 C.3       1 KWB        -0.0528
     11 C11       -19.6730   -8.2310   12.3350 C.3       1 KWB        -0.0512
     12 C12       -18.4310   -8.2350   11.4640 C.3       1 KWB        -0.0419
     13 C13       -15.6070   -9.9510    6.5420 C.2       1 KWB         0.0566
     14 O14       -14.7580  -10.7730    6.0950 O.co2     1 KWB        -0.5643
     15 O15       -16.4240   -9.2600    5.8640 O.co2     1 KWB        -0.5643
     16 O16       -13.2300   -9.5800    8.0250 O.3       1 KWB        -0.3340
     17 H1        -15.5921   -9.2561   11.8163 H         1 KWB         0.0553
     18 H2        -13.4654   -9.2813   10.5745 H         1 KWB         0.0533
     19 H3        -17.7417   -9.9103    8.1930 H         1 KWB         0.0562
     20 H4        -18.9090   -9.7805   10.0920 H         1 KWB         0.0441
     21 H5        -17.1632  -11.2068   11.8698 H         1 KWB         0.0288
     22 H6        -18.8952  -11.4814   11.4806 H         1 KWB         0.0288
     23 H7        -17.7026   -9.7655   13.6821 H         1 KWB         0.0267
     24 H8        -18.7433  -11.2215   13.8366 H         1 KWB         0.0267
     25 H9        -19.9289   -9.0708   14.2904 H         1 KWB         0.0265
     26 H10       -20.6469  -10.0363   12.9567 H         1 KWB         0.0265
     27 H11       -19.6620   -7.3190   12.9499 H         1 KWB         0.0267
     28 H12       -20.5560   -8.2204   11.6792 H         1 KWB         0.0267
     29 H13       -18.5727   -7.5013   10.6568 H         1 KWB         0.0288
     30 H14       -17.5730   -7.9366   12.0843 H         1 KWB         0.0288
     31 H15       -13.1116  -10.4149    7.5875 H         1 KWB         0.2475
@<TRIPOS>BOND
     1    1    2 ar 
     2    1    6 ar 
     3    2    3 ar 
     4    3    4 ar 
     5    3   16 1  
     6    4    5 ar 
     7    4   13 1  
     8    5    6 ar 
     9    6    7 1  
    10    7    8 1  
    11    7   12 1  
    12    8    9 1  
    13    9   10 1  
    14   10   11 1  
    15   11   12 1  
    16   13   14 ar 
    17   13   15 ar 
    18    1   17 1  
    19    2   18 1  
    20    5   19 1  
    21    7   20 1  
    22    8   21 1  
    23    8   22 1  
    24    9   23 1  
    25    9   24 1  
    26   10   25 1  
    27   10   26 1  
    28   11   27 1  
    29   11   28 1  
    30   12   29 1  
    31   12   30 1  
    32   16   31 1  
@<TRIPOS>SUBSTRUCTURE
     1 KWB         1

