### 
### Created by X-TOOL on Mon Sep 10 21:13:24 2018
### 

@<TRIPOS>MOLECULE
5aib_ligand
   18    19     1     0     0
SMALL
GAST_HUCK


@<TRIPOS>ATOM
      1 C1         17.6430  -10.0810  -13.2110 C.ar      1 KJU        -0.0722
      2 C2         16.3600  -10.1050  -12.6970 C.ar      1 KJU        -0.0451
      3 C3         16.1770  -10.0770  -11.3300 C.ar      1 KJU         0.1162
      4 C4         17.2620  -10.0210  -10.4830 C.ar      1 KJU         0.0973
      5 C5         18.5470   -9.9830  -10.9750 C.ar      1 KJU        -0.0355
      6 C6         18.7140  -10.0130  -12.3450 C.ar      1 KJU         0.0150
      7 CL7        20.3030   -9.9660  -12.9900 Cl        1 KJU        -0.0850
      8 N8         17.0820   -9.9930   -9.1100 N.am      1 KJU        -0.2344
      9 C9         15.8320   -9.9880   -8.5530 C.2       1 KJU         0.2313
     10 O10        15.6460   -9.8270   -7.3580 O.2       1 KJU        -0.3833
     11 C11        14.6760  -10.2500   -9.4860 C.3       1 KJU         0.1612
     12 O12        14.8710  -10.0830  -10.8840 O.3       1 KJU        -0.3030
     13 H1         17.8053  -10.1152  -14.2822 H         1 KJU         0.0467
     14 H2         15.5052  -10.1455  -13.3623 H         1 KJU         0.0496
     15 H3         19.4002   -9.9312  -10.3083 H         1 KJU         0.0472
     16 H4         17.8835   -9.9761   -8.5122 H         1 KJU         0.2223
     17 H5         13.8621   -9.5718   -9.1902 H         1 KJU         0.0858
     18 H6         14.3615  -11.2919   -9.3260 H         1 KJU         0.0858
@<TRIPOS>BOND
     1    1    2 ar 
     2    1    6 ar 
     3    2    3 ar 
     4    3    4 ar 
     5    3   12 1  
     6    4    5 ar 
     7    4    8 1  
     8    5    6 ar 
     9    6    7 1  
    10    8    9 am 
    11    9   10 2  
    12    9   11 1  
    13   11   12 1  
    14    1   13 1  
    15    2   14 1  
    16    5   15 1  
    17    8   16 1  
    18   11   17 1  
    19   11   18 1  
@<TRIPOS>SUBSTRUCTURE
     1 KJU         1

