### 
### Created by X-TOOL on Mon Sep 10 21:13:23 2018
### 

@<TRIPOS>MOLECULE
5aic_ligand
   21    22     1     0     0
SMALL
GAST_HUCK


@<TRIPOS>ATOM
      1 O13        13.1070    9.5840    7.9700 O.2       1 TGX        -0.3856
      2 C11        14.1180    9.4020    8.6370 C.2       1 TGX         0.2120
      3 C12        15.3360    8.7400    8.0540 C.3       1 TGX         0.0991
      4 N10        14.2160    9.7360    9.9760 N.am      1 TGX        -0.2392
      5 C7         15.4050    9.9130   10.7120 C.ar      1 TGX         0.0727
      6 C3         16.6520    9.9360   10.1120 C.ar      1 TGX         0.0331
      7 C9         15.2800   10.0750   12.0740 C.ar      1 TGX        -0.0528
      8 C5         16.4060   10.2650   12.8470 C.ar      1 TGX        -0.0805
      9 C2         17.6530   10.2890   12.2600 C.ar      1 TGX        -0.0666
     10 C6         18.8470   10.4940   13.1210 C.3       1 TGX        -0.0396
     11 C1         17.7770   10.1210   10.8930 C.ar      1 TGX        -0.0609
     12 S8         16.8150    9.7350    8.3640 S.3       1 TGX        -0.0894
     13 H1         15.1996    8.6245    6.9686 H         1 TGX         0.0643
     14 H2         15.4641    7.7495    8.5149 H         1 TGX         0.0643
     15 H3         13.3570    9.8648   10.4715 H         1 TGX         0.2212
     16 H4         14.2999   10.0532   12.5367 H         1 TGX         0.0465
     17 H5         16.3103   10.3958   13.9188 H         1 TGX         0.0462
     18 H6         19.7537   10.4864   12.4983 H         1 TGX         0.0362
     19 H7         18.9061    9.6855   13.8645 H         1 TGX         0.0362
     20 H8         18.7650   11.4618   13.6373 H         1 TGX         0.0362
     21 H9         18.7585   10.1344   10.4332 H         1 TGX         0.0465
@<TRIPOS>BOND
     1    1    2 2  
     2    2    3 1  
     3    2    4 am 
     4    3   12 1  
     5    4    5 1  
     6    5    6 ar 
     7    5    7 ar 
     8    6   11 ar 
     9    6   12 1  
    10    7    8 ar 
    11    8    9 ar 
    12    9   10 1  
    13    9   11 ar 
    14    3   13 1  
    15    3   14 1  
    16    4   15 1  
    17    7   16 1  
    18    8   17 1  
    19   10   18 1  
    20   10   19 1  
    21   10   20 1  
    22   11   21 1  
@<TRIPOS>SUBSTRUCTURE
     1 TGX         1

