### 
### Created by X-TOOL on Mon Sep 10 21:13:29 2018
### 

@<TRIPOS>MOLECULE
5aip_ligand
   18    18     1     0     0
SMALL
GAST_HUCK


@<TRIPOS>ATOM
      1 C8         33.2160   21.4810   15.6430 C.2       1 4HP         0.0446
      2 O1         34.0070   21.1190   14.7250 O.co2     1 4HP        -0.5667
      3 O2         33.6700   21.9330   16.7370 O.co2     1 4HP        -0.5667
      4 C7         31.7390   21.3760   15.4260 C.3       1 4HP         0.0285
      5 C1         31.1970   20.2150   16.1960 C.ar      1 4HP        -0.0409
      6 C2         31.0570   18.8840   15.5360 C.ar      1 4HP        -0.0671
      7 C3         30.5610   17.8220   16.2300 C.ar      1 4HP        -0.0395
      8 C4         30.1670   17.9810   17.6570 C.ar      1 4HP         0.0807
      9 C5         30.2990   19.1960   18.2700 C.ar      1 4HP        -0.0395
     10 C6         30.8320   20.3640   17.5040 C.ar      1 4HP        -0.0671
     11 O4         29.6740   16.9020   18.3510 O.3       1 4HP        -0.3375
     12 H1         31.5364   21.2306   14.3547 H         1 4HP         0.0567
     13 H2         31.2525   22.3010   15.7689 H         1 4HP         0.0567
     14 H3         31.3513   18.7617   14.4999 H         1 4HP         0.0533
     15 H4         30.4530   16.8598   15.7427 H         1 4HP         0.0526
     16 H5         30.0175   19.3123   19.3103 H         1 4HP         0.0526
     17 H6         30.9289   21.3297   17.9868 H         1 4HP         0.0533
     18 H7         29.6490   16.1437   17.7792 H         1 4HP         0.2459
@<TRIPOS>BOND
     1    1    2 ar 
     2    1    3 ar 
     3    1    4 1  
     4    4    5 1  
     5    5    6 ar 
     6    5   10 ar 
     7    6    7 ar 
     8    7    8 ar 
     9    8    9 ar 
    10    8   11 1  
    11    9   10 ar 
    12    4   12 1  
    13    4   13 1  
    14    6   14 1  
    15    7   15 1  
    16    9   16 1  
    17   10   17 1  
    18   11   18 1  
@<TRIPOS>SUBSTRUCTURE
     1 4HP         1

