### 
### Created by X-TOOL on Mon Sep 10 21:13:25 2018
### 

@<TRIPOS>MOLECULE
5ais_ligand
   47    49     1     0     0
SMALL
GAST_HUCK


@<TRIPOS>ATOM
      1 C1         36.8150  -22.0320   -0.3500 C.3       1 CWC        -0.0433
      2 N2         36.4500  -20.7910   -1.0120 N.4       1 CWC         0.2310
      3 C3         36.1290  -21.1330   -2.3880 C.3       1 CWC        -0.0433
      4 C4         35.2250  -20.3150   -0.3920 C.3       1 CWC        -0.0303
      5 C5         35.4710  -18.9510    0.2080 C.3       1 CWC         0.0049
      6 C6         34.1570  -18.2160    0.3150 C.3       1 CWC         0.0483
      7 C7         33.9900  -17.6840    1.7020 C.2       1 CWC         0.2056
      8 O8         34.2040  -18.3500    2.7060 O.2       1 CWC        -0.3840
      9 N9         33.5640  -16.3770    1.6490 N.am      1 CWC        -0.2277
     10 C10        33.0270  -15.6720    2.7360 C.ar      1 CWC         0.0923
     11 C11        33.1100  -14.3000    2.7240 C.ar      1 CWC        -0.0175
     12 C12        32.5870  -13.5810    3.7760 C.ar      1 CWC        -0.0120
     13 C13        32.0000  -14.2990    4.7960 C.ar      1 CWC         0.0004
     14 N14        31.8930  -15.6320    4.8480 N.ar      1 CWC        -0.3135
     15 C15        32.4130  -16.2870    3.8050 C.ar      1 CWC         0.0296
     16 C16        32.6580  -12.1400    3.7680 C.ar      1 CWC        -0.0280
     17 C17        33.8140  -11.4620    3.4500 C.ar      1 CWC        -0.0691
     18 C18        33.8830  -10.0890    3.4220 C.ar      1 CWC        -0.0738
     19 C19        32.7970   -9.2960    3.7100 C.ar      1 CWC        -0.0415
     20 C20        31.6500   -9.9830    4.0310 C.ar      1 CWC         0.0656
     21 C21        31.5490  -11.3630    4.0640 C.ar      1 CWC        -0.0186
     22 C22        30.2110  -11.6630    4.4280 C.2       1 CWC        -0.0621
     23 C23        29.5330  -10.4810    4.6070 C.2       1 CWC         0.0226
     24 N24        30.4240   -9.4790    4.3600 N.pl3     1 CWC        -0.2791
     25 H1         37.7417  -22.4253   -0.7934 H         1 CWC         0.0777
     26 H2         36.0068  -22.7671   -0.4776 H         1 CWC         0.0777
     27 H3         36.9730  -21.8430    0.7221 H         1 CWC         0.0777
     28 H4         37.1870  -20.1056   -0.9573 H         1 CWC         0.2028
     29 H5         35.8445  -20.2222   -2.9353 H         1 CWC         0.0777
     30 H6         35.2917  -21.8463   -2.4028 H         1 CWC         0.0777
     31 H7         37.0079  -21.5892   -2.8671 H         1 CWC         0.0777
     32 H8         34.9166  -21.0147    0.3987 H         1 CWC         0.0816
     33 H9         34.4313  -20.2458   -1.1505 H         1 CWC         0.0816
     34 H10        36.1593  -18.3837   -0.4358 H         1 CWC         0.0342
     35 H11        35.9133  -19.0629    1.2089 H         1 CWC         0.0342
     36 H12        33.3319  -18.9065    0.0863 H         1 CWC         0.0510
     37 H13        34.1455  -17.3810   -0.4009 H         1 CWC         0.0510
     38 H14        33.6426  -15.8966    0.7755 H         1 CWC         0.2280
     39 H15        33.5830  -13.7882    1.8937 H         1 CWC         0.0606
     40 H16        31.5902  -13.7359    5.6267 H         1 CWC         0.0688
     41 H17        32.3475  -17.3690    3.8001 H         1 CWC         0.0697
     42 H18        34.7042  -12.0332    3.2125 H         1 CWC         0.0536
     43 H19        34.8239   -9.6163    3.1646 H         1 CWC         0.0537
     44 H20        32.8418   -8.2132    3.6858 H         1 CWC         0.0559
     45 H21        29.7920  -12.6612    4.5457 H         1 CWC         0.0292
     46 H22        28.4878  -10.3670    4.8908 H         1 CWC         0.0941
     47 H23        30.2019   -8.4747    4.4143 H         1 CWC         0.2273
@<TRIPOS>BOND
     1    1    2 1  
     2    2    3 1  
     3    2    4 1  
     4    4    5 1  
     5    5    6 1  
     6    6    7 1  
     7    7    8 2  
     8    7    9 am 
     9    9   10 1  
    10   10   11 ar 
    11   10   15 ar 
    12   11   12 ar 
    13   12   13 ar 
    14   12   16 1  
    15   13   14 ar 
    16   14   15 ar 
    17   16   17 ar 
    18   16   21 ar 
    19   17   18 ar 
    20   18   19 ar 
    21   19   20 ar 
    22   20   21 ar 
    23   20   24 1  
    24   21   22 1  
    25   22   23 2  
    26   23   24 1  
    27    1   25 1  
    28    1   26 1  
    29    1   27 1  
    30    2   28 1  
    31    3   29 1  
    32    3   30 1  
    33    3   31 1  
    34    4   32 1  
    35    4   33 1  
    36    5   34 1  
    37    5   35 1  
    38    6   36 1  
    39    6   37 1  
    40    9   38 1  
    41   11   39 1  
    42   13   40 1  
    43   15   41 1  
    44   17   42 1  
    45   18   43 1  
    46   19   44 1  
    47   22   45 1  
    48   23   46 1  
    49   24   47 1  
@<TRIPOS>SUBSTRUCTURE
     1 CWC         1

