### 
### Created by X-TOOL on Mon Sep 10 21:13:24 2018
### 

@<TRIPOS>MOLECULE
5aiv_ligand
   38    40     1     0     0
SMALL
GAST_HUCK


@<TRIPOS>ATOM
      1 C1         36.9540  -20.5450   -2.5310 C.3       1 M1W         0.0364
      2 O2         36.7680  -19.3150   -1.8220 O.3       1 M1W        -0.3829
      3 C3         35.5010  -19.1900   -1.1650 C.3       1 M1W         0.0491
      4 C4         35.6650  -18.3750    0.1210 C.3       1 M1W        -0.0092
      5 C5         34.4580  -18.5950    1.0380 C.3       1 M1W         0.0331
      6 N6         34.0320  -17.2960    1.5710 N.am      1 M1W        -0.2781
      7 C7         33.3800  -17.1180    2.7470 C.2       1 M1W         0.2786
      8 O8         33.0920  -18.0360    3.4880 O.2       1 M1W        -0.3668
      9 C9         33.0520  -15.7140    3.0780 C.2       1 M1W         0.3144
     10 N10        31.9720  -15.1480    3.6020 N.2       1 M1W        -0.2427
     11 C11        32.2810  -13.8220    3.6530 C.2       1 M1W         0.1256
     12 N12        33.4730  -13.6820    3.1430 N.2       1 M1W        -0.1049
     13 O13        33.9230  -14.7440    2.8160 O.3       1 M1W        -0.1154
     14 C14        31.4940  -12.6410    4.0790 C.ar      1 M1W        -0.0072
     15 C15        30.2140  -12.7230    4.6190 C.ar      1 M1W        -0.0689
     16 C16        29.5240  -11.5620    4.9490 C.ar      1 M1W        -0.0750
     17 C17        30.0770  -10.3130    4.7380 C.ar      1 M1W        -0.0427
     18 C18        31.3480  -10.2020    4.1810 C.ar      1 M1W         0.0644
     19 C19        32.0590  -11.3680    3.8450 C.ar      1 M1W        -0.0182
     20 C20        33.3390  -10.9150    3.2920 C.2       1 M1W        -0.0627
     21 C21        33.3330   -9.5770    3.3190 C.2       1 M1W         0.0220
     22 N22        32.1540   -9.1370    3.8480 N.pl3     1 M1W        -0.2796
     23 H1         37.9489  -20.5509   -3.0002 H         1 M1W         0.0523
     24 H2         36.1815  -20.6407   -3.3082 H         1 M1W         0.0523
     25 H3         36.8746  -21.3884   -1.8293 H         1 M1W         0.0523
     26 H4         35.1172  -20.1906   -0.9173 H         1 M1W         0.0560
     27 H5         34.7913  -18.6801   -1.8331 H         1 M1W         0.0560
     28 H6         35.7407  -17.3071   -0.1316 H         1 M1W         0.0307
     29 H7         36.5803  -18.6946    0.6407 H         1 M1W         0.0307
     30 H8         34.7389  -19.2615    1.8668 H         1 M1W         0.0521
     31 H9         33.6354  -19.0484    0.4655 H         1 M1W         0.0521
     32 H10        34.2374  -16.4822    1.0273 H         1 M1W         0.1853
     33 H11        29.7552  -13.6915    4.7822 H         1 M1W         0.0525
     34 H12        28.5324  -11.6379    5.3804 H         1 M1W         0.0534
     35 H13        29.5219   -9.4213    5.0058 H         1 M1W         0.0550
     36 H14        34.1452  -11.5496    2.9269 H         1 M1W         0.0291
     37 H15        34.1437   -8.9378    2.9724 H         1 M1W         0.0936
     38 H16        31.9027   -8.1468    3.9795 H         1 M1W         0.2271
@<TRIPOS>BOND
     1    1    2 1  
     2    2    3 1  
     3    3    4 1  
     4    4    5 1  
     5    5    6 1  
     6    6    7 am 
     7    7    8 2  
     8    7    9 1  
     9    9   10 2  
    10    9   13 1  
    11   10   11 1  
    12   11   12 2  
    13   11   14 1  
    14   12   13 1  
    15   14   15 ar 
    16   14   19 ar 
    17   15   16 ar 
    18   16   17 ar 
    19   17   18 ar 
    20   18   19 ar 
    21   18   22 1  
    22   19   20 1  
    23   20   21 2  
    24   21   22 1  
    25    1   23 1  
    26    1   24 1  
    27    1   25 1  
    28    3   26 1  
    29    3   27 1  
    30    4   28 1  
    31    4   29 1  
    32    5   30 1  
    33    5   31 1  
    34    6   32 1  
    35   15   33 1  
    36   16   34 1  
    37   17   35 1  
    38   20   36 1  
    39   21   37 1  
    40   22   38 1  
@<TRIPOS>SUBSTRUCTURE
     1 M1W         1

