### 
### Created by X-TOOL on Mon Sep 10 21:13:25 2018
### 

@<TRIPOS>MOLECULE
5aix_ligand
   51    53     1     0     0
SMALL
GAST_HUCK


@<TRIPOS>ATOM
      1 C1         16.5120    7.2020    2.2980 C.3       1 KRX         0.0594
      2 O2         16.1740    5.8710    2.6580 O.3       1 KRX        -0.3208
      3 C3         16.4570    5.1170    1.5270 C.ar      1 KRX         0.0935
      4 C4         17.6210    4.3860    1.4530 C.ar      1 KRX        -0.0307
      5 C5         17.8660    3.6410    0.3200 C.ar      1 KRX        -0.0672
      6 C6         16.9650    3.6540   -0.7130 C.ar      1 KRX        -0.0608
      7 C7         15.7920    4.3910   -0.6410 C.ar      1 KRX        -0.0071
      8 C8         15.5480    5.1190    0.4980 C.ar      1 KRX        -0.0217
      9 C9         14.8820    4.4650   -1.7590 C.ar      1 KRX         0.0535
     10 C10        15.2080    3.7750   -2.9190 C.ar      1 KRX        -0.0226
     11 C11        14.3840    3.8650   -4.0190 C.ar      1 KRX        -0.0233
     12 C12        13.2700    4.6540   -3.8730 C.ar      1 KRX         0.0763
     13 C13        12.9970    5.3180   -2.6860 C.ar      1 KRX         0.0295
     14 N14        13.7900    5.2600   -1.6120 N.ar      1 KRX        -0.2862
     15 C15        12.3350    4.7810   -4.9820 C.2       1 KRX         0.2121
     16 O16        11.1420    4.8350   -4.6670 O.2       1 KRX        -0.3823
     17 N17        12.9570    4.8040   -6.2210 N.am      1 KRX        -0.2819
     18 C18        12.1660    4.8860   -7.4300 C.3       1 KRX         0.0512
     19 C19        11.9070    3.5730   -8.1270 C.3       1 KRX         0.0107
     20 C20        10.8980    3.8430   -9.2300 C.3       1 KRX        -0.0295
     21 N21        11.5730    4.7350  -10.1580 N.4       1 KRX         0.2417
     22 C22        11.6720    6.0470   -9.5340 C.3       1 KRX        -0.0295
     23 C23        12.7050    5.8910   -8.4260 C.3       1 KRX         0.0107
     24 C24        10.8320    4.8240  -11.3830 C.3       1 KRX         0.0657
     25 C25        11.7690    5.1720  -12.5270 C.3       1 KRX         0.4299
     26 F26        11.1380    4.7500  -13.6390 F         1 KRX        -0.1655
     27 F27        11.9950    6.5270  -12.6520 F         1 KRX        -0.1655
     28 F28        12.9970    4.5690  -12.4570 F         1 KRX        -0.1655
     29 H1         16.3159    7.8726    3.1476 H         1 KRX         0.0577
     30 H2         15.9039    7.5145    1.4363 H         1 KRX         0.0577
     31 H3         17.5781    7.2503    2.0313 H         1 KRX         0.0577
     32 H4         18.3320    4.3962    2.2712 H         1 KRX         0.0563
     33 H5         18.7691    3.0461    0.2458 H         1 KRX         0.0596
     34 H6         17.1737    3.0757   -1.6058 H         1 KRX         0.0553
     35 H7         14.6350    5.6969    0.5847 H         1 KRX         0.0565
     36 H8         16.1059    3.1690   -2.9586 H         1 KRX         0.0722
     37 H9         14.6020    3.3442   -4.9444 H         1 KRX         0.0782
     38 H10        12.0939    5.9146   -2.6266 H         1 KRX         0.0877
     39 H11        13.9545    4.7638   -6.2792 H         1 KRX         0.1849
     40 H12        11.1822    5.2596   -7.1099 H         1 KRX         0.0559
     41 H13        11.4993    2.8414   -7.4139 H         1 KRX         0.0339
     42 H14        12.8414    3.1839   -8.5577 H         1 KRX         0.0339
     43 H15         9.9978    4.3237   -8.8194 H         1 KRX         0.0815
     44 H16        10.6164    2.9058   -9.7324 H         1 KRX         0.0815
     45 H17        12.4970    4.3833  -10.3542 H         1 KRX         0.2037
     46 H18        10.7006    6.3481   -9.1148 H         1 KRX         0.0815
     47 H19        12.0038    6.7975  -10.2665 H         1 KRX         0.0815
     48 H20        13.6541    5.5283   -8.8475 H         1 KRX         0.0339
     49 H21        12.8703    6.8585   -7.9294 H         1 KRX         0.0339
     50 H22        10.0640    5.6059  -11.2893 H         1 KRX         0.0904
     51 H23        10.3483    3.8576  -11.5883 H         1 KRX         0.0904
@<TRIPOS>BOND
     1    1    2 1  
     2    2    3 1  
     3    3    4 ar 
     4    3    8 ar 
     5    4    5 ar 
     6    5    6 ar 
     7    6    7 ar 
     8    7    8 ar 
     9    7    9 1  
    10    9   10 ar 
    11    9   14 ar 
    12   10   11 ar 
    13   11   12 ar 
    14   12   13 ar 
    15   12   15 1  
    16   13   14 ar 
    17   15   16 2  
    18   15   17 am 
    19   17   18 1  
    20   18   19 1  
    21   18   23 1  
    22   19   20 1  
    23   20   21 1  
    24   21   22 1  
    25   21   24 1  
    26   22   23 1  
    27   24   25 1  
    28   25   26 1  
    29   25   27 1  
    30   25   28 1  
    31    1   29 1  
    32    1   30 1  
    33    1   31 1  
    34    4   32 1  
    35    5   33 1  
    36    6   34 1  
    37    8   35 1  
    38   10   36 1  
    39   11   37 1  
    40   13   38 1  
    41   17   39 1  
    42   18   40 1  
    43   19   41 1  
    44   19   42 1  
    45   20   43 1  
    46   20   44 1  
    47   21   45 1  
    48   22   46 1  
    49   22   47 1  
    50   23   48 1  
    51   23   49 1  
    52   24   50 1  
    53   24   51 1  
@<TRIPOS>SUBSTRUCTURE
     1 KRX         1

