### 
### Created by X-TOOL on Mon Sep 10 21:13:26 2018
### 

@<TRIPOS>MOLECULE
5ajc_ligand
  107   110     1     0     0
SMALL
GAST_HUCK


@<TRIPOS>ATOM
      1 C1         41.7660   64.5670   13.0440 C.3       1 FUC         0.1883
      2 C2         40.3830   64.5920   12.4590 C.3       1 FUC         0.1341
      3 C3         40.3250   63.8100   11.1660 C.3       1 FUC         0.1140
      4 C4         40.8130   62.3990   11.4350 C.3       1 FUC         0.1095
      5 C5         42.2260   62.4520   12.0010 C.3       1 FUC         0.0873
      6 C6         42.7720   61.0370   12.2120 C.3       1 FUC        -0.0361
      7 O2         39.9500   65.9100   12.1690 O.3       1 FUC        -0.3841
      8 O3         38.9970   63.8290   10.6250 O.3       1 FUC        -0.3864
      9 O4         39.9580   61.7440   12.3560 O.3       1 FUC        -0.3866
     10 O5         42.2000   63.2110   13.1900 O.3       1 FUC        -0.3431
     11 C1         45.6330   66.1520   14.5160 C.3       1 NDG         0.1823
     12 C2         44.5860   65.2540   13.8360 C.3       1 NDG         0.1211
     13 C3         43.6990   66.0840   12.9330 C.3       1 NDG         0.1179
     14 C4         43.0730   67.2240   13.8320 C.3       1 NDG         0.1185
     15 C5         44.1440   68.0560   14.5530 C.3       1 NDG         0.1134
     16 C6         43.4750   68.9550   15.5780 C.3       1 NDG         0.0730
     17 C7         45.5780   63.0630   13.7090 C.2       1 NDG         0.1733
     18 C8         46.3710   62.0660   12.9430 C.3       1 NDG         0.0257
     19 O          45.0310   67.2070   15.2890 O.3       1 NDG        -0.3409
     20 O3         42.6860   65.3330   12.2640 O.3       1 NDG        -0.3403
     21 O4         42.1330   67.9730   13.0880 O.3       1 NDG        -0.3401
     22 O6         44.3060   70.1090   15.7340 O.3       1 NDG        -0.3924
     23 O7         45.2500   62.7820   14.8690 O.2       1 NDG        -0.3974
     24 N2         45.3090   64.2250   13.0940 N.am      1 NDG        -0.2766
     25 O1L        46.4450   66.7380   13.5400 O.3       1 NDG        -0.3651
     26 C1         42.6320   68.9540   12.1140 C.3       1 GAL         0.1884
     27 C2         41.6450   69.0540   11.0040 C.3       1 GAL         0.1344
     28 C3         41.8770   70.2620   10.0730 C.3       1 GAL         0.1197
     29 C4         42.1690   71.5140   10.8960 C.3       1 GAL         0.1121
     30 C5         43.2630   71.2310   11.9140 C.3       1 GAL         0.1130
     31 C6         43.5830   72.4650   12.7290 C.3       1 GAL         0.0730
     32 O2         41.6400   67.8510   10.2120 O.3       1 GAL        -0.3841
     33 O3         40.7290   70.4760    9.2580 O.3       1 GAL        -0.3380
     34 O4         40.9460   71.9660   11.4830 O.3       1 GAL        -0.3865
     35 O5         42.8450   70.1710   12.8200 O.3       1 GAL        -0.3405
     36 O6         44.4910   72.1450   13.7900 O.3       1 GAL        -0.3924
     37 C1         41.8280   71.4770    7.2980 C.2       1 SIA         0.1041
     38 C2         40.9260   70.3440    7.7820 C.3       1 SIA         0.2208
     39 C3         39.5410   70.4460    7.1260 C.3       1 SIA         0.0353
     40 C4         39.5360   69.9140    5.6950 C.3       1 SIA         0.0850
     41 C5         40.2440   68.5660    5.5780 C.3       1 SIA         0.0964
     42 C6         41.6430   68.7360    6.1020 C.3       1 SIA         0.1143
     43 C7         42.5490   67.5040    6.0690 C.3       1 SIA         0.1114
     44 C8         43.8430   67.7310    6.8120 C.3       1 SIA         0.1065
     45 C9         44.8220   66.5880    6.5730 C.3       1 SIA         0.0727
     46 C10        40.0740   66.8550    3.8240 C.2       1 SIA         0.1733
     47 C11        40.0060   66.5960    2.3540 C.3       1 SIA         0.0257
     48 N5         40.1560   68.1490    4.1640 N.am      1 SIA        -0.2790
     49 O1A        41.3490   72.6360    7.3200 O.co2     1 SIA        -0.5426
     50 O1B        43.0380   71.2390    6.9920 O.co2     1 SIA        -0.5426
     51 O4         38.1920   69.8410    5.2760 O.3       1 SIA        -0.3893
     52 O6         41.5600   69.0850    7.5060 O.3       1 SIA        -0.3384
     53 O7         41.8490   66.4620    6.7560 O.3       1 SIA        -0.3865
     54 O8         44.4610   68.9790    6.4210 O.3       1 SIA        -0.3869
     55 O9         45.9710   66.8560    7.4170 O.3       1 SIA        -0.3924
     56 O10        40.1120   65.9730    4.6430 O.2       1 SIA        -0.3974
     57 H1         41.7204   65.0202   14.0452 H         1 FUC         0.0938
     58 H2         39.6931   64.1401   13.1869 H         1 FUC         0.0671
     59 H3         40.9993   64.2802   10.4352 H         1 FUC         0.0648
     60 H4         40.8214   61.8356   10.4903 H         1 FUC         0.0646
     61 H5         42.8790   62.9629   11.2781 H         1 FUC         0.0621
     62 H6         43.7917   61.0946   12.6206 H         1 FUC         0.0255
     63 H7         42.7921   60.5044   11.2497 H         1 FUC         0.0255
     64 H8         42.1245   60.4955   12.9173 H         1 FUC         0.0255
     65 H9         40.5250   66.2950   11.5182 H         1 FUC         0.2101
     66 H10        38.3995   63.4216   11.2410 H         1 FUC         0.2100
     67 H11        39.0773   61.7120   12.0012 H         1 FUC         0.2100
     68 H12        46.2499   65.5305   15.1817 H         1 FUC         0.0932
     69 H13        43.9587   64.7742   14.6017 H         1 FUC         0.0633
     70 H14        44.3297   66.5473   12.1600 H         1 FUC         0.0649
     71 H15        42.5023   66.7209   14.6265 H         1 FUC         0.0651
     72 H16        44.7059   68.6539   13.8203 H         1 FUC         0.0647
     73 H17        43.3798   68.4265   16.5380 H         1 FUC         0.0584
     74 H18        42.4775   69.2539   15.2234 H         1 FUC         0.0584
     75 H19        46.5821   62.4596   11.9378 H         1 FUC         0.0467
     76 H20        45.7993   61.1301   12.8577 H         1 FUC         0.0467
     77 H21        47.3184   61.8706   13.4666 H         1 FUC         0.0467
     78 H22        44.3865   70.5551   14.8991 H         1 FUC         0.2095
     79 H23        45.5970   64.3826   12.1494 H         1 FUC         0.1857
     80 H24        46.8525   66.0569   13.0179 H         1 FUC         0.2126
     81 H25        43.5919   68.6147   11.6976 H         1 FUC         0.0938
     82 H26        40.6509   69.1701   11.4603 H         1 FUC         0.0671
     83 H27        42.7408   70.0516    9.4253 H         1 FUC         0.0650
     84 H28        42.5351   72.3022   10.2217 H         1 FUC         0.0647
     85 H29        44.1688   70.9115   11.3778 H         1 FUC         0.0647
     86 H30        42.6530   72.8668   13.1575 H         1 FUC         0.0584
     87 H31        44.0423   73.2212   12.0755 H         1 FUC         0.0584
     88 H32        41.4976   67.1013   10.7778 H         1 FUC         0.2101
     89 H33        40.3069   72.1243   10.7982 H         1 FUC         0.2100
     90 H34        44.0960   71.4937   14.3578 H         1 FUC         0.2095
     91 H35        39.2335   71.5020    7.1116 H         1 FUC         0.0336
     92 H36        38.8235   69.8632    7.7223 H         1 FUC         0.0336
     93 H37        40.0680   70.6300    5.0513 H         1 FUC         0.0618
     94 H38        39.7296   67.8159    6.1966 H         1 FUC         0.0608
     95 H39        42.1244   69.5438    5.5313 H         1 FUC         0.0646
     96 H40        42.7592   67.2189    5.0276 H         1 FUC         0.0647
     97 H41        43.6160   67.7767    7.8873 H         1 FUC         0.0643
     98 H42        45.1240   66.5594    5.5157 H         1 FUC         0.0584
     99 H43        44.3618   65.6278    6.8491 H         1 FUC         0.0584
    100 H44        39.9412   65.5126    2.1752 H         1 FUC         0.0467
    101 H45        40.9096   66.9942    1.8693 H         1 FUC         0.0467
    102 H46        39.1171   67.0905    1.9353 H         1 FUC         0.0467
    103 H47        40.1576   68.8454    3.4464 H         1 FUC         0.1856
    104 H48        37.7873   70.6960    5.3635 H         1 FUC         0.2099
    105 H49        41.0254   66.2909    6.3146 H         1 FUC         0.2100
    106 H50        43.8519   69.6929    6.5694 H         1 FUC         0.2100
    107 H51        46.3536   67.6908    7.1735 H         1 FUC         0.2095
@<TRIPOS>BOND
     1    1    2 1  
     2    1   10 1  
     3   20    1 1  
     4    2    3 1  
     5    2    7 1  
     6    3    4 1  
     7    3    8 1  
     8    5    4 1  
     9    4    9 1  
    10    5    6 1  
    11   10    5 1  
    12   12   11 1  
    13   19   11 1  
    14   11   25 1  
    15   13   12 1  
    16   12   24 1  
    17   14   13 1  
    18   13   20 1  
    19   14   15 1  
    20   21   14 1  
    21   15   16 1  
    22   15   19 1  
    23   16   22 1  
    24   17   18 1  
    25   17   23 2  
    26   24   17 am 
    27   26   21 1  
    28   27   26 1  
    29   26   35 1  
    30   28   27 1  
    31   27   32 1  
    32   28   29 1  
    33   33   28 1  
    34   29   30 1  
    35   29   34 1  
    36   30   31 1  
    37   30   35 1  
    38   31   36 1  
    39   38   33 1  
    40   38   37 1  
    41   37   49 ar 
    42   37   50 ar 
    43   39   38 1  
    44   52   38 1  
    45   40   39 1  
    46   41   40 1  
    47   40   51 1  
    48   41   42 1  
    49   48   41 1  
    50   42   43 1  
    51   42   52 1  
    52   43   44 1  
    53   43   53 1  
    54   44   45 1  
    55   44   54 1  
    56   45   55 1  
    57   46   47 1  
    58   46   48 am 
    59   46   56 2  
    60    1   57 1  
    61    2   58 1  
    62    3   59 1  
    63    4   60 1  
    64    5   61 1  
    65    6   62 1  
    66    6   63 1  
    67    6   64 1  
    68    7   65 1  
    69    8   66 1  
    70    9   67 1  
    71   11   68 1  
    72   12   69 1  
    73   13   70 1  
    74   14   71 1  
    75   15   72 1  
    76   16   73 1  
    77   16   74 1  
    78   18   75 1  
    79   18   76 1  
    80   18   77 1  
    81   22   78 1  
    82   24   79 1  
    83   25   80 1  
    84   26   81 1  
    85   27   82 1  
    86   28   83 1  
    87   29   84 1  
    88   30   85 1  
    89   31   86 1  
    90   31   87 1  
    91   32   88 1  
    92   34   89 1  
    93   36   90 1  
    94   39   91 1  
    95   39   92 1  
    96   40   93 1  
    97   41   94 1  
    98   42   95 1  
    99   43   96 1  
   100   44   97 1  
   101   45   98 1  
   102   45   99 1  
   103   47  100 1  
   104   47  101 1  
   105   47  102 1  
   106   48  103 1  
   107   51  104 1  
   108   53  105 1  
   109   54  106 1  
   110   55  107 1  
@<TRIPOS>SUBSTRUCTURE
     1 FUC         1

