### 
### Created by X-TOOL on Mon Sep 10 21:13:23 2018
### 

@<TRIPOS>MOLECULE
5ajv_ligand
   44    46     1     0     0
SMALL
GAST_HUCK


@<TRIPOS>ATOM
      1 CAM        42.4090  -38.9230   13.1090 C.ar      1 8R2        -0.0471
      2 CAY        41.9540  -40.0670   12.5760 C.ar      1 8R2        -0.0160
      3 CAW        42.5430  -41.2190   12.2310 C.2       1 8R2         0.1069
      4 CAF        43.9090  -41.5440   12.3670 C.1       1 8R2         0.0325
      5 NAA        45.0700  -41.8750   12.4710 N.1       1 8R2        -0.3915
      6 CAS        41.6500  -42.0410   11.7240 C.2       1 8R2         0.1825
      7 NAB        41.8410  -43.2690   11.2720 N.pl3     1 8R2        -0.2928
      8 NAP        40.4660  -41.4230   11.7300 N.pl3     1 8R2        -0.2409
      9 CAX        40.6530  -40.1950   12.2620 C.ar      1 8R2         0.0589
     10 CAL        39.7890  -39.1830   12.4940 C.ar      1 8R2        -0.0518
     11 CAK        40.2030  -37.9820   13.0510 C.ar      1 8R2        -0.0454
     12 CAV        41.5470  -37.8550   13.3630 C.ar      1 8R2         0.0912
     13 OAQ        42.0230  -36.7090   13.9150 O.3       1 8R2        -0.2764
     14 CAU        41.5300  -36.3620   15.1360 C.ar      1 8R2         0.0984
     15 CAJ        41.0460  -37.2600   16.0840 C.ar      1 8R2        -0.0415
     16 CAH        40.5650  -36.8190   17.3210 C.ar      1 8R2        -0.0481
     17 CAI        41.5400  -35.0300   15.4560 C.ar      1 8R2        -0.0415
     18 CAG        41.0750  -34.5930   16.6880 C.ar      1 8R2        -0.0481
     19 CAT        40.5630  -35.4630   17.6480 C.ar      1 8R2         0.0565
     20 NAO        40.1530  -34.8950   18.8030 N.am      1 8R2        -0.2351
     21 C          40.1010  -35.5650   19.9760 C.2       1 8R2         0.2517
     22 O          40.3730  -36.7550   20.1390 O.2       1 8R2        -0.3799
     23 CA         39.7750  -34.7150   21.2130 C.3       1 8R2         0.0937
     24 N          38.6520  -35.2900   22.0070 N.4       1 8R2         0.2399
     25 CB         41.1010  -34.6880   21.9680 C.3       1 8R2         0.1045
     26 OG         41.1200  -33.4180   22.6010 O.3       1 8R2        -0.3869
     27 H1         43.4624  -38.8266   13.3461 H         1 8R2         0.0412
     28 H2         41.0479  -43.8091   10.8975 H         1 8R2         0.1898
     29 H3         42.7828  -43.6854   11.2944 H         1 8R2         0.1898
     30 H4         39.5741  -41.8112   11.3913 H         1 8R2         0.2320
     31 H5         38.7437  -39.3129   12.2380 H         1 8R2         0.0515
     32 H6         39.5030  -37.1750   13.2349 H         1 8R2         0.0453
     33 H7         41.0420  -38.3204   15.8590 H         1 8R2         0.0516
     34 H8         40.1883  -37.5414   18.0360 H         1 8R2         0.0480
     35 H9         41.9154  -34.3093   14.7386 H         1 8R2         0.0516
     36 H10        41.1115  -33.5331   16.9123 H         1 8R2         0.0480
     37 H11        39.8751  -33.9345   18.7897 H         1 8R2         0.2225
     38 H12        39.4946  -33.6952   20.9108 H         1 8R2         0.1126
     39 H13        38.4712  -34.7037   22.8067 H         1 8R2         0.2016
     40 H14        38.9003  -36.2159   22.3185 H         1 8R2         0.2016
     41 H15        37.8251  -35.3392   21.4327 H         1 8R2         0.2016
     42 H16        41.9472  -34.7891   21.2725 H         1 8R2         0.0641
     43 H17        41.1409  -35.4954   22.7139 H         1 8R2         0.0641
     44 H18        41.0722  -32.7360   21.9415 H         1 8R2         0.2099
@<TRIPOS>BOND
     1    1    2 ar 
     2    1   12 ar 
     3    2    3 1  
     4    2    9 ar 
     5    3    4 1  
     6    3    6 2  
     7    4    5 3  
     8    6    7 1  
     9    6    8 1  
    10    8    9 1  
    11    9   10 ar 
    12   10   11 ar 
    13   11   12 ar 
    14   12   13 1  
    15   13   14 1  
    16   14   15 ar 
    17   14   17 ar 
    18   15   16 ar 
    19   16   19 ar 
    20   17   18 ar 
    21   18   19 ar 
    22   19   20 1  
    23   20   21 am 
    24   21   22 2  
    25   21   23 1  
    26   23   24 1  
    27   23   25 1  
    28   25   26 1  
    29    1   27 1  
    30    7   28 1  
    31    7   29 1  
    32    8   30 1  
    33   10   31 1  
    34   11   32 1  
    35   15   33 1  
    36   16   34 1  
    37   17   35 1  
    38   18   36 1  
    39   20   37 1  
    40   23   38 1  
    41   24   39 1  
    42   24   40 1  
    43   24   41 1  
    44   25   42 1  
    45   25   43 1  
    46   26   44 1  
@<TRIPOS>SUBSTRUCTURE
     1 8R2         1

