### 
### Created by X-TOOL on Mon Sep 10 21:13:24 2018
### 

@<TRIPOS>MOLECULE
5ajw_ligand
   53    56     1     0     0
SMALL
GAST_HUCK


@<TRIPOS>ATOM
      1 O1        -39.9410  -36.6850  -19.8030 O.2       1 S6L        -0.3803
      2 C22       -40.3620  -35.5320  -19.7600 C.2       1 S6L         0.2463
      3 C23       -40.4570  -34.7460  -21.0670 C.3       1 S6L         0.0597
      4 N4        -39.2000  -34.8690  -21.8430 N.4       1 S6L         0.2361
      5 N3        -40.7490  -34.8950  -18.6300 N.am      1 S6L        -0.2354
      6 C19       -40.9570  -35.4250  -17.3310 C.ar      1 S6L         0.0565
      7 C18       -41.3780  -34.5620  -16.3230 C.ar      1 S6L        -0.0481
      8 C17       -41.6970  -35.0530  -15.0670 C.ar      1 S6L        -0.0415
      9 C20       -40.8350  -36.7870  -17.0580 C.ar      1 S6L        -0.0481
     10 C21       -41.1710  -37.2840  -15.8110 C.ar      1 S6L        -0.0415
     11 C16       -41.6130  -36.4170  -14.8180 C.ar      1 S6L         0.0984
     12 O         -42.0470  -36.9040  -13.5800 O.3       1 S6L        -0.2764
     13 C10       -41.6420  -38.1530  -13.0980 C.ar      1 S6L         0.0912
     14 C9        -40.3110  -38.3540  -12.7520 C.ar      1 S6L        -0.0454
     15 C8        -39.9090  -39.5640  -12.2120 C.ar      1 S6L        -0.0515
     16 C11       -42.5890  -39.1590  -12.9290 C.ar      1 S6L        -0.0471
     17 C12       -42.1960  -40.3800  -12.3770 C.ar      1 S6L        -0.0156
     18 C7        -40.8540  -40.5670  -12.0120 C.ar      1 S6L         0.0638
     19 C13       -42.8680  -41.6080  -12.0560 C.2       1 S6L         0.1073
     20 C15       -44.2690  -41.8660  -12.2040 C.1       1 S6L         0.0325
     21 N2        -45.3960  -41.9890  -12.3480 N.1       1 S6L        -0.3915
     22 C14       -41.9390  -42.4790  -11.4730 C.2       1 S6L         0.1868
     23 N1        -42.1340  -43.7290  -11.0210 N.pl3     1 S6L        -0.2926
     24 N         -40.7240  -41.8370  -11.4300 N.pl3     1 S6L        -0.2153
     25 C6        -39.4810  -42.3740  -10.8270 C.3       1 S6L         0.0907
     26 C3        -38.4060  -42.7550  -11.8180 C.ar      1 S6L        -0.0141
     27 C2        -37.0610  -42.5980  -11.4960 C.ar      1 S6L        -0.0578
     28 C1        -36.0660  -42.9890  -12.3850 C.ar      1 S6L        -0.0685
     29 C4        -38.7300  -43.3200  -13.0480 C.ar      1 S6L        -0.0578
     30 C5        -37.7350  -43.7290  -13.9270 C.ar      1 S6L        -0.0685
     31 C         -36.4030  -43.5610  -13.5980 C.ar      1 S6L        -0.0687
     32 H1        -40.6383  -33.6854  -20.8385 H         1 S6L         0.1066
     33 H2        -41.2914  -35.1400  -21.6658 H         1 S6L         0.1066
     34 H3        -39.2817  -34.3449  -22.7001 H         1 S6L         0.2012
     35 H4        -39.0310  -35.8393  -22.0574 H         1 S6L         0.2012
     36 H5        -38.4326  -34.5064  -21.2993 H         1 S6L         0.2012
     37 H6        -40.9110  -33.9127  -18.7244 H         1 S6L         0.2224
     38 H7        -41.4568  -33.4993  -16.5218 H         1 S6L         0.0480
     39 H8        -42.0110  -34.3750  -14.2816 H         1 S6L         0.0516
     40 H9        -40.4748  -37.4605  -17.8272 H         1 S6L         0.0480
     41 H10       -41.0899  -38.3459  -15.6090 H         1 S6L         0.0516
     42 H11       -39.5865  -37.5623  -12.9051 H         1 S6L         0.0453
     43 H12       -38.8706  -39.7286  -11.9480 H         1 S6L         0.0516
     44 H13       -43.6198  -38.9965  -13.2225 H         1 S6L         0.0412
     45 H14       -43.0685  -44.1580  -11.0800 H         1 S6L         0.1899
     46 H15       -41.3490  -44.2583  -10.6155 H         1 S6L         0.1899
     47 H16       -39.7428  -43.2703  -10.2456 H         1 S6L         0.0766
     48 H17       -39.0690  -41.6077  -10.1539 H         1 S6L         0.0766
     49 H18       -36.7860  -42.1657  -10.5407 H         1 S6L         0.0557
     50 H19       -35.0232  -42.8450  -12.1265 H         1 S6L         0.0599
     51 H20       -39.7713  -43.4424  -13.3234 H         1 S6L         0.0557
     52 H21       -38.0042  -44.1816  -14.8745 H         1 S6L         0.0599
     53 H22       -35.6273  -43.8757  -14.2867 H         1 S6L         0.0559
@<TRIPOS>BOND
     1    1    2 2  
     2    2    3 1  
     3    2    5 am 
     4    3    4 1  
     5    5    6 1  
     6    6    7 ar 
     7    6    9 ar 
     8    7    8 ar 
     9    8   11 ar 
    10    9   10 ar 
    11   10   11 ar 
    12   11   12 1  
    13   12   13 1  
    14   13   14 ar 
    15   13   16 ar 
    16   14   15 ar 
    17   15   18 ar 
    18   16   17 ar 
    19   17   18 ar 
    20   17   19 1  
    21   18   24 1  
    22   19   20 1  
    23   19   22 2  
    24   20   21 3  
    25   22   23 1  
    26   22   24 1  
    27   24   25 1  
    28   25   26 1  
    29   26   27 ar 
    30   26   29 ar 
    31   27   28 ar 
    32   28   31 ar 
    33   29   30 ar 
    34   30   31 ar 
    35    3   32 1  
    36    3   33 1  
    37    4   34 1  
    38    4   35 1  
    39    4   36 1  
    40    5   37 1  
    41    7   38 1  
    42    8   39 1  
    43    9   40 1  
    44   10   41 1  
    45   14   42 1  
    46   15   43 1  
    47   16   44 1  
    48   23   45 1  
    49   23   46 1  
    50   25   47 1  
    51   25   48 1  
    52   27   49 1  
    53   28   50 1  
    54   29   51 1  
    55   30   52 1  
    56   31   53 1  
@<TRIPOS>SUBSTRUCTURE
     1 S6L         1

