### 
### Created by X-TOOL on Mon Sep 10 21:13:24 2018
### 

@<TRIPOS>MOLECULE
5ajx_ligand
   60    64     1     0     0
SMALL
GAST_HUCK


@<TRIPOS>ATOM
      1 N4        -45.4810  -41.6440  -12.6990 N.1       1 FD9        -0.3664
      2 C25       -44.3470  -41.5630  -12.5230 C.1       1 FD9         0.0578
      3 C7        -42.9350  -41.4000  -12.3220 C.2       1 FD9         0.0950
      4 C6        -42.0590  -42.3350  -11.8130 C.2       1 FD9         0.0748
      5 C8        -42.1790  -40.2230  -12.6210 C.ar      1 FD9        -0.0019
      6 C13       -42.4680  -38.9770  -13.1330 C.ar      1 FD9        -0.0401
      7 C12       -41.4550  -38.0410  -13.3070 C.ar      1 FD9         0.0966
      8 C11       -40.1450  -38.3300  -12.9500 C.ar      1 FD9        -0.0397
      9 C10       -39.8090  -39.5730  -12.4270 C.ar      1 FD9        -0.0446
     10 C9        -40.8300  -40.5170  -12.2660 C.ar      1 FD9         0.0702
     11 N1        -40.7940  -41.8280  -11.7700 N.pl3     1 FD9        -0.2457
     12 C5        -39.6210  -42.5490  -11.2860 C.3       1 FD9         0.0741
     13 C2        -38.5620  -42.7580  -12.3240 C.2       1 FD9         0.0138
     14 C3        -38.6910  -43.3260  -13.5410 C.2       1 FD9         0.1278
     15 C4        -39.8350  -43.9200  -14.2810 C.3       1 FD9         0.0026
     16 O         -37.5340  -43.3650  -14.2370 O.3       1 FD9        -0.1899
     17 N         -36.5580  -42.7550  -13.3710 N.2       1 FD9        -0.1775
     18 C1        -37.1700  -42.3780  -12.1980 C.2       1 FD9         0.0154
     19 C         -36.5290  -41.7860  -11.1960 C.3       1 FD9        -0.0298
     20 O1        -41.7950  -36.7980  -13.8070 O.3       1 FD9        -0.2748
     21 C14       -41.4430  -36.4270  -15.1160 C.ar      1 FD9         0.0987
     22 C19       -41.5560  -35.0700  -15.4370 C.ar      1 FD9        -0.0415
     23 C18       -41.2300  -34.6210  -16.7060 C.ar      1 FD9        -0.0481
     24 C17       -40.7850  -35.5160  -17.6700 C.ar      1 FD9         0.0565
     25 C16       -40.6720  -36.8650  -17.3460 C.ar      1 FD9        -0.0481
     26 C15       -40.9940  -37.3410  -16.0860 C.ar      1 FD9        -0.0415
     27 N2        -40.4710  -34.9590  -18.9560 N.am      1 FD9        -0.2351
     28 C20       -40.0190  -35.5850  -20.0780 C.2       1 FD9         0.2495
     29 O2        -39.8100  -36.7880  -20.1320 O.2       1 FD9        -0.3800
     30 C21       -39.7710  -34.6930  -21.3150 C.3       1 FD9         0.0722
     31 N3        -38.9230  -35.3270  -22.3390 N.4       1 FD9         0.2465
     32 C24       -39.4200  -34.9210  -23.6610 C.3       1 FD9        -0.0313
     33 C23       -40.9240  -34.8130  -23.4820 C.3       1 FD9        -0.0052
     34 C22       -41.0850  -34.3710  -22.0410 C.3       1 FD9         0.0131
     35 H1        -42.3380  -43.3371  -11.4907 H         1 FD9         0.1205
     36 H2        -43.4879  -38.7259  -13.4009 H         1 FD9         0.0449
     37 H3        -39.3755  -37.5777  -13.0806 H         1 FD9         0.0494
     38 H4        -38.7864  -39.8047  -12.1519 H         1 FD9         0.0538
     39 H5        -39.9469  -43.5343  -10.9215 H         1 FD9         0.0678
     40 H6        -39.1823  -41.9773  -10.4549 H         1 FD9         0.0678
     41 H7        -39.4915  -44.2743  -15.2641 H         1 FD9         0.0423
     42 H8        -40.6175  -43.1593  -14.4184 H         1 FD9         0.0423
     43 H9        -40.2426  -44.7660  -13.7083 H         1 FD9         0.0423
     44 H10       -35.4698  -41.6574  -11.4634 H         1 FD9         0.0367
     45 H11       -36.6060  -42.4088  -10.2926 H         1 FD9         0.0367
     46 H12       -36.9804  -40.8018  -11.0025 H         1 FD9         0.0367
     47 H13       -41.9007  -34.3660  -14.6883 H         1 FD9         0.0516
     48 H14       -41.3225  -33.5682  -16.9473 H         1 FD9         0.0480
     49 H15       -40.3227  -37.5613  -18.0998 H         1 FD9         0.0480
     50 H16       -40.9019  -38.3955  -15.8524 H         1 FD9         0.0516
     51 H17       -40.6030  -33.9713  -19.0395 H         1 FD9         0.2225
     52 H18       -39.2954  -33.7616  -20.9741 H         1 FD9         0.1103
     53 H19       -38.9714  -36.3298  -22.2493 H         1 FD9         0.2035
     54 H20       -37.9679  -35.0253  -22.2260 H         1 FD9         0.2035
     55 H21       -39.1717  -35.6779  -24.4196 H         1 FD9         0.0814
     56 H22       -38.9926  -33.9515  -23.9567 H         1 FD9         0.0814
     57 H23       -41.4097  -35.7855  -23.6503 H         1 FD9         0.0320
     58 H24       -41.3482  -34.0673  -24.1704 H         1 FD9         0.0320
     59 H25       -41.2832  -33.2898  -21.9989 H         1 FD9         0.0347
     60 H26       -41.9177  -34.9150  -21.5713 H         1 FD9         0.0347
@<TRIPOS>BOND
     1    1    2 3  
     2    2    3 1  
     3    3    4 2  
     4    3    5 1  
     5    4   11 1  
     6    5    6 ar 
     7    5   10 ar 
     8    6    7 ar 
     9    7    8 ar 
    10    7   20 1  
    11    8    9 ar 
    12    9   10 ar 
    13   10   11 1  
    14   11   12 1  
    15   12   13 1  
    16   13   14 2  
    17   13   18 1  
    18   14   15 1  
    19   14   16 1  
    20   16   17 1  
    21   17   18 2  
    22   18   19 1  
    23   20   21 1  
    24   21   22 ar 
    25   21   26 ar 
    26   22   23 ar 
    27   23   24 ar 
    28   24   25 ar 
    29   24   27 1  
    30   25   26 ar 
    31   27   28 am 
    32   28   29 2  
    33   28   30 1  
    34   30   31 1  
    35   30   34 1  
    36   31   32 1  
    37   32   33 1  
    38   33   34 1  
    39    4   35 1  
    40    6   36 1  
    41    8   37 1  
    42    9   38 1  
    43   12   39 1  
    44   12   40 1  
    45   15   41 1  
    46   15   42 1  
    47   15   43 1  
    48   19   44 1  
    49   19   45 1  
    50   19   46 1  
    51   22   47 1  
    52   23   48 1  
    53   25   49 1  
    54   26   50 1  
    55   27   51 1  
    56   30   52 1  
    57   31   53 1  
    58   31   54 1  
    59   32   55 1  
    60   32   56 1  
    61   33   57 1  
    62   33   58 1  
    63   34   59 1  
    64   34   60 1  
@<TRIPOS>SUBSTRUCTURE
     1 FD9         1

