### 
### Created by X-TOOL on Mon Sep 10 21:13:24 2018
### 

@<TRIPOS>MOLECULE
5ajy_ligand
   47    50     1     0     0
SMALL
GAST_HUCK


@<TRIPOS>ATOM
      1 C         -35.8970  -42.5390  -12.3990 C.3       1 87T         0.0590
      2 N         -37.2750  -42.4580  -11.9240 N.pl3     1 87T        -0.2137
      3 O         -41.2450  -37.1310  -13.3220 O.3       1 87T        -0.2757
      4 C1        -38.3690  -42.1700  -12.6400 C.2       1 87T         0.0496
      5 N1        -37.5590  -42.7060  -10.6240 N.2       1 87T        -0.2186
      6 O1        -40.0820  -36.9030  -19.7590 O.2       1 87T        -0.3803
      7 C2        -39.4450  -42.2380  -11.7750 C.2       1 87T        -0.0238
      8 N2        -43.0810  -42.2000  -12.2720 N.pl3     1 87T        -0.2864
      9 C3        -38.8720  -42.5560  -10.5300 C.2       1 87T        -0.0020
     10 N3        -40.8360  -35.1360  -18.5210 N.am      1 87T        -0.2354
     11 C4        -40.8580  -41.9440  -12.0590 C.2       1 87T        -0.0361
     12 N4        -39.6120  -35.2240  -21.9130 N.4       1 87T         0.2361
     13 C5        -41.9080  -42.8250  -11.9500 C.2       1 87T         0.0218
     14 C6        -42.8200  -40.8850  -12.5820 C.ar      1 87T         0.0552
     15 C7        -41.4350  -40.6760  -12.4450 C.ar      1 87T        -0.0298
     16 C8        -40.9130  -39.4100  -12.7020 C.ar      1 87T        -0.0436
     17 C9        -41.7810  -38.3870  -13.0680 C.ar      1 87T         0.0953
     18 C10       -43.1560  -38.5930  -13.1690 C.ar      1 87T        -0.0410
     19 C11       -43.6830  -39.8560  -12.9580 C.ar      1 87T        -0.0476
     20 C12       -41.1640  -36.6760  -14.6350 C.ar      1 87T         0.0983
     21 C13       -41.0000  -37.5580  -15.6970 C.ar      1 87T        -0.0416
     22 C14       -40.9110  -37.0670  -16.9870 C.ar      1 87T        -0.0482
     23 C15       -40.9270  -35.6930  -17.2200 C.ar      1 87T         0.0565
     24 C16       -41.1030  -34.8210  -16.1490 C.ar      1 87T        -0.0482
     25 C17       -41.2030  -35.3090  -14.8580 C.ar      1 87T        -0.0416
     26 C18       -40.4990  -35.7480  -19.6780 C.2       1 87T         0.2463
     27 C19       -40.6480  -34.9250  -20.9750 C.3       1 87T         0.0597
     28 H1        -35.8654  -42.3066  -13.4737 H         1 87T         0.0603
     29 H2        -35.5108  -43.5553  -12.2322 H         1 87T         0.0603
     30 H3        -35.2765  -41.8160  -11.8492 H         1 87T         0.0603
     31 H4        -38.4044  -41.9283  -13.7013 H         1 87T         0.0930
     32 H5        -44.0110  -42.6427  -12.2810 H         1 87T         0.2238
     33 H6        -39.4367  -42.6651   -9.6053 H         1 87T         0.0646
     34 H7        -41.0494  -34.1616  -18.5917 H         1 87T         0.2224
     35 H8        -39.7416  -34.6696  -22.7448 H         1 87T         0.2012
     36 H9        -39.6477  -36.2025  -22.1525 H         1 87T         0.2012
     37 H10       -38.7160  -35.0108  -21.5034 H         1 87T         0.2012
     38 H11       -41.8186  -43.8683  -11.6509 H         1 87T         0.0883
     39 H12       -39.8481  -39.2255  -12.6181 H         1 87T         0.0448
     40 H13       -43.8121  -37.7652  -13.4125 H         1 87T         0.0492
     41 H14       -44.7438  -40.0410  -13.0824 H         1 87T         0.0530
     42 H15       -40.9422  -38.6251  -15.5150 H         1 87T         0.0515
     43 H16       -40.8284  -37.7544  -17.8211 H         1 87T         0.0480
     44 H17       -41.1620  -33.7534  -16.3275 H         1 87T         0.0480
     45 H18       -41.3114  -34.6246  -14.0244 H         1 87T         0.0515
     46 H19       -41.6211  -35.1552  -21.4333 H         1 87T         0.1066
     47 H20       -40.6044  -33.8547  -20.7249 H         1 87T         0.1066
@<TRIPOS>BOND
     1    2    1 1  
     2    4    2 1  
     3    5    2 1  
     4    3   17 1  
     5   20    3 1  
     6    7    4 2  
     7    9    5 2  
     8   26    6 2  
     9    7    9 1  
    10   11    7 1  
    11    8   13 1  
    12   14    8 1  
    13   10   23 1  
    14   26   10 am 
    15   11   13 2  
    16   15   11 1  
    17   27   12 1  
    18   15   14 ar 
    19   19   14 ar 
    20   16   15 ar 
    21   17   16 ar 
    22   17   18 ar 
    23   18   19 ar 
    24   21   20 ar 
    25   25   20 ar 
    26   22   21 ar 
    27   23   22 ar 
    28   23   24 ar 
    29   24   25 ar 
    30   26   27 1  
    31    1   28 1  
    32    1   29 1  
    33    1   30 1  
    34    4   31 1  
    35    8   32 1  
    36    9   33 1  
    37   10   34 1  
    38   12   35 1  
    39   12   36 1  
    40   12   37 1  
    41   13   38 1  
    42   16   39 1  
    43   18   40 1  
    44   19   41 1  
    45   21   42 1  
    46   22   43 1  
    47   24   44 1  
    48   25   45 1  
    49   27   46 1  
    50   27   47 1  
@<TRIPOS>SUBSTRUCTURE
     1 87T         1

