### 
### Created by X-TOOL on Mon Sep 10 21:13:23 2018
### 

@<TRIPOS>MOLECULE
5ajz_ligand
   38    40     1     0     0
SMALL
GAST_HUCK


@<TRIPOS>ATOM
      1 N3        -45.6740  -41.8200  -12.3870 N.1       1 MJP        -0.3664
      2 C16       -44.5490  -41.7710  -12.2000 C.1       1 MJP         0.0578
      3 C14       -43.1350  -41.6410  -11.9710 C.2       1 MJP         0.0947
      4 C15       -42.2900  -42.5670  -11.4090 C.2       1 MJP         0.0711
      5 N2        -41.0400  -42.0290  -11.2930 N.pl3     1 MJP        -0.2637
      6 C11       -41.0500  -40.7490  -11.8020 C.ar      1 MJP         0.0666
      7 C10       -40.0310  -39.8070  -11.9010 C.ar      1 MJP        -0.0449
      8 C9        -40.3300  -38.5500  -12.4030 C.ar      1 MJP        -0.0397
      9 C12       -42.3650  -40.4670  -12.2260 C.ar      1 MJP        -0.0022
     10 C13       -42.6450  -39.2010  -12.7450 C.ar      1 MJP        -0.0401
     11 C8        -41.6250  -38.2550  -12.8130 C.ar      1 MJP         0.0966
     12 O1        -41.9200  -36.9670  -13.2560 O.3       1 MJP        -0.2748
     13 C2        -41.4700  -36.5010  -14.4930 C.ar      1 MJP         0.0987
     14 C1        -41.1220  -37.3820  -15.5120 C.ar      1 MJP        -0.0415
     15 C3        -41.4830  -35.1320  -14.7240 C.ar      1 MJP        -0.0415
     16 C4        -41.1930  -34.6450  -15.9890 C.ar      1 MJP        -0.0481
     17 C5        -40.8720  -35.5210  -17.0260 C.ar      1 MJP         0.0565
     18 C         -40.8220  -36.8910  -16.7700 C.ar      1 MJP        -0.0481
     19 N         -40.6430  -34.9980  -18.3270 N.am      1 MJP        -0.2354
     20 C6        -40.3530  -35.6680  -19.4670 C.2       1 MJP         0.2463
     21 O         -40.0640  -36.8610  -19.5190 O.2       1 MJP        -0.3803
     22 C7        -40.3670  -34.8270  -20.7530 C.3       1 MJP         0.0597
     23 N1        -39.2670  -35.2690  -21.6060 N.4       1 MJP         0.2361
     24 H1        -42.5728  -43.5733  -11.1036 H         1 MJP         0.1202
     25 H2        -40.2204  -42.5046  -10.8893 H         1 MJP         0.2357
     26 H3        -39.0214  -40.0516  -11.5912 H         1 MJP         0.0538
     27 H4        -39.5537  -37.7969  -12.4759 H         1 MJP         0.0494
     28 H5        -43.6433  -38.9578  -13.0904 H         1 MJP         0.0449
     29 H6        -41.0861  -38.4484  -15.3210 H         1 MJP         0.0516
     30 H7        -41.7191  -34.4465  -13.9181 H         1 MJP         0.0516
     31 H8        -41.2158  -33.5771  -16.1735 H         1 MJP         0.0480
     32 H9        -40.5459  -37.5765  -17.5630 H         1 MJP         0.0480
     33 H10       -40.7041  -34.0035  -18.4118 H         1 MJP         0.2224
     34 H11       -40.2385  -33.7636  -20.5027 H         1 MJP         0.1066
     35 H12       -41.3234  -34.9672  -21.2780 H         1 MJP         0.1066
     36 H13       -39.2617  -34.7265  -22.4555 H         1 MJP         0.2012
     37 H14       -39.3871  -36.2442  -21.8309 H         1 MJP         0.2012
     38 H15       -38.3930  -35.1413  -21.1204 H         1 MJP         0.2012
@<TRIPOS>BOND
     1    1    2 3  
     2    2    3 1  
     3    3    4 2  
     4    3    9 1  
     5    4    5 1  
     6    5    6 1  
     7    6    7 ar 
     8    6    9 ar 
     9    7    8 ar 
    10    8   11 ar 
    11    9   10 ar 
    12   10   11 ar 
    13   11   12 1  
    14   12   13 1  
    15   13   14 ar 
    16   13   15 ar 
    17   14   18 ar 
    18   15   16 ar 
    19   16   17 ar 
    20   17   18 ar 
    21   17   19 1  
    22   19   20 am 
    23   20   21 2  
    24   20   22 1  
    25   22   23 1  
    26    4   24 1  
    27    5   25 1  
    28    7   26 1  
    29    8   27 1  
    30   10   28 1  
    31   14   29 1  
    32   15   30 1  
    33   16   31 1  
    34   18   32 1  
    35   19   33 1  
    36   22   34 1  
    37   22   35 1  
    38   23   36 1  
    39   23   37 1  
    40   23   38 1  
@<TRIPOS>SUBSTRUCTURE
     1 MJP         1

