### 
### Created by X-TOOL on Mon Sep 10 21:13:23 2018
### 

@<TRIPOS>MOLECULE
5ak0_ligand
   57    61     1     0     0
SMALL
GAST_HUCK


@<TRIPOS>ATOM
      1 O1        -40.6960  -37.3220  -19.8390 O.2       1 8V1        -0.3800
      2 C15       -40.8380  -36.1080  -19.7460 C.2       1 8V1         0.2494
      3 C16       -40.5860  -35.2090  -20.9550 C.3       1 8V1         0.0722
      4 N2        -39.5990  -35.8240  -21.8610 N.4       1 8V1         0.2465
      5 C19       -40.1120  -35.7710  -23.2410 C.3       1 8V1        -0.0313
      6 C18       -41.6210  -35.7950  -23.0870 C.3       1 8V1        -0.0052
      7 C17       -41.8640  -35.0150  -21.7870 C.3       1 8V1         0.0131
      8 N1        -41.1430  -35.4560  -18.5980 N.am      1 8V1        -0.2351
      9 C12       -41.4110  -35.9970  -17.3110 C.ar      1 8V1         0.0565
     10 C11       -41.4020  -37.3680  -17.0480 C.ar      1 8V1        -0.0482
     11 C10       -41.6180  -37.8380  -15.7620 C.ar      1 8V1        -0.0416
     12 C13       -41.6730  -35.1060  -16.2730 C.ar      1 8V1        -0.0482
     13 C14       -41.9270  -35.5740  -14.9920 C.ar      1 8V1        -0.0416
     14 C9        -41.9040  -36.9390  -14.7380 C.ar      1 8V1         0.0983
     15 O         -42.1320  -37.3600  -13.4250 O.3       1 8V1        -0.2757
     16 C7        -42.5420  -38.6680  -13.1610 C.ar      1 8V1         0.0953
     17 C6        -43.8890  -38.9860  -13.3000 C.ar      1 8V1        -0.0410
     18 C5        -44.3210  -40.2840  -13.0750 C.ar      1 8V1        -0.0474
     19 C4        -43.3900  -41.2440  -12.6840 C.ar      1 8V1         0.0574
     20 N         -43.5490  -42.5870  -12.4180 N.pl3     1 8V1        -0.2752
     21 C         -44.8200  -43.3020  -12.3850 C.3       1 8V1         0.0386
     22 C8        -41.5960  -39.6340  -12.8310 C.ar      1 8V1        -0.0436
     23 C3        -42.0250  -40.9400  -12.5710 C.ar      1 8V1        -0.0296
     24 C2        -41.3500  -42.1670  -12.2110 C.2       1 8V1        -0.0359
     25 C1        -42.3230  -43.1270  -12.1420 C.2       1 8V1         0.0243
     26 C20       -39.9100  -42.3850  -12.0190 C.2       1 8V1        -0.0237
     27 C22       -38.9800  -41.5130  -11.4860 C.2       1 8V1         0.0496
     28 N4        -37.8050  -42.1500  -11.5170 N.pl3     1 8V1        -0.2137
     29 C23       -36.5090  -41.6540  -11.0700 C.3       1 8V1         0.0590
     30 N3        -37.9140  -43.4070  -12.0150 N.2       1 8V1        -0.2186
     31 C21       -39.1890  -43.5550  -12.3280 C.2       1 8V1        -0.0020
     32 H1        -40.2179  -34.2337  -20.6040 H         1 8V1         0.1103
     33 H2        -39.4479  -36.7841  -21.5938 H         1 8V1         0.2035
     34 H3        -38.7286  -35.3187  -21.8049 H         1 8V1         0.2035
     35 H4        -39.7663  -36.6414  -23.8179 H         1 8V1         0.0814
     36 H5        -39.7870  -34.8469  -23.7413 H         1 8V1         0.0814
     37 H6        -41.9905  -36.8274  -23.0004 H         1 8V1         0.0320
     38 H7        -42.1106  -35.3005  -23.9389 H         1 8V1         0.0320
     39 H8        -42.0261  -33.9484  -22.0018 H         1 8V1         0.0347
     40 H9        -42.7369  -35.4183  -21.2528 H         1 8V1         0.0347
     41 H10       -41.1853  -34.4592  -18.6652 H         1 8V1         0.2224
     42 H11       -41.2249  -38.0698  -17.8550 H         1 8V1         0.0480
     43 H12       -41.5645  -38.9006  -15.5545 H         1 8V1         0.0515
     44 H13       -41.6785  -34.0396  -16.4674 H         1 8V1         0.0480
     45 H14       -42.1429  -34.8759  -14.1913 H         1 8V1         0.0515
     46 H15       -44.6006  -38.2192  -13.5841 H         1 8V1         0.0492
     47 H16       -45.3649  -40.5474  -13.2011 H         1 8V1         0.0530
     48 H17       -44.6391  -44.3607  -12.1473 H         1 8V1         0.0562
     49 H18       -45.3095  -43.2253  -13.3671 H         1 8V1         0.0562
     50 H19       -45.4699  -42.8594  -11.6157 H         1 8V1         0.0562
     51 H20       -40.5439  -39.3786  -12.7763 H         1 8V1         0.0448
     52 H21       -42.1459  -44.1742  -11.9011 H         1 8V1         0.0884
     53 H22       -39.1671  -40.5066  -11.1144 H         1 8V1         0.0930
     54 H23       -35.7440  -42.4272  -11.2341 H         1 8V1         0.0603
     55 H24       -36.5595  -41.4098   -9.9987 H         1 8V1         0.0603
     56 H25       -36.2456  -40.7508  -11.6400 H         1 8V1         0.0603
     57 H26       -39.6215  -44.4546  -12.7634 H         1 8V1         0.0646
@<TRIPOS>BOND
     1    1    2 2  
     2    2    3 1  
     3    2    8 am 
     4    3    4 1  
     5    3    7 1  
     6    4    5 1  
     7    5    6 1  
     8    6    7 1  
     9    8    9 1  
    10    9   10 ar 
    11    9   12 ar 
    12   10   11 ar 
    13   11   14 ar 
    14   12   13 ar 
    15   13   14 ar 
    16   14   15 1  
    17   15   16 1  
    18   16   17 ar 
    19   16   22 ar 
    20   17   18 ar 
    21   18   19 ar 
    22   19   20 1  
    23   19   23 ar 
    24   20   21 1  
    25   20   25 1  
    26   22   23 ar 
    27   23   24 1  
    28   24   25 2  
    29   24   26 1  
    30   26   27 2  
    31   26   31 1  
    32   27   28 1  
    33   28   29 1  
    34   28   30 1  
    35   30   31 2  
    36    3   32 1  
    37    4   33 1  
    38    4   34 1  
    39    5   35 1  
    40    5   36 1  
    41    6   37 1  
    42    6   38 1  
    43    7   39 1  
    44    7   40 1  
    45    8   41 1  
    46   10   42 1  
    47   11   43 1  
    48   12   44 1  
    49   13   45 1  
    50   17   46 1  
    51   18   47 1  
    52   21   48 1  
    53   21   49 1  
    54   21   50 1  
    55   22   51 1  
    56   25   52 1  
    57   27   53 1  
    58   29   54 1  
    59   29   55 1  
    60   29   56 1  
    61   31   57 1  
@<TRIPOS>SUBSTRUCTURE
     1 8V1         1

