### 
### Created by X-TOOL on Mon Sep 10 21:13:25 2018
### 

@<TRIPOS>MOLECULE
5ak2_ligand
   50    53     1     0     0
SMALL
GAST_HUCK


@<TRIPOS>ATOM
      1 C1         31.4900    8.6850    8.6410 C.3       1 85Z        -0.0331
      2 C2         32.5470    9.5940    9.2250 C.ar      1 85Z        -0.0456
      3 C3         33.7400    9.7720    8.5340 C.ar      1 85Z        -0.0315
      4 C4         34.6990   10.5960    9.0590 C.ar      1 85Z         0.1208
      5 C5         34.5640   11.2630   10.2410 C.ar      1 85Z        -0.0401
      6 C6         33.3820   11.1090   10.9350 C.ar      1 85Z        -0.0694
      7 C7         32.3790   10.2840   10.4330 C.ar      1 85Z        -0.0270
      8 C8         31.1770   10.1360   11.2320 C.2       1 85Z         0.0550
      9 C9         30.2720   11.1370   11.3330 C.2       1 85Z        -0.0068
     10 C10        29.1170   10.9400   12.1780 C.ar      1 85Z         0.0248
     11 C11        28.1150   11.8950   12.3480 C.ar      1 85Z        -0.0596
     12 C12        27.0290   11.6310   13.1620 C.ar      1 85Z        -0.0354
     13 C13        26.9450   10.4210   13.8360 C.ar      1 85Z         0.0876
     14 C14        27.9300    9.4540   13.6900 C.ar      1 85Z         0.0080
     15 C15        28.9920    9.7260   12.8550 C.ar      1 85Z         0.1350
     16 O16        29.9390    8.7330   12.7400 O.3       1 85Z        -0.2139
     17 C17        31.0600    8.8980   11.9750 C.2       1 85Z         0.2600
     18 O18        31.8440    7.9830   11.9530 O.2       1 85Z        -0.3798
     19 O19        25.9170   10.1280   14.6730 O.3       1 85Z        -0.3312
     20 C20        30.3460   12.4140   10.5430 C.3       1 85Z         0.0215
     21 C21        30.8380   13.6500   11.2330 C.ar      1 85Z        -0.0255
     22 C22        31.0550   14.7820   10.4690 C.ar      1 85Z        -0.0539
     23 C23        31.4890   15.9520   11.0520 C.ar      1 85Z        -0.0569
     24 C24        31.7340   16.0150   12.4190 C.ar      1 85Z        -0.0245
     25 C25        31.5230   14.8680   13.1810 C.ar      1 85Z        -0.0569
     26 C26        31.0880   13.6960   12.5950 C.ar      1 85Z        -0.0539
     27 C27        32.1410   17.2860   12.9870 C.2       1 85Z        -0.0502
     28 C28        31.7370   17.6760   14.1850 C.2       1 85Z        -0.0315
     29 C29        32.1320   19.0360   14.5710 C.2       1 85Z         0.0496
     30 O30        32.6960   19.7440   13.7400 O.co2     1 85Z        -0.5646
     31 O31        31.7700   19.4630   15.7370 O.co2     1 85Z        -0.5646
     32 F32        35.8570   10.7490    8.3650 F         1 85Z        -0.1890
     33 H1         31.8538    8.2611    7.6934 H         1 85Z         0.0387
     34 H2         30.5718    9.2618    8.4560 H         1 85Z         0.0387
     35 H3         31.2751    7.8706    9.3485 H         1 85Z         0.0387
     36 H4         33.9089    9.2646    7.5911 H         1 85Z         0.0528
     37 H5         35.3593   11.8932   10.6224 H         1 85Z         0.0537
     38 H6         33.2336   11.6313   11.8732 H         1 85Z         0.0541
     39 H7         28.1880   12.8494   11.8392 H         1 85Z         0.0610
     40 H8         26.2432   12.3693   13.2737 H         1 85Z         0.0493
     41 H9         27.8656    8.5099   14.2188 H         1 85Z         0.0488
     42 H10        25.3089   10.8576   14.6934 H         1 85Z         0.2506
     43 H11        29.3317   12.6285   10.1753 H         1 85Z         0.0635
     44 H12        31.0144   12.2301    9.6890 H         1 85Z         0.0635
     45 H13        30.8816   14.7482    9.3995 H         1 85Z         0.0573
     46 H14        31.6411   16.8327   10.4386 H         1 85Z         0.0628
     47 H15        31.7030   14.8961   14.2496 H         1 85Z         0.0628
     48 H16        30.9417   12.8098   13.2019 H         1 85Z         0.0573
     49 H17        32.7972   17.9373   12.4115 H         1 85Z         0.0687
     50 H18        31.1516   17.0322   14.8398 H         1 85Z         0.0601
@<TRIPOS>BOND
     1    1    2 1  
     2    2    3 ar 
     3    2    7 ar 
     4    3    4 ar 
     5    4    5 ar 
     6    4   32 1  
     7    5    6 ar 
     8    6    7 ar 
     9    7    8 1  
    10    8    9 2  
    11    8   17 1  
    12    9   10 1  
    13    9   20 1  
    14   10   11 ar 
    15   10   15 ar 
    16   11   12 ar 
    17   12   13 ar 
    18   13   14 ar 
    19   13   19 1  
    20   14   15 ar 
    21   15   16 1  
    22   16   17 1  
    23   17   18 2  
    24   20   21 1  
    25   21   22 ar 
    26   21   26 ar 
    27   22   23 ar 
    28   23   24 ar 
    29   24   25 ar 
    30   24   27 1  
    31   25   26 ar 
    32   27   28 2  
    33   28   29 1  
    34   29   30 ar 
    35   29   31 ar 
    36    1   33 1  
    37    1   34 1  
    38    1   35 1  
    39    3   36 1  
    40    5   37 1  
    41    6   38 1  
    42   11   39 1  
    43   12   40 1  
    44   14   41 1  
    45   19   42 1  
    46   20   43 1  
    47   20   44 1  
    48   22   45 1  
    49   23   46 1  
    50   25   47 1  
    51   26   48 1  
    52   27   49 1  
    53   28   50 1  
@<TRIPOS>SUBSTRUCTURE
     1 85Z         1

