### 
### Created by X-TOOL on Mon Sep 10 21:13:24 2018
### 

@<TRIPOS>MOLECULE
5ak3_ligand
   22    23     1     0     0
SMALL
GAST_HUCK


@<TRIPOS>ATOM
      1 C1        -13.8210  -13.9230   26.9620 C.ar      1 XM0        -0.0755
      2 C2        -13.0560  -14.6210   27.9840 C.ar      1 XM0        -0.0755
      3 C3        -11.9430  -13.8950   28.6260 C.ar      1 XM0        -0.0667
      4 C4        -11.5820  -12.5070   28.2490 C.ar      1 XM0        -0.0353
      5 C5        -12.3610  -11.8390   27.2230 C.ar      1 XM0        -0.0353
      6 C6        -13.5090  -12.5350   26.5480 C.ar      1 XM0        -0.0667
      7 C7        -11.8030  -10.4470   27.0280 C.3       1 XM0         0.0233
      8 C8        -10.5860  -10.3240   27.9860 C.3       1 XM0        -0.0074
      9 C9        -10.4680  -11.6080   28.7930 C.3       1 XM0         0.0233
     10 N10        -9.3600  -10.2620   27.2300 N.4       1 XM0         0.2234
     11 H1        -14.6487  -14.4367   26.4865 H         1 XM0         0.0541
     12 H2        -13.2956  -15.6403   28.2645 H         1 XM0         0.0541
     13 H3        -11.3699  -14.3933   29.3995 H         1 XM0         0.0537
     14 H4        -14.0913  -12.0367   25.7814 H         1 XM0         0.0537
     15 H5        -12.5635   -9.6934   27.2805 H         1 XM0         0.0468
     16 H6        -11.4817  -10.3086   25.9851 H         1 XM0         0.0468
     17 H7        -10.6979   -9.4450   28.6378 H         1 XM0         0.0894
     18 H8         -9.4832  -12.0738   28.6405 H         1 XM0         0.0468
     19 H9        -10.6175  -11.4088   29.8644 H         1 XM0         0.0468
     20 H10        -9.3578   -9.4298   26.6612 H         1 XM0         0.2000
     21 H11        -9.2892  -11.0743   26.6373 H         1 XM0         0.2000
     22 H12        -8.5758  -10.2384   27.8629 H         1 XM0         0.2000
@<TRIPOS>BOND
     1    1    2 ar 
     2    1    6 ar 
     3    2    3 ar 
     4    3    4 ar 
     5    4    5 ar 
     6    4    9 1  
     7    5    6 ar 
     8    5    7 1  
     9    7    8 1  
    10    8    9 1  
    11    8   10 1  
    12    1   11 1  
    13    2   12 1  
    14    3   13 1  
    15    6   14 1  
    16    7   15 1  
    17    7   16 1  
    18    8   17 1  
    19    9   18 1  
    20    9   19 1  
    21   10   20 1  
    22   10   21 1  
    23   10   22 1  
@<TRIPOS>SUBSTRUCTURE
     1 XM0         1

