### 
### Created by X-TOOL on Mon Sep 10 21:13:23 2018
### 

@<TRIPOS>MOLECULE
5ak4_ligand
   22    23     1     0     0
SMALL
GAST_HUCK


@<TRIPOS>ATOM
      1 C1         17.5870   10.3060   13.1330 C.2       1 GVG         0.0792
      2 C2         19.0550   10.4390   13.2610 C.3       1 GVG         0.0023
      3 C3         16.7310    9.9700   12.0780 C.2       1 GVG         0.0014
      4 C6         17.0020    9.6400   10.7120 C.ar      1 GVG        -0.0417
      5 C7         15.9500    9.7800    9.7620 C.ar      1 GVG        -0.0656
      6 C8         18.2860    9.1970   10.2850 C.ar      1 GVG        -0.0656
      7 C9         16.1870    9.4770    8.3970 C.ar      1 GVG        -0.0693
      8 C10        18.5280    8.8900    8.9040 C.ar      1 GVG        -0.0693
      9 C11        17.4710    9.0330    7.9670 C.ar      1 GVG        -0.0690
     10 C12        15.4360   10.0290   12.6040 C.2       1 GVG        -0.0047
     11 N13        15.5700   10.3890   13.9150 N.2       1 GVG        -0.2282
     12 N3         16.8500   10.5460   14.2170 N.pl3     1 GVG        -0.2135
     13 H1         19.3085   10.7279   14.2917 H         1 GVG         0.0457
     14 H2         19.4154   11.2107   12.5648 H         1 GVG         0.0457
     15 H3         19.5326    9.4774   13.0218 H         1 GVG         0.0457
     16 H4         14.9706   10.1173   10.0816 H         1 GVG         0.0554
     17 H5         19.0865    9.0908   11.0081 H         1 GVG         0.0554
     18 H6         15.3853    9.5840    7.6752 H         1 GVG         0.0598
     19 H7         19.5061    8.5530    8.5803 H         1 GVG         0.0598
     20 H8         17.6412    8.8037    6.9213 H         1 GVG         0.0557
     21 H9         14.5062    9.8280   12.0739 H         1 GVG         0.0647
     22 H10        17.2172   10.8113   15.1421 H         1 GVG         0.2561
@<TRIPOS>BOND
     1    1    2 1  
     2    1    3 2  
     3    1   12 1  
     4    3    4 1  
     5    3   10 1  
     6    4    5 ar 
     7    4    6 ar 
     8    5    7 ar 
     9    6    8 ar 
    10    7    9 ar 
    11    8    9 ar 
    12   10   11 2  
    13   11   12 1  
    14    2   13 1  
    15    2   14 1  
    16    2   15 1  
    17    5   16 1  
    18    6   17 1  
    19    7   18 1  
    20    8   19 1  
    21    9   20 1  
    22   10   21 1  
    23   12   22 1  
@<TRIPOS>SUBSTRUCTURE
     1 GVG         1

