### 
### Created by X-TOOL on Mon Sep 10 21:13:22 2018
### 

@<TRIPOS>MOLECULE
5ak5_ligand
   29    30     1     0     0
SMALL
GAST_HUCK


@<TRIPOS>ATOM
      1 N10       -16.3420   -9.3540    8.9110 N.2       1 V2Z        -0.3012
      2 C11       -15.3560   -9.2400    8.0630 C.2       1 V2Z         0.1034
      3 C12       -13.9030   -9.3340    8.4700 C.2       1 V2Z         0.2569
      4 C14       -14.5930   -6.9690    5.5570 C.3       1 V2Z        -0.0630
      5 C15       -15.7300   -7.4870    6.4150 C.3       1 V2Z        -0.0423
      6 C16       -15.6320   -8.9880    6.6160 C.3       1 V2Z         0.0081
      7 C7        -16.0380   -9.5740   10.2390 C.2       1 V2Z         0.0589
      8 C6        -14.7800   -9.6770   10.6750 C.2       1 V2Z         0.0808
      9 C8        -17.1050   -9.7190   11.2320 C.ar      1 V2Z        -0.0012
     10 C9        -18.3990   -9.3400   10.9390 C.ar      1 V2Z        -0.0463
     11 C4        -16.8720  -10.2470   12.4910 C.ar      1 V2Z         0.0074
     12 N3        -17.7950  -10.4200   13.4490 N.ar      1 V2Z        -0.3066
     13 C2        -19.0290  -10.0310   13.1210 C.ar      1 V2Z         0.0021
     14 C1        -19.3790   -9.4860   11.9020 C.ar      1 V2Z        -0.0432
     15 O6        -13.0140   -9.2100    7.6330 O.2       1 V2Z        -0.3884
     16 N7        -13.7270   -9.5540    9.8110 N.am      1 V2Z        -0.2128
     17 H1        -14.6945   -5.8809    5.4318 H         1 V2Z         0.0232
     18 H2        -14.6261   -7.4561    4.5713 H         1 V2Z         0.0232
     19 H3        -13.6333   -7.1939    6.0452 H         1 V2Z         0.0232
     20 H4        -16.6854   -7.2535    5.9224 H         1 V2Z         0.0290
     21 H5        -15.6926   -6.9913    7.3962 H         1 V2Z         0.0290
     22 H6        -16.5795   -9.4665    6.3272 H         1 V2Z         0.0478
     23 H7        -14.8141   -9.3946    6.0030 H         1 V2Z         0.0478
     24 H8        -14.5903   -9.8612   11.7314 H         1 V2Z         0.1212
     25 H9        -18.6438   -8.9325    9.9648 H         1 V2Z         0.0666
     26 H10       -15.8561  -10.5463   12.7222 H         1 V2Z         0.0758
     27 H11       -19.8101  -10.1514   13.8630 H         1 V2Z         0.0749
     28 H12       -20.3999   -9.1794   11.7047 H         1 V2Z         0.0683
     29 H13       -12.7966   -9.6271   10.1702 H         1 V2Z         0.2578
@<TRIPOS>BOND
     1    2    1 2  
     2    1    7 1  
     3    2    3 1  
     4    6    2 1  
     5    3   15 2  
     6    3   16 am 
     7    5    4 1  
     8    5    6 1  
     9    7    8 2  
    10    7    9 1  
    11    8   16 1  
    12    9   10 ar 
    13    9   11 ar 
    14   10   14 ar 
    15   11   12 ar 
    16   12   13 ar 
    17   13   14 ar 
    18    4   17 1  
    19    4   18 1  
    20    4   19 1  
    21    5   20 1  
    22    5   21 1  
    23    6   22 1  
    24    6   23 1  
    25    8   24 1  
    26   10   25 1  
    27   11   26 1  
    28   13   27 1  
    29   14   28 1  
    30   16   29 1  
@<TRIPOS>SUBSTRUCTURE
     1 V2Z         1

