### 
### Created by X-TOOL on Mon Sep 10 21:13:24 2018
### 

@<TRIPOS>MOLECULE
5ak6_ligand
   19    19     1     0     0
SMALL
GAST_HUCK


@<TRIPOS>ATOM
      1 C1         13.2730  -12.3550  -21.8760 C.ar      1 YPN        -0.0341
      2 C2         13.5180  -12.9060  -20.6450 C.ar      1 YPN        -0.0212
      3 C3         14.0940  -12.1300  -19.6660 C.ar      1 YPN         0.0872
      4 N4         14.4310  -10.8470  -19.8590 N.ar      1 YPN        -0.2861
      5 C5         14.1800  -10.3300  -21.0680 C.ar      1 YPN         0.0178
      6 C6         13.6120  -11.0400  -22.0980 C.ar      1 YPN         0.0609
      7 CL7        13.3470  -10.3200  -23.6270 Cl        1 YPN        -0.0672
      8 S8         14.3680  -12.9330  -18.1270 S.3       1 YPN        -0.0792
      9 C9         15.0770  -11.6610  -17.0460 C.3       1 YPN         0.0328
     10 C10        16.5170  -11.4690  -17.4030 C.3       1 YPN         0.0555
     11 O11        17.1370  -10.7400  -16.3640 O.3       1 YPN        -0.3940
     12 H1         12.8190  -12.9464  -22.6629 H         1 YPN         0.0724
     13 H2         13.2611  -13.9401  -20.4455 H         1 YPN         0.0659
     14 H3         14.4396   -9.2924  -21.2443 H         1 YPN         0.0809
     15 H4         14.9963  -11.9813  -15.9968 H         1 YPN         0.0427
     16 H5         14.5333  -10.7147  -17.1834 H         1 YPN         0.0427
     17 H6         16.5950  -10.9104  -18.3474 H         1 YPN         0.0567
     18 H7         17.0065  -12.4477  -17.5143 H         1 YPN         0.0567
     19 H8         18.0540  -10.6086  -16.5744 H         1 YPN         0.2094
@<TRIPOS>BOND
     1    1    2 ar 
     2    1    6 ar 
     3    2    3 ar 
     4    3    4 ar 
     5    3    8 1  
     6    4    5 ar 
     7    5    6 ar 
     8    6    7 1  
     9    8    9 1  
    10    9   10 1  
    11   10   11 1  
    12    1   12 1  
    13    2   13 1  
    14    5   14 1  
    15    9   15 1  
    16    9   16 1  
    17   10   17 1  
    18   10   18 1  
    19   11   19 1  
@<TRIPOS>SUBSTRUCTURE
     1 YPN         1

