### 
### Created by X-TOOL on Mon Sep 10 21:13:24 2018
### 

@<TRIPOS>MOLECULE
5ake_ligand
   42    45     1     0     0
SMALL
GAST_HUCK


@<TRIPOS>ATOM
      1 C1        -17.8250   -5.5230   12.1640 C.ar      1 6N0        -0.0610
      2 C2        -18.9300   -5.4940   11.3320 C.ar      1 6N0        -0.0599
      3 C6        -17.4970   -6.6640   12.8760 C.ar      1 6N0        -0.0524
      4 C10       -18.1100  -11.6810   14.3050 C.ar      1 6N0        -0.0395
      5 C3        -19.7330   -6.6100   11.1870 C.ar      1 6N0        -0.0360
      6 C11       -19.1000  -11.2930   13.4220 C.ar      1 6N0        -0.0495
      7 C8        -17.1240   -9.4810   14.2480 C.ar      1 6N0        -0.0325
      8 C5        -18.2910   -7.7860   12.7530 C.ar      1 6N0         0.0053
      9 C7        -18.1120   -9.0770   13.3730 C.ar      1 6N0        -0.0049
     10 C9        -17.1370  -10.7880   14.7140 C.ar      1 6N0         0.0670
     11 C4        -19.3790   -7.7250   11.9140 C.ar      1 6N0         0.0991
     12 C12       -19.0590   -9.9940   12.9850 C.ar      1 6N0         0.0859
     13 C17       -15.8870  -10.5830   16.7780 C.2       1 6N0         0.2896
     14 C21       -14.0520  -13.2880   18.0120 C.3       1 6N0         0.0310
     15 C23       -14.5890  -11.6690   19.8680 C.3       1 6N0         0.0310
     16 C20       -13.9500  -12.1140   17.0480 C.3       1 6N0         0.0402
     17 C24       -14.5730  -10.5410   18.8490 C.3       1 6N0         0.0402
     18 C22       -13.7410  -12.8520   19.4280 C.3       1 6N0         0.2526
     19 N19       -14.8000  -11.0350   17.4990 N.am      1 6N0        -0.2539
     20 N16       -16.1520  -11.2470   15.6010 N.am      1 6N0        -0.2196
     21 O18       -16.5760   -9.6520   17.1630 O.2       1 6N0        -0.3903
     22 O14       -21.4900   -9.1910   12.5810 O.2       1 6N0        -0.1661
     23 O15       -20.0640   -9.8610   10.5590 O.2       1 6N0        -0.1661
     24 F25       -13.9460  -13.9130   20.2610 F         1 6N0        -0.2055
     25 F26       -12.4180  -12.5160   19.5330 F         1 6N0        -0.2055
     26 S13       -20.2300   -9.2720   11.8740 S.o2      1 6N0         0.0198
     27 H1        -17.2062   -4.6382   12.2599 H         1 6N0         0.0618
     28 H2        -19.1686   -4.5871   10.7883 H         1 6N0         0.0619
     29 H3        -16.6269   -6.6760   13.5224 H         1 6N0         0.0625
     30 H4        -18.0963  -12.6975   14.6813 H         1 6N0         0.0504
     31 H5        -20.5981   -6.6076   10.5337 H         1 6N0         0.0637
     32 H6        -19.8699  -11.9809   13.0917 H         1 6N0         0.0597
     33 H7        -16.3517   -8.7897   14.5655 H         1 6N0         0.0502
     34 H8        -13.3359  -14.0661   17.7092 H         1 6N0         0.0342
     35 H9        -15.0731  -13.6956   17.9766 H         1 6N0         0.0342
     36 H10       -15.6264  -12.0082   20.0049 H         1 6N0         0.0342
     37 H11       -14.1983  -11.2890   20.8235 H         1 6N0         0.0342
     38 H12       -14.2691  -12.4357   16.0457 H         1 6N0         0.0522
     39 H13       -12.9077  -11.7649   17.0066 H         1 6N0         0.0522
     40 H14       -13.5942  -10.0404   18.8860 H         1 6N0         0.0522
     41 H15       -15.3637   -9.8196   19.1027 H         1 6N0         0.0522
     42 H16       -15.6329  -12.0712   15.3746 H         1 6N0         0.2254
@<TRIPOS>BOND
     1    1    2 ar 
     2    3    1 ar 
     3    5    2 ar 
     4    8    3 ar 
     5    4    6 ar 
     6   10    4 ar 
     7   11    5 ar 
     8    6   12 ar 
     9    7    9 ar 
    10   10    7 ar 
    11    9    8 1  
    12    8   11 ar 
    13    9   12 ar 
    14   20   10 1  
    15   26   11 1  
    16   12   26 1  
    17   19   13 am 
    18   13   20 am 
    19   13   21 2  
    20   16   14 1  
    21   14   18 1  
    22   15   17 1  
    23   18   15 1  
    24   16   19 1  
    25   17   19 1  
    26   18   24 1  
    27   18   25 1  
    28   26   22 2  
    29   26   23 2  
    30    1   27 1  
    31    2   28 1  
    32    3   29 1  
    33    4   30 1  
    34    5   31 1  
    35    6   32 1  
    36    7   33 1  
    37   14   34 1  
    38   14   35 1  
    39   15   36 1  
    40   15   37 1  
    41   16   38 1  
    42   16   39 1  
    43   17   40 1  
    44   17   41 1  
    45   20   42 1  
@<TRIPOS>SUBSTRUCTURE
     1 6N0         1

