### 
### Created by X-TOOL on Mon Sep 10 21:13:24 2018
### 

@<TRIPOS>MOLECULE
5akg_ligand
   16    17     1     0     0
SMALL
GAST_HUCK


@<TRIPOS>ATOM
      1 C1         12.6300   12.8390   26.9810 C.2       1 6N6        -0.0681
      2 C2         13.6130   11.9680   26.5410 C.2       1 6N6        -0.0601
      3 C3         13.2300   11.0520   25.6130 C.2       1 6N6         0.0682
      4 S4         11.5870   11.3320   25.2960 S.3       1 6N6        -0.0323
      5 C5         11.4770   12.6030   26.3770 C.2       1 6N6        -0.0010
      6 C6         13.9880   10.0200   24.9380 C.2       1 6N6         0.1253
      7 N7         13.6300    9.3840   23.8560 N.2       1 6N6        -0.2723
      8 N8         14.5400    8.5110   23.4650 N.2       1 6N6        -0.2577
      9 C9         15.5910    8.4530   24.2050 C.2       1 6N6         0.1934
     10 S10        15.5270    9.5380   25.5200 S.3       1 6N6         0.0546
     11 N11        16.6270    7.6380   23.9780 N.pl3     1 6N6        -0.2962
     12 H1         12.7860   13.6168   27.7270 H         1 6N6         0.0440
     13 H2         14.6340   12.0145   26.9170 H         1 6N6         0.0492
     14 H3         10.5651   13.1689   26.5617 H         1 6N6         0.0788
     15 H4         16.6140    7.0018   23.1680 H         1 6N6         0.1870
     16 H5         17.4378    7.6466   24.6131 H         1 6N6         0.1870
@<TRIPOS>BOND
     1    1    2 1  
     2    1    5 2  
     3    2    3 2  
     4    3    4 1  
     5    3    6 1  
     6    4    5 1  
     7    6    7 2  
     8    6   10 1  
     9    7    8 1  
    10    8    9 2  
    11    9   10 1  
    12    9   11 1  
    13    1   12 1  
    14    2   13 1  
    15    5   14 1  
    16   11   15 1  
    17   11   16 1  
@<TRIPOS>SUBSTRUCTURE
     1 6N6         1

