### 
### Created by X-TOOL on Mon Sep 10 21:13:23 2018
### 

@<TRIPOS>MOLECULE
5akh_ligand
   31    33     1     0     0
SMALL
GAST_HUCK


@<TRIPOS>ATOM
      1 C1        -18.7800  -10.9400   13.6130 C.ar      1 6NM        -0.0307
      2 C2        -17.6060  -11.0140   12.8930 C.ar      1 6NM        -0.0221
      3 C6        -19.6700   -9.9110   13.3970 C.ar      1 6NM        -0.0308
      4 C17       -17.9330   -9.8160    8.5430 C.ar      1 6NM        -0.0355
      5 C21       -16.2070   -8.3250    7.8650 C.ar      1 6NM        -0.0355
      6 C4        -18.1990   -9.0170   11.7510 C.ar      1 6NM        -0.0194
      7 C18       -18.6730   -9.3380    7.4810 C.ar      1 6NM         0.0033
      8 C20       -17.0260   -7.9080    6.8360 C.ar      1 6NM         0.0033
      9 C13       -14.4660   -9.9110    9.6570 C.2       1 6NM         0.0130
     10 C3        -17.3120  -10.0560   11.9410 C.ar      1 6NM         0.0447
     11 C16       -16.6710   -9.2930    8.7400 C.ar      1 6NM        -0.0146
     12 C12       -15.8250   -9.7530    9.8230 C.2       1 6NM         0.0199
     13 C5        -19.3800   -8.9450   12.4590 C.ar      1 6NM         0.0498
     14 C11       -16.0730  -10.0900   11.1840 C.2       1 6NM         0.1126
     15 C7        -20.2870   -7.7990   12.1890 C.3       1 6NM         0.3773
     16 N19       -18.2580   -8.3950    6.6210 N.ar      1 6NM        -0.3063
     17 N15       -14.9290  -10.4340   11.7990 N.pl3     1 6NM        -0.2079
     18 N14       -13.9870  -10.3410   10.8570 N.2       1 6NM        -0.2114
     19 F8        -21.5930   -8.0110   12.4920 F         1 6NM        -0.2199
     20 F9        -19.9370   -6.6800   12.8720 F         1 6NM        -0.2199
     21 F10       -20.2530   -7.4640   10.8750 F         1 6NM        -0.2199
     22 H1        -19.0042  -11.6978   14.3550 H         1 6NM         0.0700
     23 H2        -16.9114  -11.8263   13.0743 H         1 6NM         0.0871
     24 H3        -20.5937   -9.8618   13.9622 H         1 6NM         0.0858
     25 H4        -18.3307  -10.5789    9.2024 H         1 6NM         0.0664
     26 H5        -15.2164   -7.9018    7.9866 H         1 6NM         0.0664
     27 H6        -17.9630   -8.2418   11.0309 H         1 6NM         0.0870
     28 H7        -19.6623   -9.7548    7.3303 H         1 6NM         0.0801
     29 H8        -16.6534   -7.1440    6.1633 H         1 6NM         0.0801
     30 H9        -13.8916   -9.7289    8.7499 H         1 6NM         0.0699
     31 H10       -14.8054  -10.7097   12.7837 H         1 6NM         0.2571
@<TRIPOS>BOND
     1    2    1 ar 
     2    1    3 ar 
     3   10    2 ar 
     4   13    3 ar 
     5    4    7 ar 
     6   11    4 ar 
     7    5    8 ar 
     8   11    5 ar 
     9   10    6 ar 
    10    6   13 ar 
    11    7   16 ar 
    12    8   16 ar 
    13   12    9 1  
    14    9   18 2  
    15   14   10 1  
    16   12   11 1  
    17   12   14 2  
    18   13   15 1  
    19   14   17 1  
    20   15   19 1  
    21   15   20 1  
    22   15   21 1  
    23   17   18 1  
    24    1   22 1  
    25    2   23 1  
    26    3   24 1  
    27    4   25 1  
    28    5   26 1  
    29    6   27 1  
    30    7   28 1  
    31    8   29 1  
    32    9   30 1  
    33   17   31 1  
@<TRIPOS>SUBSTRUCTURE
     1 6NM         1

