### 
### Created by X-TOOL on Mon Sep 10 21:13:24 2018
### 

@<TRIPOS>MOLECULE
5aki_ligand
   39    41     1     0     0
SMALL
GAST_HUCK


@<TRIPOS>ATOM
      1 C1         14.7200  -12.7930  -18.4480 C.ar      1 6NF        -0.0257
      2 C2         13.9950  -13.3120  -19.4990 C.ar      1 6NF         0.0091
      3 N3         13.4000  -12.5560  -20.4330 N.ar      1 6NF        -0.3003
      4 C4         13.5320  -11.2270  -20.2750 C.ar      1 6NF         0.0091
      5 C5         14.2130  -10.6050  -19.2470 C.ar      1 6NF        -0.0257
      6 C6         14.8150  -11.4190  -18.3090 C.ar      1 6NF         0.0257
      7 C7         15.6530  -10.9310  -17.2510 C.2       1 6NF         0.0900
      8 C8         16.0370  -11.7180  -16.1600 C.2       1 6NF        -0.0150
      9 C9         17.0550  -11.0630  -15.5330 C.2       1 6NF         0.0913
     10 N10        17.2070   -9.8840  -16.1930 N.2       1 6NF        -0.2157
     11 N11        16.4040   -9.8190  -17.2750 N.pl3     1 6NF        -0.2275
     12 N12        17.7510  -11.4810  -14.4660 N.pl3     1 6NF        -0.3218
     13 C13        18.9790  -10.8240  -14.0880 C.3       1 6NF         0.0246
     14 C14        18.6520   -9.7970  -13.0410 C.3       1 6NF        -0.0221
     15 C15        17.8960  -10.4490  -11.8910 C.3       1 6NF        -0.0485
     16 C16        17.6980   -9.4890  -10.7260 C.3       1 6NF        -0.0527
     17 C17        19.0100   -8.8340  -10.3270 C.3       1 6NF        -0.0530
     18 C18        19.6730   -8.1410  -11.5100 C.3       1 6NF        -0.0527
     19 C19        19.9640   -9.1590  -12.5980 C.3       1 6NF        -0.0485
     20 H1         15.2092  -13.4519  -17.7398 H         1 6NF         0.0709
     21 H2         13.9007  -14.3892  -19.5746 H         1 6NF         0.0815
     22 H3         13.0644  -10.5902  -21.0172 H         1 6NF         0.0815
     23 H4         14.2721   -9.5247  -19.1798 H         1 6NF         0.0709
     24 H5         15.6044  -12.6735  -15.8669 H         1 6NF         0.0368
     25 H6         16.3734   -9.0671  -17.9782 H         1 6NF         0.2466
     26 H7         17.4063  -12.2777  -13.9115 H         1 6NF         0.1715
     27 H8         19.4256  -10.3335  -14.9655 H         1 6NF         0.0507
     28 H9         19.6865  -11.5609  -13.6801 H         1 6NF         0.0507
     29 H10        18.0100   -9.0193  -13.4804 H         1 6NF         0.0319
     30 H11        18.4662  -11.3217  -11.5398 H         1 6NF         0.0269
     31 H12        16.9104  -10.7765  -12.2535 H         1 6NF         0.0269
     32 H13        17.2984  -10.0459   -9.8656 H         1 6NF         0.0265
     33 H14        16.9821   -8.7080  -11.0218 H         1 6NF         0.0265
     34 H15        19.6906   -9.6057   -9.9381 H         1 6NF         0.0265
     35 H16        18.8130   -8.0894   -9.5417 H         1 6NF         0.0265
     36 H17        20.6146   -7.6766  -11.1817 H         1 6NF         0.0265
     37 H18        18.9998   -7.3657  -11.9046 H         1 6NF         0.0265
     38 H19        20.4389   -8.6583  -13.4546 H         1 6NF         0.0269
     39 H20        20.6384   -9.9350  -12.2068 H         1 6NF         0.0269
@<TRIPOS>BOND
     1    1    2 ar 
     2    1    6 ar 
     3    2    3 ar 
     4    3    4 ar 
     5    4    5 ar 
     6    5    6 ar 
     7    6    7 1  
     8    7    8 2  
     9    7   11 1  
    10    8    9 1  
    11    9   10 2  
    12    9   12 1  
    13   10   11 1  
    14   12   13 1  
    15   13   14 1  
    16   14   15 1  
    17   14   19 1  
    18   15   16 1  
    19   16   17 1  
    20   17   18 1  
    21   18   19 1  
    22    1   20 1  
    23    2   21 1  
    24    4   22 1  
    25    5   23 1  
    26    8   24 1  
    27   11   25 1  
    28   12   26 1  
    29   13   27 1  
    30   13   28 1  
    31   14   29 1  
    32   15   30 1  
    33   15   31 1  
    34   16   32 1  
    35   16   33 1  
    36   17   34 1  
    37   17   35 1  
    38   18   36 1  
    39   18   37 1  
    40   19   38 1  
    41   19   39 1  
@<TRIPOS>SUBSTRUCTURE
     1 6NF         1

