### 
### Created by X-TOOL on Mon Sep 10 21:13:23 2018
### 

@<TRIPOS>MOLECULE
5akj_ligand
   23    24     1     0     0
SMALL
GAST_HUCK


@<TRIPOS>ATOM
      1 C1         19.6820   10.3050   12.3430 C.ar      1 6N4        -0.0766
      2 C2         19.5540    8.8900   12.6360 C.ar      1 6N4        -0.0786
      3 C3         18.5640    8.3970   13.5790 C.ar      1 6N4        -0.0655
      4 C4         17.7530    9.4050   14.2260 C.ar      1 6N4         0.0215
      5 C5         17.8670   10.7910   13.9520 C.ar      1 6N4         0.0791
      6 C6         18.8090   11.2930   12.9960 C.ar      1 6N4        -0.0422
      7 N7         16.8960   11.4190   14.7910 N.pl3     1 6N4        -0.2372
      8 C8         16.2820   10.4410   15.5120 C.2       1 6N4         0.1852
      9 N9         16.7820    9.2380   15.1640 N.2       1 6N4        -0.3081
     10 S10        15.0480   10.6480   16.6600 S.3       1 6N4        -0.0340
     11 C11        15.7030   11.8740   17.9700 C.3       1 6N4         0.0396
     12 C12        14.6240   13.0010   18.4150 C.3       1 6N4         0.0561
     13 O13        13.7030   12.2540   19.3070 O.3       1 6N4        -0.3940
     14 H1         20.4307   10.6388   11.6337 H         1 6N4         0.0528
     15 H2         20.2114    8.1847   12.1406 H         1 6N4         0.0516
     16 H3         18.4410    7.3398   13.7846 H         1 6N4         0.0535
     17 H4         18.8752   12.3500   12.7650 H         1 6N4         0.0541
     18 H5         16.6967   12.4283   14.8412 H         1 6N4         0.2330
     19 H6         16.5854   12.3840   17.5562 H         1 6N4         0.0434
     20 H7         15.9951   11.3026   18.8634 H         1 6N4         0.0434
     21 H8         14.0888   13.4015   17.5415 H         1 6N4         0.0567
     22 H9         15.1138   13.8250   18.9545 H         1 6N4         0.0567
     23 H10        14.1909   11.9057   20.0439 H         1 6N4         0.2094
@<TRIPOS>BOND
     1    1    2 ar 
     2    1    6 ar 
     3    2    3 ar 
     4    3    4 ar 
     5    4    5 ar 
     6    4    9 1  
     7    5    6 ar 
     8    5    7 1  
     9    7    8 1  
    10    8    9 2  
    11    8   10 1  
    12   10   11 1  
    13   11   12 1  
    14   12   13 1  
    15    1   14 1  
    16    2   15 1  
    17    3   16 1  
    18    6   17 1  
    19    7   18 1  
    20   11   19 1  
    21   11   20 1  
    22   12   21 1  
    23   12   22 1  
    24   13   23 1  
@<TRIPOS>SUBSTRUCTURE
     1 6N4         1

