### 
### Created by X-TOOL on Mon Sep 10 21:13:25 2018
### 

@<TRIPOS>MOLECULE
5akk_ligand
   17    18     1     0     0
SMALL
GAST_HUCK


@<TRIPOS>ATOM
      1 O8          7.7370  -10.0640  -25.1940 O.2       1 1P8        -0.3888
      2 C7          8.6040  -10.6090  -25.8570 C.2       1 1P8         0.2093
      3 C6          8.4900  -10.8760  -27.3380 C.3       1 1P8         0.0734
      4 N9          9.8180  -11.0840  -25.4010 N.am      1 1P8        -0.2347
      5 C10        10.4300  -11.8020  -26.4180 C.ar      1 1P8         0.0750
      6 C11        11.5940  -12.5320  -26.3530 C.ar      1 1P8        -0.0370
      7 C2         11.9850  -13.1660  -27.5210 C.ar      1 1P8        -0.0071
      8 BR1        13.5700  -14.1960  -27.5110 Br        1 1P8        -0.0597
      9 C5          9.6900  -11.7030  -27.5650 C.ar      1 1P8         0.0015
     10 C4         10.0780  -12.3360  -28.7250 C.ar      1 1P8        -0.0679
     11 C3         11.2460  -13.0760  -28.6920 C.ar      1 1P8        -0.0736
     12 H1          8.5251   -9.9438  -27.9209 H         1 1P8         0.0652
     13 H2          7.5684  -11.4255  -27.5802 H         1 1P8         0.0652
     14 H3         10.1945  -10.9347  -24.4867 H         1 1P8         0.2254
     15 H4         12.1727  -12.6070  -25.4394 H         1 1P8         0.0511
     16 H5          9.4889  -12.2571  -29.6316 H         1 1P8         0.0527
     17 H6         11.5857  -13.5880  -29.5850 H         1 1P8         0.0499
@<TRIPOS>BOND
     1    1    2 2  
     2    2    3 1  
     3    2    4 am 
     4    3    9 1  
     5    4    5 1  
     6    5    6 ar 
     7    5    9 ar 
     8    6    7 ar 
     9    7    8 1  
    10    7   11 ar 
    11    9   10 ar 
    12   10   11 ar 
    13    3   12 1  
    14    3   13 1  
    15    4   14 1  
    16    6   15 1  
    17   10   16 1  
    18   11   17 1  
@<TRIPOS>SUBSTRUCTURE
     1 1P8         1

