### 
### Created by X-TOOL on Mon Sep 10 21:13:25 2018
### 

@<TRIPOS>MOLECULE
5akl_ligand
   43    45     1     0     0
SMALL
GAST_HUCK


@<TRIPOS>ATOM
      1 C1         15.5840   -9.7550   -8.8510 C.ar      1 6N8        -0.0685
      2 C21        21.0310   -8.1120  -13.0100 C.ar      1 6N8        -0.0685
      3 C2         16.9530   -9.9140   -8.8680 C.ar      1 6N8        -0.0682
      4 C6         14.8580   -9.8910  -10.0200 C.ar      1 6N8        -0.0682
      5 C20        19.7680   -7.5720  -13.1030 C.ar      1 6N8        -0.0682
      6 C22        21.1920   -9.4600  -12.7640 C.ar      1 6N8        -0.0682
      7 C3         17.5880  -10.2060  -10.0560 C.ar      1 6N8        -0.0581
      8 C5         15.5130  -10.1750  -11.2040 C.ar      1 6N8        -0.0581
      9 C19        18.6680   -8.3880  -12.9490 C.ar      1 6N8        -0.0581
     10 C23        20.0980  -10.2770  -12.6030 C.ar      1 6N8        -0.0581
     11 C4         16.8890  -10.3430  -11.2400 C.ar      1 6N8        -0.0288
     12 C18        18.8280   -9.7430  -12.7030 C.ar      1 6N8        -0.0288
     13 C11        16.3070  -10.7940  -17.0670 C.2       1 6N8         0.3406
     14 C15        14.1170  -12.9740  -19.0950 C.2       1 6N8        -0.0904
     15 C16        14.1950  -11.7230  -19.9410 C.2       1 6N8        -0.0904
     16 C14        14.9590  -12.7290  -17.8670 C.2       1 6N8         0.0417
     17 C17        15.0730  -10.7430  -19.2090 C.2       1 6N8         0.0417
     18 C8         16.7880  -10.7460  -13.7460 C.3       1 6N8        -0.0107
     19 C9         17.5440  -11.2120  -14.9710 C.3       1 6N8         0.0372
     20 C7         17.6540  -10.6540  -12.5050 C.3       1 6N8         0.0273
     21 N13        15.4420  -11.3840  -17.9720 N.am      1 6N8        -0.1816
     22 N10        16.5870  -11.5780  -15.9790 N.am      1 6N8        -0.2554
     23 O12        16.8040   -9.6910  -17.2400 O.2       1 6N8        -0.3630
     24 H1         15.0766   -9.5234   -7.9215 H         1 6N8         0.0561
     25 H2         21.9010   -7.4766  -13.1303 H         1 6N8         0.0561
     26 H3         17.5261   -9.8102   -7.9538 H         1 6N8         0.0600
     27 H4         13.7802   -9.7755  -10.0082 H         1 6N8         0.0600
     28 H5         19.6397   -6.5130  -13.2959 H         1 6N8         0.0600
     29 H6         22.1897   -9.8786  -12.6971 H         1 6N8         0.0600
     30 H7         18.6647  -10.3315  -10.0616 H         1 6N8         0.0561
     31 H8         14.9410  -10.2680  -12.1201 H         1 6N8         0.0561
     32 H9         17.6714   -7.9677  -13.0207 H         1 6N8         0.0561
     33 H10        20.2312  -11.3333  -12.3989 H         1 6N8         0.0561
     34 H11        13.5591  -13.8798  -19.3278 H         1 6N8         0.0231
     35 H12        13.7070  -11.5610  -20.9010 H         1 6N8         0.0231
     36 H13        15.1596  -13.4339  -17.0615 H         1 6N8         0.0800
     37 H14        15.3692   -9.7507  -19.5460 H         1 6N8         0.0800
     38 H15        15.9707  -11.4555  -13.5494 H         1 6N8         0.0331
     39 H16        16.3678   -9.7507  -13.9529 H         1 6N8         0.0331
     40 H17        18.1664  -12.0822  -14.7154 H         1 6N8         0.0523
     41 H18        18.1850  -10.3996  -15.3441 H         1 6N8         0.0523
     42 H19        18.0721  -11.6608  -12.3586 H         1 6N8         0.0619
     43 H20        16.1020  -12.4471  -15.8814 H         1 6N8         0.1875
@<TRIPOS>BOND
     1    3    1 ar 
     2    4    1 ar 
     3    5    2 ar 
     4    6    2 ar 
     5    7    3 ar 
     6    8    4 ar 
     7    9    5 ar 
     8   10    6 ar 
     9   11    7 ar 
    10   11    8 ar 
    11   12    9 ar 
    12   12   10 ar 
    13   20   11 1  
    14   20   12 1  
    15   13   21 am 
    16   22   13 am 
    17   13   23 2  
    18   15   14 1  
    19   16   14 2  
    20   17   15 2  
    21   21   16 1  
    22   21   17 1  
    23   19   18 1  
    24   18   20 1  
    25   19   22 1  
    26    1   24 1  
    27    2   25 1  
    28    3   26 1  
    29    4   27 1  
    30    5   28 1  
    31    6   29 1  
    32    7   30 1  
    33    8   31 1  
    34    9   32 1  
    35   10   33 1  
    36   14   34 1  
    37   15   35 1  
    38   16   36 1  
    39   17   37 1  
    40   18   38 1  
    41   18   39 1  
    42   19   40 1  
    43   19   41 1  
    44   20   42 1  
    45   22   43 1  
@<TRIPOS>SUBSTRUCTURE
     1 6N8         1

