### 
### Created by X-TOOL on Mon Sep 10 21:13:22 2018
### 

@<TRIPOS>MOLECULE
5aku_ligand
   41    43     1     0     0
SMALL
GAST_HUCK


@<TRIPOS>ATOM
      1 C         -53.7430  -41.2930   23.3490 C.3       1 29F        -0.0877
      2 N         -53.6620  -41.8850   16.2650 N.am      1 29F        -0.2496
      3 O         -53.4100  -41.1010   14.1910 O.2       1 29F        -0.3919
      4 C1        -53.3180  -42.6560   22.7970 C.3       1 29F        -0.0520
      5 N1        -55.4750  -43.5310   16.6320 N.pl3     1 29F        -0.2802
      6 C2        -54.1250  -43.7030   23.5930 C.3       1 29F        -0.0877
      7 C3        -51.8370  -42.8900   23.0860 C.3       1 29F        -0.0877
      8 C4        -53.5670  -42.7040   21.3690 C.ar      1 29F        -0.0568
      9 C5        -54.5780  -43.4840   20.8060 C.ar      1 29F        -0.0448
     10 C6        -54.8160  -43.5300   19.4380 C.ar      1 29F        -0.0242
     11 C7        -54.0390  -42.7990   18.5480 C.ar      1 29F         0.0367
     12 C8        -53.0320  -41.9940   19.0920 C.ar      1 29F        -0.0242
     13 C9        -52.7950  -41.9570   20.4680 C.ar      1 29F        -0.0448
     14 C10       -54.3210  -42.8200   17.1860 C.3       1 29F         0.1713
     15 C11       -53.8860  -41.9810   14.9130 C.2       1 29F         0.2009
     16 C12       -54.7350  -42.9700   14.4070 C.ar      1 29F         0.0673
     17 C13       -54.7980  -43.2110   13.0470 C.ar      1 29F        -0.0534
     18 C14       -55.6840  -44.1760   12.5490 C.ar      1 29F        -0.0693
     19 C15       -56.4990  -44.8830   13.4220 C.ar      1 29F        -0.0691
     20 C16       -56.4370  -44.6570   14.7870 C.ar      1 29F        -0.0379
     21 C17       -55.5430  -43.7150   15.2710 C.ar      1 29F         0.0636
     22 H1        -53.5527  -41.2605   24.4319 H         1 29F         0.0126
     23 H2        -54.8158  -41.1394   23.1605 H         1 29F         0.0126
     24 H3        -53.1659  -40.4997   22.8513 H         1 29F         0.0126
     25 H4        -53.0505  -41.1788   16.6218 H         1 29F         0.1899
     26 H5        -56.2199  -43.8857   17.2486 H         1 29F         0.1840
     27 H6        -53.8635  -44.7120   23.2416 H         1 29F         0.0126
     28 H7        -55.2006  -43.5294   23.4418 H         1 29F         0.0126
     29 H8        -53.8861  -43.6141   24.6630 H         1 29F         0.0126
     30 H9        -51.2346  -42.1561   22.5305 H         1 29F         0.0126
     31 H10       -51.5581  -43.9065   22.7714 H         1 29F         0.0126
     32 H11       -51.6513  -42.7759   24.1642 H         1 29F         0.0126
     33 H12       -55.2030  -44.0782   21.4628 H         1 29F         0.0833
     34 H13       -55.6222  -44.1472   19.0583 H         1 29F         0.0654
     35 H14       -52.4233  -41.3866   18.4320 H         1 29F         0.0654
     36 H15       -51.9935  -41.3346   20.8492 H         1 29F         0.0833
     37 H16       -53.6179  -43.6434   16.9922 H         1 29F         0.1068
     38 H17       -54.1632  -42.6545   12.3670 H         1 29F         0.0634
     39 H18       -55.7327  -44.3699   11.4836 H         1 29F         0.0519
     40 H19       -57.1914  -45.6199   13.0313 H         1 29F         0.0619
     41 H20       -57.0775  -45.2081   15.4660 H         1 29F         0.0529
@<TRIPOS>BOND
     1    4    1 1  
     2   14    2 1  
     3    2   15 am 
     4   15    3 2  
     5    4    6 1  
     6    4    7 1  
     7    8    4 1  
     8   14    5 1  
     9    5   21 1  
    10    9    8 ar 
    11    8   13 ar 
    12   10    9 ar 
    13   11   10 ar 
    14   11   12 ar 
    15   11   14 1  
    16   12   13 ar 
    17   15   16 1  
    18   16   17 ar 
    19   16   21 ar 
    20   17   18 ar 
    21   18   19 ar 
    22   19   20 ar 
    23   20   21 ar 
    24    1   22 1  
    25    1   23 1  
    26    1   24 1  
    27    2   25 1  
    28    5   26 1  
    29    6   27 1  
    30    6   28 1  
    31    6   29 1  
    32    7   30 1  
    33    7   31 1  
    34    7   32 1  
    35    9   33 1  
    36   10   34 1  
    37   12   35 1  
    38   13   36 1  
    39   14   37 1  
    40   17   38 1  
    41   18   39 1  
    42   19   40 1  
    43   20   41 1  
@<TRIPOS>SUBSTRUCTURE
     1 29F         1

