### 
### Created by X-TOOL on Mon Sep 10 21:13:23 2018
### 

@<TRIPOS>MOLECULE
5akw_ligand
   29    31     1     0     0
SMALL
GAST_HUCK


@<TRIPOS>ATOM
      1 CL         -6.9500  -38.4120    6.3050 Cl        1 NKI        -0.0771
      2 OAA        -8.3540  -38.3480   15.1520 O.2       1 NKI        -0.3919
      3 CAC        -4.8600  -34.8490   15.8070 C.ar      1 NKI        -0.0691
      4 CAD        -5.5560  -35.6740   16.6990 C.ar      1 NKI        -0.0693
      5 CAE        -6.2300  -37.0290    8.5240 C.ar      1 NKI        -0.0545
      6 CAF        -7.3270  -39.1440    8.9300 C.ar      1 NKI        -0.0545
      7 CAG        -5.0500  -35.0530   14.4410 C.ar      1 NKI        -0.0379
      8 CAH        -6.4230  -36.6660   16.2530 C.ar      1 NKI        -0.0534
      9 CAI        -6.1280  -36.8050    9.8930 C.ar      1 NKI        -0.0555
     10 CAJ        -7.2290  -38.9210   10.2880 C.ar      1 NKI        -0.0555
     11 NAK        -7.5770  -38.0950   13.0670 N.am      1 NKI        -0.2545
     12 NAL        -6.0360  -36.2690   12.6490 N.pl3     1 NKI        -0.2851
     13 CAM        -7.4690  -37.8810   14.4330 C.2       1 NKI         0.2002
     14 CAN        -6.8230  -38.1900    8.0500 C.ar      1 NKI         0.0330
     15 CAO        -6.6570  -37.7390   10.7970 C.ar      1 NKI         0.0049
     16 CAP        -5.8890  -36.0720   13.9990 C.ar      1 NKI         0.0629
     17 CAQ        -6.5630  -36.9130   14.9100 C.ar      1 NKI         0.0672
     18 CAR        -6.4970  -37.5830   12.1890 C.3       1 NKI         0.1560
     19 H1         -4.1930  -34.0744   16.1680 H         1 NKI         0.0619
     20 H2         -5.4155  -35.5360   17.7650 H         1 NKI         0.0519
     21 H3         -5.8452  -36.2945    7.8258 H         1 NKI         0.0606
     22 H4         -7.7898  -40.0491    8.5535 H         1 NKI         0.0606
     23 H5         -4.5442  -34.4178   13.7228 H         1 NKI         0.0529
     24 H6         -6.9913  -37.2473   16.9700 H         1 NKI         0.0634
     25 H7         -5.6403  -35.9097   10.2613 H         1 NKI         0.0559
     26 H8         -7.5999  -39.6709   10.9773 H         1 NKI         0.0559
     27 H9         -8.3623  -38.5816   12.6842 H         1 NKI         0.1889
     28 H10        -5.8285  -35.5156   11.9780 H         1 NKI         0.1830
     29 H11        -5.6496  -38.2496   12.4068 H         1 NKI         0.0991
@<TRIPOS>BOND
     1   14    1 1  
     2   13    2 2  
     3    3    4 ar 
     4    7    3 ar 
     5    8    4 ar 
     6    9    5 ar 
     7    5   14 ar 
     8   10    6 ar 
     9    6   14 ar 
    10   16    7 ar 
    11   17    8 ar 
    12   15    9 ar 
    13   15   10 ar 
    14   11   13 am 
    15   18   11 1  
    16   12   16 1  
    17   18   12 1  
    18   13   17 1  
    19   15   18 1  
    20   16   17 ar 
    21    3   19 1  
    22    4   20 1  
    23    5   21 1  
    24    6   22 1  
    25    7   23 1  
    26    8   24 1  
    27    9   25 1  
    28   10   26 1  
    29   11   27 1  
    30   12   28 1  
    31   18   29 1  
@<TRIPOS>SUBSTRUCTURE
     1 NKI         1

