### 
### Created by X-TOOL on Mon Sep 10 21:13:24 2018
### 

@<TRIPOS>MOLECULE
5akz_ligand
   27    27     1     0     0
SMALL
GAST_HUCK


@<TRIPOS>ATOM
      1 C1        -17.7720   10.6050  -14.1800 C.3       1 6NX         0.0199
      2 N2        -16.6420   11.1560  -14.8950 N.am      1 6NX        -0.2762
      3 C3        -16.3600   10.8380  -16.2030 C.2       1 6NX         0.2573
      4 O4        -16.7810    9.8380  -16.7630 O.2       1 6NX        -0.4008
      5 N5        -15.5330   11.7630  -16.8080 N.am      1 6NX        -0.2701
      6 C6        -15.0170   11.5870  -18.1490 C.3       1 6NX         0.0424
      7 C7        -14.5780   12.9340  -18.7090 C.3       1 6NX        -0.0301
      8 C8        -13.9710   12.7590  -20.0860 C.3       1 6NX        -0.0510
      9 C9        -12.7940   11.8000  -20.0510 C.3       1 6NX        -0.0529
     10 C10       -13.1890   10.4430  -19.4840 C.3       1 6NX        -0.0510
     11 C11       -13.8700   10.5780  -18.1340 C.3       1 6NX        -0.0301
     12 H1        -17.7886   11.0057  -13.1557 H         1 6NX         0.0481
     13 H2        -17.6839    9.5091  -14.1436 H         1 6NX         0.0481
     14 H3        -18.7030   10.8811  -14.6968 H         1 6NX         0.0481
     15 H4        -16.0397   11.7959  -14.4177 H         1 6NX         0.1841
     16 H5        -15.2806   12.5867  -16.3002 H         1 6NX         0.1848
     17 H6        -15.8193   11.1900  -18.7883 H         1 6NX         0.0553
     18 H7        -13.8301   13.3800  -18.0369 H         1 6NX         0.0287
     19 H8        -15.4510   13.5996  -18.7793 H         1 6NX         0.0287
     20 H9        -13.6258   13.7370  -20.4526 H         1 6NX         0.0266
     21 H10       -14.7372   12.3614  -20.7677 H         1 6NX         0.0266
     22 H11       -12.0011   12.2317  -19.4225 H         1 6NX         0.0265
     23 H12       -12.4161   11.6621  -21.0748 H         1 6NX         0.0265
     24 H13       -12.2846    9.8278  -19.3676 H         1 6NX         0.0266
     25 H14       -13.8797    9.9508  -20.1845 H         1 6NX         0.0266
     26 H15       -14.2696    9.5956  -17.8420 H         1 6NX         0.0287
     27 H16       -13.1238   10.9048  -17.3949 H         1 6NX         0.0287
@<TRIPOS>BOND
     1    1    2 1  
     2    2    3 am 
     3    3    4 2  
     4    3    5 am 
     5    5    6 1  
     6    6    7 1  
     7    6   11 1  
     8    7    8 1  
     9    8    9 1  
    10    9   10 1  
    11   10   11 1  
    12    1   12 1  
    13    1   13 1  
    14    1   14 1  
    15    2   15 1  
    16    5   16 1  
    17    6   17 1  
    18    7   18 1  
    19    7   19 1  
    20    8   20 1  
    21    8   21 1  
    22    9   22 1  
    23    9   23 1  
    24   10   24 1  
    25   10   25 1  
    26   11   26 1  
    27   11   27 1  
@<TRIPOS>SUBSTRUCTURE
     1 6NX         1

