### 
### Created by X-TOOL on Mon Sep 10 21:13:21 2018
### 

@<TRIPOS>MOLECULE
5al1_ligand
   40    42     1     0     0
SMALL
GAST_HUCK


@<TRIPOS>ATOM
      1 CAA        -7.9800  -38.0500    5.9440 C.3       1 GN5        -0.0877
      2 CAB        -6.5790  -38.3250    6.5270 C.3       1 GN5        -0.0520
      3 CAC        -5.5820  -37.4290    5.7630 C.3       1 GN5        -0.0877
      4 CAD        -6.1300  -39.7720    6.2530 C.3       1 GN5        -0.0877
      5 CAE        -6.5650  -38.1310    7.9710 C.ar      1 GN5        -0.0568
      6 CAJ        -7.3100  -38.9670    8.8210 C.ar      1 GN5        -0.0448
      7 CAI        -7.3010  -38.8010   10.2150 C.ar      1 GN5        -0.0241
      8 CAF        -5.8090  -37.1350    8.5960 C.ar      1 GN5        -0.0448
      9 CAG        -5.7900  -36.9700    9.9930 C.ar      1 GN5        -0.0241
     10 CAH        -6.5540  -37.7740   10.8350 C.ar      1 GN5         0.0372
     11 CAK        -6.4590  -37.6080   12.2730 C.3       1 GN5         0.1740
     12 NAL        -7.5550  -38.1330   13.1300 N.am      1 GN5        -0.2480
     13 CAM        -7.4930  -37.9240   14.5200 C.2       1 GN5         0.2090
     14 OAN        -8.3720  -38.4120   15.2280 O.2       1 GN5        -0.3887
     15 CAO        -6.5990  -36.9840   15.0330 C.ar      1 GN5         0.0953
     16 CAU        -6.3990  -36.8300   16.3990 C.ar      1 GN5        -0.0342
     17 CAT        -5.5060  -35.8430   16.8620 C.ar      1 GN5        -0.0424
     18 CAS        -4.8430  -35.0020   15.9620 C.ar      1 GN5         0.0004
     19 NAR        -5.0720  -35.1700   14.5720 N.ar      1 GN5        -0.2784
     20 CAP        -5.9100  -36.1310   14.1430 C.ar      1 GN5         0.1368
     21 NAQ        -6.0900  -36.2650   12.7750 N.pl3     1 GN5        -0.2653
     22 H1         -7.9606  -38.2039    4.8550 H         1 GN5         0.0126
     23 H2         -8.2708  -37.0119    6.1624 H         1 GN5         0.0126
     24 H3         -8.7079  -38.7381    6.3986 H         1 GN5         0.0126
     25 H4         -4.5665  -37.5965    6.1513 H         1 GN5         0.0126
     26 H5         -5.8577  -36.3731    5.9010 H         1 GN5         0.0126
     27 H6         -5.6109  -37.6786    4.6921 H         1 GN5         0.0126
     28 H7         -6.8035  -40.4695    6.7726 H         1 GN5         0.0126
     29 H8         -5.1025  -39.9128    6.6197 H         1 GN5         0.0126
     30 H9         -6.1633  -39.9676    5.1711 H         1 GN5         0.0126
     31 H10        -7.9075  -39.7612    8.3883 H         1 GN5         0.0833
     32 H11        -7.8817  -39.4777   10.8314 H         1 GN5         0.0654
     33 H12        -5.2164  -36.4661    7.9825 H         1 GN5         0.0833
     34 H13        -5.1646  -36.1972   10.4250 H         1 GN5         0.0654
     35 H14        -5.5957  -38.2411   12.5258 H         1 GN5         0.1074
     36 H15        -8.3242  -38.6270   12.7246 H         1 GN5         0.1902
     37 H16        -6.9256  -37.4640   17.1032 H         1 GN5         0.0751
     38 H17        -5.3311  -35.7344   17.9263 H         1 GN5         0.0609
     39 H18        -4.1659  -34.2351   16.3205 H         1 GN5         0.0817
     40 H19        -5.9722  -35.4657   12.1362 H         1 GN5         0.1886
@<TRIPOS>BOND
     1    1    2 1  
     2    2    3 1  
     3    2    4 1  
     4    2    5 1  
     5    5    6 ar 
     6    5    8 ar 
     7    6    7 ar 
     8    7   10 ar 
     9    8    9 ar 
    10    9   10 ar 
    11   10   11 1  
    12   11   12 1  
    13   11   21 1  
    14   12   13 am 
    15   13   14 2  
    16   13   15 1  
    17   15   16 ar 
    18   15   20 ar 
    19   16   17 ar 
    20   17   18 ar 
    21   18   19 ar 
    22   19   20 ar 
    23   20   21 1  
    24    1   22 1  
    25    1   23 1  
    26    1   24 1  
    27    3   25 1  
    28    3   26 1  
    29    3   27 1  
    30    4   28 1  
    31    4   29 1  
    32    4   30 1  
    33    6   31 1  
    34    7   32 1  
    35    8   33 1  
    36    9   34 1  
    37   11   35 1  
    38   12   36 1  
    39   16   37 1  
    40   17   38 1  
    41   18   39 1  
    42   21   40 1  
@<TRIPOS>SUBSTRUCTURE
     1 GN5         1

