### 
### Created by X-TOOL on Mon Sep 10 21:13:23 2018
### 

@<TRIPOS>MOLECULE
5al2_ligand
   37    39     1     0     0
SMALL
GAST_HUCK


@<TRIPOS>ATOM
      1 CAS       -38.6260  -10.5590    5.5990 C.3       1 O53        -0.0537
      2 CAR       -39.9860  -10.3350    6.3020 C.3       1 O53        -0.0162
      3 CAT       -40.5650   -8.9590    5.9510 C.3       1 O53        -0.0537
      4 CAA       -39.9020  -10.4600    7.7230 C.ar      1 O53        -0.0472
      5 CAD       -40.5850  -11.5230    8.3180 C.ar      1 O53        -0.0664
      6 CAE       -40.5920  -11.7030    9.6830 C.ar      1 O53        -0.0626
      7 CAC       -39.1800   -9.5880    8.5660 C.ar      1 O53        -0.0664
      8 CAB       -39.1660   -9.7940    9.9390 C.ar      1 O53        -0.0626
      9 CAF       -39.8330  -10.8830   10.5160 C.ar      1 O53        -0.0016
     10 CAG       -39.9390  -11.0440   11.9110 C.3       1 O53         0.1554
     11 NAI       -38.9010  -10.5360   12.8320 N.am      1 O53        -0.2540
     12 CAH       -39.0390  -10.6740   14.1870 C.2       1 O53         0.2081
     13 OAK       -38.1760  -10.1000   14.8980 O.2       1 O53        -0.3888
     14 CAQ       -40.0010  -11.5990   14.6890 C.ar      1 O53         0.0951
     15 CAL       -40.1960  -11.7790   16.0550 C.ar      1 O53        -0.0342
     16 CAM       -41.1300  -12.7190   16.5120 C.ar      1 O53        -0.0424
     17 CAN       -41.8560  -13.4790   15.5810 C.ar      1 O53         0.0004
     18 NAO       -41.6310  -13.3250   14.2090 N.ar      1 O53        -0.2785
     19 CAP       -40.7450  -12.3810   13.7930 C.ar      1 O53         0.1359
     20 NAJ       -40.5320  -12.2560   12.4320 N.pl3     1 O53        -0.2712
     21 H1        -38.7530  -10.4506    4.5118 H         1 O53         0.0253
     22 H2        -38.2580  -11.5704    5.8261 H         1 O53         0.0253
     23 H3        -37.9001   -9.8152    5.9593 H         1 O53         0.0253
     24 H4        -40.6802  -11.1053    5.9351 H         1 O53         0.0443
     25 H5        -41.5296   -8.8258    6.4626 H         1 O53         0.0253
     26 H6        -40.7144   -8.8906    4.8633 H         1 O53         0.0253
     27 H7        -39.8664   -8.1736    6.2753 H         1 O53         0.0253
     28 H8        -41.1229  -12.2236    7.6896 H         1 O53         0.0540
     29 H9        -41.1957  -12.4927   10.1154 H         1 O53         0.0541
     30 H10       -38.6342   -8.7541    8.1397 H         1 O53         0.0540
     31 H11       -38.6295   -9.1001   10.5760 H         1 O53         0.0541
     32 H12       -40.7444  -10.3197   12.1027 H         1 O53         0.0982
     33 H13       -38.0884  -10.0863   12.4612 H         1 O53         0.1890
     34 H14       -39.6255  -11.1922   16.7658 H         1 O53         0.0751
     35 H15       -41.2904  -12.8580   17.5750 H         1 O53         0.0609
     36 H16       -42.5965  -14.1905   15.9281 H         1 O53         0.0817
     37 H17       -40.7939  -13.0209   11.7938 H         1 O53         0.1874
@<TRIPOS>BOND
     1    1    2 1  
     2    2    3 1  
     3    2    4 1  
     4    4    5 ar 
     5    4    7 ar 
     6    5    6 ar 
     7    6    9 ar 
     8    7    8 ar 
     9    8    9 ar 
    10    9   10 1  
    11   10   11 1  
    12   10   20 1  
    13   11   12 am 
    14   12   13 2  
    15   12   14 1  
    16   14   15 ar 
    17   14   19 ar 
    18   15   16 ar 
    19   16   17 ar 
    20   17   18 ar 
    21   18   19 ar 
    22   19   20 1  
    23    1   21 1  
    24    1   22 1  
    25    1   23 1  
    26    2   24 1  
    27    3   25 1  
    28    3   26 1  
    29    3   27 1  
    30    5   28 1  
    31    6   29 1  
    32    7   30 1  
    33    8   31 1  
    34   10   32 1  
    35   11   33 1  
    36   15   34 1  
    37   16   35 1  
    38   17   36 1  
    39   20   37 1  
@<TRIPOS>SUBSTRUCTURE
     1 O53         1

