### 
### Created by X-TOOL on Mon Sep 10 21:13:21 2018
### 

@<TRIPOS>MOLECULE
5al3_ligand
   31    33     1     0     0
SMALL
GAST_HUCK


@<TRIPOS>ATOM
      1 CL1       -41.1210   -9.5600   10.7270 Cl        1 TGW        -0.0770
      2 CAB       -39.5640  -10.2040   10.0770 C.ar      1 TGW         0.0461
      3 CAC       -39.2790  -10.0060    8.6990 C.ar      1 TGW        -0.0405
      4 CAD       -38.0700  -10.4840    8.1820 C.ar      1 TGW         0.0335
      5 CL2       -37.6660  -10.3320    6.4480 Cl        1 TGW        -0.0770
      6 CAF       -37.1560  -11.1520    8.9500 C.ar      1 TGW        -0.0543
      7 CAG       -37.4520  -11.3610   10.3060 C.ar      1 TGW        -0.0548
      8 CAH       -38.6080  -10.8940   10.8720 C.ar      1 TGW         0.0197
      9 CAI       -38.8080  -11.1870   12.2690 C.3       1 TGW         0.1614
     10 NAJ       -37.6430  -10.8460   13.0680 N.am      1 TGW        -0.2527
     11 CAK       -37.6780  -11.1580   14.4010 C.2       1 TGW         0.2083
     12 OAL       -36.7430  -10.7680   15.0750 O.2       1 TGW        -0.3888
     13 CAM       -38.5750  -12.1500   14.8230 C.ar      1 TGW         0.0953
     14 CAN       -38.7720  -12.4170   16.1770 C.ar      1 TGW        -0.0342
     15 CAO       -39.6360  -13.4570   16.5580 C.ar      1 TGW        -0.0424
     16 CAP       -40.2770  -14.2270   15.5940 C.ar      1 TGW         0.0004
     17 NAQ       -40.1080  -13.9360   14.2250 N.ar      1 TGW        -0.2783
     18 CAR       -39.2700  -12.9220   13.8520 C.ar      1 TGW         0.1384
     19 NAS       -39.0830  -12.6220   12.5360 N.pl3     1 TGW        -0.2588
     20 CAT       -40.1550  -13.1230   11.6410 C.3       1 TGW         0.0242
     21 H1        -39.9871   -9.4927    8.0585 H         1 TGW         0.0612
     22 H2        -36.2268  -11.5108    8.5222 H         1 TGW         0.0607
     23 H3        -36.7464  -11.9069   10.9218 H         1 TGW         0.0559
     24 H4        -39.6665  -10.5922   12.6142 H         1 TGW         0.1001
     25 H5        -36.8461  -10.4005   12.6600 H         1 TGW         0.1892
     26 H6        -38.2624  -11.8267   16.9300 H         1 TGW         0.0751
     27 H7        -39.8039  -13.6603   17.6094 H         1 TGW         0.0609
     28 H8        -40.9091  -15.0542   15.8962 H         1 TGW         0.0817
     29 H9        -40.3436  -14.1856   11.8539 H         1 TGW         0.0490
     30 H10       -39.8407  -13.0093   10.5930 H         1 TGW         0.0490
     31 H11       -41.0755  -12.5457   11.8125 H         1 TGW         0.0490
@<TRIPOS>BOND
     1    1    2 1  
     2    2    3 ar 
     3    2    8 ar 
     4    3    4 ar 
     5    4    5 1  
     6    4    6 ar 
     7    6    7 ar 
     8    7    8 ar 
     9    8    9 1  
    10    9   10 1  
    11    9   19 1  
    12   10   11 am 
    13   11   12 2  
    14   11   13 1  
    15   13   14 ar 
    16   13   18 ar 
    17   14   15 ar 
    18   15   16 ar 
    19   16   17 ar 
    20   17   18 ar 
    21   18   19 1  
    22   19   20 1  
    23    3   21 1  
    24    6   22 1  
    25    7   23 1  
    26    9   24 1  
    27   10   25 1  
    28   14   26 1  
    29   15   27 1  
    30   16   28 1  
    31   20   29 1  
    32   20   30 1  
    33   20   31 1  
@<TRIPOS>SUBSTRUCTURE
     1 TGW         1

