### 
### Created by X-TOOL on Mon Sep 10 21:13:22 2018
### 

@<TRIPOS>MOLECULE
5al4_ligand
   40    42     1     0     0
SMALL
GAST_HUCK


@<TRIPOS>ATOM
      1 CAC       -39.8590  -12.0780    9.5770 C.3       1 WLH         0.0670
      2 CAB       -39.1500  -12.1660    8.3060 C.3       1 WLH        -0.0105
      3 NAR       -38.7950  -10.8460    7.7910 N.4       1 WLH         0.2361
      4 CAA       -38.1140  -11.0210    6.4820 C.3       1 WLH        -0.0429
      5 CAF       -37.8320  -10.1500    8.6400 C.3       1 WLH        -0.0105
      6 CAE       -38.3060  -10.1150   10.0610 C.3       1 WLH         0.0670
      7 NAD       -38.9480  -11.3820   10.5380 N.pl3     1 WLH        -0.2970
      8 CAG       -38.9330  -11.6850   11.8720 C.cat     1 WLH         0.2057
      9 NAH       -39.7650  -12.6050   12.3590 N.pl3     1 WLH        -0.2150
     10 CAI       -39.7980  -12.9740   13.6730 C.2       1 WLH         0.2010
     11 CAQ       -40.7260  -13.9770   13.9600 C.2       1 WLH         0.0801
     12 CAP       -40.4000  -14.6370   15.2780 C.3       1 WLH         0.0342
     13 CAO       -40.2600  -13.5470   16.3640 C.3       1 WLH        -0.0183
     14 CAN       -39.0340  -12.6340   16.0330 C.3       1 WLH         0.0000
     15 CAJ       -39.0160  -12.3240   14.6150 C.3       1 WLH         0.1608
     16 CAK       -38.1100  -11.3290   14.1070 C.2       1 WLH         0.2120
     17 OAL       -37.3180  -10.6960   14.8070 O.2       1 WLH        -0.3878
     18 NAM       -38.0790  -11.0290   12.7660 N.am      1 WLH        -0.2510
     19 H1        -40.0990  -13.0859    9.9464 H         1 WLH         0.0587
     20 H2        -40.7879  -11.5022    9.4525 H         1 WLH         0.0587
     21 H3        -39.7947  -12.6727    7.5728 H         1 WLH         0.0836
     22 H4        -38.2298  -12.7509    8.4512 H         1 WLH         0.0836
     23 H5        -39.6299  -10.2903    7.6900 H         1 WLH         0.2032
     24 H6        -37.8384  -10.0359    6.0775 H         1 WLH         0.0778
     25 H7        -38.7925  -11.5286    5.7806 H         1 WLH         0.0778
     26 H8        -37.2069  -11.6280    6.6188 H         1 WLH         0.0778
     27 H9        -37.7079   -9.1196    8.2755 H         1 WLH         0.0836
     28 H10       -36.8659  -10.6739    8.5946 H         1 WLH         0.0836
     29 H11       -39.0401   -9.3015   10.1575 H         1 WLH         0.0587
     30 H12       -37.4399   -9.9058   10.7061 H         1 WLH         0.0587
     31 H13       -40.4191  -13.0629   11.7083 H         1 WLH         0.2469
     32 H14       -41.5670  -14.2455   13.3225 H         1 WLH         0.1539
     33 H15       -39.4548  -15.1924   15.1887 H         1 WLH         0.0730
     34 H16       -41.2082  -15.3305   15.5533 H         1 WLH         0.0730
     35 H17       -40.1082  -14.0233   17.3438 H         1 WLH         0.0335
     36 H18       -41.1747  -12.9367   16.3907 H         1 WLH         0.0335
     37 H19       -38.1055  -13.1583   16.3033 H         1 WLH         0.0350
     38 H20       -39.1088  -11.7001   16.6093 H         1 WLH         0.0350
     39 H21       -39.8028  -11.5711   14.7701 H         1 WLH         0.0968
     40 H22       -37.4417  -10.3371   12.4267 H         1 WLH         0.1829
@<TRIPOS>BOND
     1    1    2 1  
     2    1    7 1  
     3    2    3 1  
     4    3    4 1  
     5    3    5 1  
     6    5    6 1  
     7    6    7 1  
     8    7    8 ar 
     9    8    9 ar 
    10    8   18 ar 
    11    9   10 1  
    12   10   11 2  
    13   10   15 1  
    14   11   12 1  
    15   12   13 1  
    16   13   14 1  
    17   14   15 1  
    18   15   16 1  
    19   16   17 2  
    20   16   18 am 
    21    1   19 1  
    22    1   20 1  
    23    2   21 1  
    24    2   22 1  
    25    3   23 1  
    26    4   24 1  
    27    4   25 1  
    28    4   26 1  
    29    5   27 1  
    30    5   28 1  
    31    6   29 1  
    32    6   30 1  
    33    9   31 1  
    34   11   32 1  
    35   12   33 1  
    36   12   34 1  
    37   13   35 1  
    38   13   36 1  
    39   14   37 1  
    40   14   38 1  
    41   15   39 1  
    42   18   40 1  
@<TRIPOS>SUBSTRUCTURE
     1 WLH         1

