### 
### Created by X-TOOL on Mon Sep 10 21:13:23 2018
### 

@<TRIPOS>MOLECULE
5al5_ligand
   49    52     1     0     0
SMALL
GAST_HUCK


@<TRIPOS>ATOM
      1 CAA       -39.1010  -11.7380    4.5740 C.ar      1 JL9        -0.0274
      2 CAB       -39.9910  -12.0910    3.5700 C.ar      1 JL9         0.0032
      3 NAC       -41.2890  -11.5330    3.5520 N.ar      1 JL9        -0.3066
      4 CAD       -41.6930  -10.6150    4.5300 C.ar      1 JL9         0.0032
      5 CAE       -40.7770  -10.2490    5.5190 C.ar      1 JL9        -0.0274
      6 CAF       -39.4970  -10.8180    5.5510 C.ar      1 JL9         0.0213
      7 CAG       -38.5960  -10.4500    6.5750 C.3       1 JL9         0.0092
      8 NAH       -39.2220  -10.5630    7.9060 N.4       1 JL9         0.2520
      9 CAI       -39.3900  -11.9800    8.3180 C.3       1 JL9        -0.0086
     10 CAJ       -40.0100  -12.0120    9.6760 C.3       1 JL9         0.0670
     11 CAM       -38.0570  -10.1470    8.7140 C.3       1 JL9        -0.0086
     12 CAL       -38.3220  -10.1050   10.1570 C.3       1 JL9         0.0670
     13 NAK       -39.0650  -11.3250   10.6420 N.pl3     1 JL9        -0.2970
     14 CAN       -39.0650  -11.6640   11.9670 C.cat     1 JL9         0.2057
     15 NAT       -39.9090  -12.6150   12.4290 N.pl3     1 JL9        -0.2150
     16 CAS       -39.9790  -12.9680   13.7210 C.2       1 JL9         0.2010
     17 CAU       -40.9140  -13.9700   14.0040 C.2       1 JL9         0.0801
     18 CAV       -40.5200  -14.6530   15.3670 C.3       1 JL9         0.0342
     19 CAW       -40.3490  -13.5280   16.4090 C.3       1 JL9        -0.0183
     20 CAX       -39.1710  -12.6630   16.0920 C.3       1 JL9         0.0000
     21 CAR       -39.1590  -12.3350   14.6900 C.3       1 JL9         0.1608
     22 CAP       -38.2190  -11.3680   14.2240 C.2       1 JL9         0.2120
     23 OAQ       -37.3940  -10.7890   14.9480 O.2       1 JL9        -0.3878
     24 NAO       -38.1880  -11.0440   12.8900 N.am      1 JL9        -0.2510
     25 H1        -38.1076  -12.1711    4.6013 H         1 JL9         0.0653
     26 H2        -39.6912  -12.7935    2.8008 H         1 JL9         0.0803
     27 H3        -42.6936  -10.1982    4.5195 H         1 JL9         0.0803
     28 H4        -41.0589   -9.5183    6.2684 H         1 JL9         0.0653
     29 H5        -38.2783   -9.4090    6.4157 H         1 JL9         0.1008
     30 H6        -37.7181  -11.1116    6.5347 H         1 JL9         0.1008
     31 H7        -40.0600  -10.0135    8.0149 H         1 JL9         0.2052
     32 H8        -38.4087  -12.4761    8.3471 H         1 JL9         0.0836
     33 H9        -40.0424  -12.4995    7.6007 H         1 JL9         0.0836
     34 H10       -40.1695  -13.0545    9.9885 H         1 JL9         0.0587
     35 H11       -40.9742  -11.4830    9.6581 H         1 JL9         0.0587
     36 H12       -37.7500   -9.1422    8.3884 H         1 JL9         0.0836
     37 H13       -37.2373  -10.8577    8.5324 H         1 JL9         0.0836
     38 H14       -38.9254   -9.2126   10.3793 H         1 JL9         0.0587
     39 H15       -37.3622  -10.0409   10.6905 H         1 JL9         0.0587
     40 H16       -40.5273  -13.0906   11.7564 H         1 JL9         0.2469
     41 H17       -41.7706  -14.2333   13.3852 H         1 JL9         0.1539
     42 H18       -39.5765  -15.2067   15.2521 H         1 JL9         0.0730
     43 H19       -41.3143  -15.3441   15.6856 H         1 JL9         0.0730
     44 H20       -40.2045  -13.9790   17.4018 H         1 JL9         0.0335
     45 H21       -41.2568  -12.9069   16.4170 H         1 JL9         0.0335
     46 H22       -38.2460  -13.2006   16.3474 H         1 JL9         0.0350
     47 H23       -39.2313  -11.7363   16.6816 H         1 JL9         0.0350
     48 H24       -39.9251  -11.5629   14.8543 H         1 JL9         0.0968
     49 H25       -37.5357  -10.3592   12.5651 H         1 JL9         0.1829
@<TRIPOS>BOND
     1    1    2 ar 
     2    1    6 ar 
     3    2    3 ar 
     4    3    4 ar 
     5    4    5 ar 
     6    5    6 ar 
     7    6    7 1  
     8    7    8 1  
     9    8    9 1  
    10    8   11 1  
    11    9   10 1  
    12   10   13 1  
    13   11   12 1  
    14   12   13 1  
    15   13   14 ar 
    16   14   15 ar 
    17   14   24 ar 
    18   15   16 1  
    19   16   17 2  
    20   16   21 1  
    21   17   18 1  
    22   18   19 1  
    23   19   20 1  
    24   20   21 1  
    25   21   22 1  
    26   22   23 2  
    27   22   24 am 
    28    1   25 1  
    29    2   26 1  
    30    4   27 1  
    31    5   28 1  
    32    7   29 1  
    33    7   30 1  
    34    8   31 1  
    35    9   32 1  
    36    9   33 1  
    37   10   34 1  
    38   10   35 1  
    39   11   36 1  
    40   11   37 1  
    41   12   38 1  
    42   12   39 1  
    43   15   40 1  
    44   17   41 1  
    45   18   42 1  
    46   18   43 1  
    47   19   44 1  
    48   19   45 1  
    49   20   46 1  
    50   20   47 1  
    51   21   48 1  
    52   24   49 1  
@<TRIPOS>SUBSTRUCTURE
     1 JL9         1

