### 
### Created by X-TOOL on Mon Sep 10 21:13:25 2018
### 

@<TRIPOS>MOLECULE
5alb_ligand
   64    68     1     0     0
SMALL
GAST_HUCK


@<TRIPOS>ATOM
      1 C1          1.4160    4.2780    1.8620 C.3       1 TIQ        -0.0643
      2 C2          2.6300    5.1600    2.0460 C.3       1 TIQ        -0.0441
      3 C3          2.8550    6.0590    0.8450 C.3       1 TIQ         0.0126
      4 S4          4.4190    6.9590    1.0290 S.3       1 TIQ        -0.0640
      5 C5          5.6090    5.9420    0.2110 C.ar      1 TIQ         0.1327
      6 N6          6.8720    6.3800    0.2230 N.ar      1 TIQ        -0.2525
      7 C7          7.8410    5.6630   -0.3700 C.ar      1 TIQ         0.1383
      8 N8          9.1760    6.0590   -0.4190 N.pl3     1 TIQ        -0.2938
      9 C9          9.7030    6.8160    0.7190 C.3       1 TIQ         0.0558
     10 C11        10.1720    8.2200    0.4650 C.3       1 TIQ        -0.0131
     11 C12        11.1570    7.1570    0.8260 C.3       1 TIQ         0.0160
     12 C14        11.8540    7.3130    2.1260 C.ar      1 TIQ        -0.0433
     13 C15        13.2280    7.1460    2.1450 C.ar      1 TIQ        -0.0657
     14 C16        13.9660    7.2750    3.3050 C.ar      1 TIQ        -0.0365
     15 C17        13.3120    7.5740    4.4790 C.ar      1 TIQ         0.1576
     16 F18        13.9970    7.6900    5.6250 F         1 TIQ        -0.1901
     17 C19        11.9500    7.7620    4.4790 C.ar      1 TIQ         0.1588
     18 F20        11.3340    8.0630    5.6260 F         1 TIQ        -0.1861
     19 C21        11.2240    7.6420    3.3170 C.ar      1 TIQ        -0.0281
     20 C22         7.4730    4.4750   -0.9750 C.ar      1 TIQ         0.1406
     21 N23         8.1710    3.5200   -1.6660 N.2       1 TIQ        -0.1937
     22 N24         7.3240    2.5710   -2.0380 N.2       1 TIQ        -0.0759
     23 N25         6.1040    2.9320   -1.6010 N.pl3     1 TIQ        -0.1430
     24 C26         5.0130    1.9810   -1.6570 C.3       1 TIQ         0.1190
     25 C28         3.7660    2.4610   -2.3670 C.3       1 TIQ         0.0109
     26 C29         2.6250    1.7160   -1.6960 C.3       1 TIQ         0.0901
     27 O31         1.5750    2.5570   -1.1910 O.3       1 TIQ        -0.3716
     28 C32         0.6100    2.8450   -2.2180 C.3       1 TIQ         0.0712
     29 C33        -0.5490    1.8650   -2.2530 C.3       1 TIQ         0.0676
     30 O34        -0.9800    1.6280   -0.9280 O.3       1 TIQ        -0.3927
     31 C35         3.2010    0.9690   -0.5160 C.3       1 TIQ         0.1101
     32 O37         3.3570   -0.4090   -0.8810 O.3       1 TIQ        -0.3866
     33 C38         4.5490    1.5930   -0.2610 C.3       1 TIQ         0.1155
     34 O40         5.4060    0.6790    0.4440 O.3       1 TIQ        -0.3860
     35 C41         6.1540    4.1200   -0.9200 C.ar      1 TIQ         0.1777
     36 N42         5.1680    4.8100   -0.3420 N.ar      1 TIQ        -0.2570
     37 H1          1.2862    3.6428    2.7506 H         1 TIQ         0.0230
     38 H2          1.5552    3.6430    0.9746 H         1 TIQ         0.0230
     39 H3          0.5233    4.9064    1.7270 H         1 TIQ         0.0230
     40 H4          3.5159    4.5232    2.1860 H         1 TIQ         0.0273
     41 H5          2.4840    5.7865    2.9383 H         1 TIQ         0.0273
     42 H6          2.0270    6.7792    0.7687 H         1 TIQ         0.0409
     43 H7          2.8928    5.4456   -0.0673 H         1 TIQ         0.0409
     44 H8          9.7714    5.8276   -1.2270 H         1 TIQ         0.1879
     45 H9          9.1343    6.5661    1.6268 H         1 TIQ         0.0590
     46 H10         9.9352    9.0177    1.1845 H         1 TIQ         0.0314
     47 H11        10.1543    8.6297   -0.5557 H         1 TIQ         0.0314
     48 H12        11.8566    6.7542    0.0788 H         1 TIQ         0.0477
     49 H13        13.7407    6.9065    1.2204 H         1 TIQ         0.0513
     50 H14        15.0419    7.1431    3.2915 H         1 TIQ         0.0576
     51 H15        10.1525    7.8056    3.3321 H         1 TIQ         0.0532
     52 H16         5.3865    1.0868   -2.1774 H         1 TIQ         0.0699
     53 H17         3.8116    2.2158   -3.4383 H         1 TIQ         0.0322
     54 H18         3.6443    3.5473   -2.2443 H         1 TIQ         0.0322
     55 H19         2.1937    1.0083   -2.4192 H         1 TIQ         0.0624
     56 H20         1.1196    2.8162   -3.1924 H         1 TIQ         0.0583
     57 H21         0.2075    3.8539   -2.0444 H         1 TIQ         0.0583
     58 H22        -0.2214    0.9199   -2.7106 H         1 TIQ         0.0580
     59 H23        -1.3758    2.2899   -2.8411 H         1 TIQ         0.0580
     60 H24        -0.2626    1.2631   -0.4233 H         1 TIQ         0.2095
     61 H25         2.5527    1.0593    0.3681 H         1 TIQ         0.0646
     62 H26         3.7190   -0.8909   -0.1467 H         1 TIQ         0.2100
     63 H27         4.4423    2.4990    0.3536 H         1 TIQ         0.0652
     64 H28         5.5242   -0.1075   -0.0757 H         1 TIQ         0.2100
@<TRIPOS>BOND
     1    1    2 1  
     2    2    3 1  
     3    3    4 1  
     4    4    5 1  
     5    5    6 ar 
     6    5   36 ar 
     7    6    7 ar 
     8    7    8 1  
     9    7   20 ar 
    10    8    9 1  
    11    9   10 1  
    12    9   11 1  
    13   10   11 1  
    14   11   12 1  
    15   12   13 ar 
    16   12   19 ar 
    17   13   14 ar 
    18   14   15 ar 
    19   15   16 1  
    20   15   17 ar 
    21   17   18 1  
    22   17   19 ar 
    23   20   21 1  
    24   20   35 ar 
    25   21   22 2  
    26   22   23 1  
    27   23   24 1  
    28   23   35 1  
    29   24   25 1  
    30   24   33 1  
    31   25   26 1  
    32   26   27 1  
    33   26   31 1  
    34   27   28 1  
    35   28   29 1  
    36   29   30 1  
    37   31   32 1  
    38   31   33 1  
    39   33   34 1  
    40   35   36 ar 
    41    1   37 1  
    42    1   38 1  
    43    1   39 1  
    44    2   40 1  
    45    2   41 1  
    46    3   42 1  
    47    3   43 1  
    48    8   44 1  
    49    9   45 1  
    50   10   46 1  
    51   10   47 1  
    52   11   48 1  
    53   13   49 1  
    54   14   50 1  
    55   19   51 1  
    56   24   52 1  
    57   25   53 1  
    58   25   54 1  
    59   26   55 1  
    60   28   56 1  
    61   28   57 1  
    62   29   58 1  
    63   29   59 1  
    64   30   60 1  
    65   31   61 1  
    66   32   62 1  
    67   33   63 1  
    68   34   64 1  
@<TRIPOS>SUBSTRUCTURE
     1 TIQ         1

