### 
### Created by X-TOOL on Mon Sep 10 21:13:24 2018
### 

@<TRIPOS>MOLECULE
5alc_ligand
   64    68     1     0     0
SMALL
GAST_HUCK


@<TRIPOS>ATOM
      1 C1          8.9580  -12.2190  -70.0730 C.3       1 TIQ        -0.0643
      2 C2          8.3170  -11.1590  -69.2140 C.3       1 TIQ        -0.0441
      3 C3          6.9750  -10.8530  -69.8310 C.3       1 TIQ         0.0126
      4 S4          6.2430   -9.3690  -69.0960 S.3       1 TIQ        -0.0640
      5 C5          6.9560   -8.1160  -70.1290 C.ar      1 TIQ         0.1327
      6 N6          6.5830   -6.8710  -69.8050 N.ar      1 TIQ        -0.2525
      7 C7          7.0790   -5.8190  -70.4740 C.ar      1 TIQ         0.1383
      8 N8          6.7230   -4.4970  -70.1820 N.pl3     1 TIQ        -0.2938
      9 C9          6.3970   -4.1640  -68.7920 C.3       1 TIQ         0.0558
     10 C11         5.0000   -3.8340  -68.3580 C.3       1 TIQ        -0.0131
     11 C12         6.0170   -2.7530  -68.4760 C.3       1 TIQ         0.0160
     12 C14         6.4950   -2.0780  -67.2500 C.ar      1 TIQ        -0.0433
     13 C15         6.6660   -0.7120  -67.3190 C.ar      1 TIQ        -0.0657
     14 C16         7.0820    0.0560  -66.2510 C.ar      1 TIQ        -0.0365
     15 C17         7.3380   -0.5710  -65.0570 C.ar      1 TIQ         0.1576
     16 F18         7.7800    0.1540  -64.0020 F         1 TIQ        -0.1901
     17 C19         7.1620   -1.9350  -64.9590 C.ar      1 TIQ         0.1588
     18 F20         7.4310   -2.5420  -63.8050 F         1 TIQ        -0.1861
     19 C21         6.7380   -2.6880  -66.0340 C.ar      1 TIQ        -0.0281
     20 C22         7.9490   -6.0890  -71.5180 C.ar      1 TIQ         0.1406
     21 N23         8.6170   -5.2780  -72.4010 N.2       1 TIQ        -0.1937
     22 N24         9.3400   -6.0560  -73.2010 N.2       1 TIQ        -0.0759
     23 N25         9.1160   -7.3300  -72.8390 N.pl3     1 TIQ        -0.1430
     24 C26         9.8670   -8.3870  -73.4970 C.3       1 TIQ         0.1190
     25 C28         9.0500   -9.3980  -74.2590 C.3       1 TIQ         0.0109
     26 C29         9.9450  -10.6160  -74.3340 C.3       1 TIQ         0.0901
     27 O31         9.1470  -11.7670  -74.0550 O.3       1 TIQ        -0.3716
     28 C32         9.6030  -12.8310  -74.8860 C.3       1 TIQ         0.0712
     29 C33         8.4630  -13.4090  -75.6910 C.3       1 TIQ         0.0676
     30 O34         8.9900  -14.4890  -76.4520 O.3       1 TIQ        -0.3927
     31 C35        11.0670  -10.4450  -73.3130 C.3       1 TIQ         0.1101
     32 O37        12.3010  -10.2500  -74.0130 O.3       1 TIQ        -0.3866
     33 C38        10.7330   -9.1810  -72.5520 C.3       1 TIQ         0.1155
     34 O40        11.8940   -8.4500  -72.1800 O.3       1 TIQ        -0.3860
     35 C41         8.2480   -7.4050  -71.7820 C.ar      1 TIQ         0.1777
     36 N42         7.7890   -8.4740  -71.1210 N.ar      1 TIQ        -0.2570
     37 H1          9.9448  -12.4773  -69.6613 H         1 TIQ         0.0230
     38 H2          9.0767  -11.8380  -71.0981 H         1 TIQ         0.0230
     39 H3          8.3204  -13.1152  -70.0864 H         1 TIQ         0.0230
     40 H4          8.9423  -10.2541  -69.1989 H         1 TIQ         0.0273
     41 H5          8.1859  -11.5313  -68.1873 H         1 TIQ         0.0273
     42 H6          6.3005  -11.7060  -69.6654 H         1 TIQ         0.0409
     43 H7          7.1045  -10.6923  -70.9114 H         1 TIQ         0.0409
     44 H8          6.6911   -3.7803  -70.9210 H         1 TIQ         0.1879
     45 H9          7.0521   -4.7333  -68.1162 H         1 TIQ         0.0590
     46 H10         4.6438   -4.1479  -67.3658 H         1 TIQ         0.0314
     47 H11         4.1720   -3.8911  -69.0798 H         1 TIQ         0.0314
     48 H12         5.9490   -2.0175  -69.2911 H         1 TIQ         0.0477
     49 H13         6.4632   -0.2155  -68.2610 H         1 TIQ         0.0513
     50 H14         7.2037    1.1284  -66.3523 H         1 TIQ         0.0576
     51 H15         6.5955   -3.7571  -65.9252 H         1 TIQ         0.0532
     52 H16        10.5268   -7.8851  -74.2200 H         1 TIQ         0.0699
     53 H17         8.8106   -9.0270  -75.2665 H         1 TIQ         0.0322
     54 H18         8.1181   -9.6308  -73.7229 H         1 TIQ         0.0322
     55 H19        10.3783  -10.7065  -75.3410 H         1 TIQ         0.0624
     56 H20        10.0360  -13.6212  -74.2551 H         1 TIQ         0.0583
     57 H21        10.3718  -12.4479  -75.5731 H         1 TIQ         0.0583
     58 H22         8.0488  -12.6421  -76.3620 H         1 TIQ         0.0580
     59 H23         7.6728  -13.7728  -75.0178 H         1 TIQ         0.0580
     60 H24         8.2960  -14.8767  -76.9722 H         1 TIQ         0.2095
     61 H25        11.1334  -11.3127  -72.6403 H         1 TIQ         0.0646
     62 H26        13.0061  -10.1425  -73.3855 H         1 TIQ         0.2100
     63 H27        10.1692   -9.4306  -71.6411 H         1 TIQ         0.0652
     64 H28        12.3759   -8.2043  -72.9610 H         1 TIQ         0.2100
@<TRIPOS>BOND
     1    1    2 1  
     2    2    3 1  
     3    3    4 1  
     4    4    5 1  
     5    5    6 ar 
     6    5   36 ar 
     7    6    7 ar 
     8    7    8 1  
     9    7   20 ar 
    10    8    9 1  
    11    9   10 1  
    12    9   11 1  
    13   10   11 1  
    14   11   12 1  
    15   12   13 ar 
    16   12   19 ar 
    17   13   14 ar 
    18   14   15 ar 
    19   15   16 1  
    20   15   17 ar 
    21   17   18 1  
    22   17   19 ar 
    23   20   21 1  
    24   20   35 ar 
    25   21   22 2  
    26   22   23 1  
    27   23   24 1  
    28   23   35 1  
    29   24   25 1  
    30   24   33 1  
    31   25   26 1  
    32   26   27 1  
    33   26   31 1  
    34   27   28 1  
    35   28   29 1  
    36   29   30 1  
    37   31   32 1  
    38   31   33 1  
    39   33   34 1  
    40   35   36 ar 
    41    1   37 1  
    42    1   38 1  
    43    1   39 1  
    44    2   40 1  
    45    2   41 1  
    46    3   42 1  
    47    3   43 1  
    48    8   44 1  
    49    9   45 1  
    50   10   46 1  
    51   10   47 1  
    52   11   48 1  
    53   13   49 1  
    54   14   50 1  
    55   19   51 1  
    56   24   52 1  
    57   25   53 1  
    58   25   54 1  
    59   26   55 1  
    60   28   56 1  
    61   28   57 1  
    62   29   58 1  
    63   29   59 1  
    64   30   60 1  
    65   31   61 1  
    66   32   62 1  
    67   33   63 1  
    68   34   64 1  
@<TRIPOS>SUBSTRUCTURE
     1 TIQ         1

