### 
### Created by X-TOOL on Mon Sep 10 21:13:23 2018
### 

@<TRIPOS>MOLECULE
5ald_ligand
   33    35     1     0     0
SMALL
GAST_HUCK


@<TRIPOS>ATOM
      1 C1        -16.0330   -9.5810   12.2040 C.ar      1 FCW        -0.0793
      2 C2        -14.7370   -9.7850   11.7600 C.ar      1 FCW        -0.0526
      3 C3        -14.4950   -9.5970   10.4180 C.ar      1 FCW         0.0656
      4 C4        -15.4770   -9.2450    9.5460 C.ar      1 FCW        -0.0074
      5 C5        -16.7620   -9.0620    9.9880 C.ar      1 FCW        -0.0684
      6 C6        -17.0470   -9.2220   11.3300 C.ar      1 FCW        -0.0605
      7 C7        -18.4630   -8.9840   11.7690 C.3       1 FCW        -0.0156
      8 C8        -19.1940  -10.1840   12.3550 C.3       1 FCW        -0.0425
      9 C9        -20.6760   -9.8580   12.4520 C.3       1 FCW        -0.0513
     10 C10       -20.9600   -8.5230   13.1470 C.3       1 FCW        -0.0528
     11 C11       -20.1340   -7.3500   12.6200 C.3       1 FCW        -0.0513
     12 C12       -18.6610   -7.7120   12.5970 C.3       1 FCW        -0.0425
     13 C13       -14.9910   -9.1110    8.1640 C.3       1 FCW         0.0703
     14 C14       -13.5050   -9.3920    8.3760 C.2       1 FCW         0.2070
     15 O15       -12.6640   -9.3400    7.4670 O.2       1 FCW        -0.3898
     16 N16       -13.2990   -9.7200    9.7270 N.am      1 FCW        -0.2391
     17 H1        -16.2589   -9.7047   13.2570 H         1 FCW         0.0467
     18 H2        -13.9466  -10.0802   12.4406 H         1 FCW         0.0470
     19 H3        -17.5473   -8.7941    9.2904 H         1 FCW         0.0462
     20 H4        -18.9959   -8.7819   10.8282 H         1 FCW         0.0433
     21 H5        -18.7980  -10.4044   13.3573 H         1 FCW         0.0287
     22 H6        -19.0501  -11.0585   11.7034 H         1 FCW         0.0287
     23 H7        -21.1730  -10.6590   13.0188 H         1 FCW         0.0267
     24 H8        -21.0915   -9.8168   11.4343 H         1 FCW         0.0267
     25 H9        -20.7456   -8.6407   14.2194 H         1 FCW         0.0265
     26 H10       -22.0248   -8.2832   13.0101 H         1 FCW         0.0265
     27 H11       -20.2833   -6.4782   13.2739 H         1 FCW         0.0267
     28 H12       -20.4631   -7.1037   11.5997 H         1 FCW         0.0267
     29 H13       -18.0877   -6.8882   12.1470 H         1 FCW         0.0287
     30 H14       -18.3095   -7.8847   13.6249 H         1 FCW         0.0287
     31 H15       -15.1624   -8.0994    7.7674 H         1 FCW         0.0645
     32 H16       -15.4547   -9.8507    7.4948 H         1 FCW         0.0645
     33 H17       -12.4261   -9.9986   10.1275 H         1 FCW         0.2232
@<TRIPOS>BOND
     1    1    2 ar 
     2    1    6 ar 
     3    2    3 ar 
     4    3    4 ar 
     5    3   16 1  
     6    4    5 ar 
     7    4   13 1  
     8    5    6 ar 
     9    6    7 1  
    10    7    8 1  
    11    7   12 1  
    12    8    9 1  
    13    9   10 1  
    14   10   11 1  
    15   11   12 1  
    16   13   14 1  
    17   14   15 2  
    18   14   16 am 
    19    1   17 1  
    20    2   18 1  
    21    5   19 1  
    22    7   20 1  
    23    8   21 1  
    24    8   22 1  
    25    9   23 1  
    26    9   24 1  
    27   10   25 1  
    28   10   26 1  
    29   11   27 1  
    30   11   28 1  
    31   12   29 1  
    32   12   30 1  
    33   13   31 1  
    34   13   32 1  
    35   16   33 1  
@<TRIPOS>SUBSTRUCTURE
     1 FCW         1

