### 
### Created by X-TOOL on Mon Sep 10 21:13:24 2018
### 

@<TRIPOS>MOLECULE
5ale_ligand
   19    20     1     0     0
SMALL
GAST_HUCK


@<TRIPOS>ATOM
      1 C1         18.9120    9.7000   13.6540 C.ar      1 ONR        -0.0561
      2 C2         17.6090   10.1410   13.5430 C.ar      1 ONR        -0.0303
      3 C3         17.0180   10.1860   12.2970 C.ar      1 ONR         0.1030
      4 C4         17.6810    9.7990   11.1500 C.ar      1 ONR         0.0531
      5 C5         18.9810    9.3480   11.2780 C.ar      1 ONR        -0.0440
      6 C6         19.5880    9.3180   12.5150 C.ar      1 ONR         0.0298
      7 CL7        21.2030    8.7620   12.6350 Cl        1 ONR        -0.0806
      8 C8         17.0420    9.7940    9.8500 C.2       1 ONR         0.1564
      9 C9         15.7420    9.8830    9.4120 C.2       1 ONR        -0.0277
     10 C10        15.8300    9.7120    8.0090 C.2       1 ONR         0.0119
     11 N11        17.0940    9.5050    7.6170 N.2       1 ONR        -0.1497
     12 O12        17.8570    9.5620    8.7820 O.3       1 ONR        -0.1681
     13 O13        15.7230   10.6210   12.2130 O.3       1 ONR        -0.3292
     14 H1         19.3967    9.6547   14.6225 H         1 ONR         0.0598
     15 H2         17.0567   10.4482   14.4237 H         1 ONR         0.0543
     16 H3         19.5258    9.0163   10.4015 H         1 ONR         0.0602
     17 H4         14.8464   10.0478   10.0093 H         1 ONR         0.0388
     18 H5         14.9767    9.7447    7.3332 H         1 ONR         0.0678
     19 H6         15.4097   10.8488   13.0805 H         1 ONR         0.2505
@<TRIPOS>BOND
     1    1    2 ar 
     2    1    6 ar 
     3    2    3 ar 
     4    3    4 ar 
     5    3   13 1  
     6    4    5 ar 
     7    4    8 1  
     8    5    6 ar 
     9    6    7 1  
    10    8    9 2  
    11    8   12 1  
    12    9   10 1  
    13   10   11 2  
    14   11   12 1  
    15    1   14 1  
    16    2   15 1  
    17    5   16 1  
    18    9   17 1  
    19   10   18 1  
    20   13   19 1  
@<TRIPOS>SUBSTRUCTURE
     1 ONR         1

