### 
### Created by X-TOOL on Mon Sep 10 21:13:23 2018
### 

@<TRIPOS>MOLECULE
5alf_ligand
   48    50     1     0     0
SMALL
GAST_HUCK


@<TRIPOS>ATOM
      1 C1         10.7660    6.1090   21.8790 C.3       1 OE1        -0.0638
      2 C2         10.2100    7.4500   21.4780 C.3       1 OE1        -0.0387
      3 C3         11.1280    8.1470   20.4940 C.3       1 OE1         0.0293
      4 N4         11.3820    9.5740   20.8350 N.am      1 OE1        -0.2352
      5 C5         10.2500   10.2520   21.5140 C.3       1 OE1         0.0293
      6 C6          9.4760   11.0950   20.5370 C.3       1 OE1        -0.0387
      7 C7          8.4010   11.8140   21.3100 C.3       1 OE1        -0.0638
      8 S8         12.9440    9.9300   21.4640 S.o2      1 OE1         0.0653
      9 O9         12.8730   10.9820   22.4620 O.2       1 OE1        -0.1514
     10 O10        13.6130    8.6940   21.8160 O.2       1 OE1        -0.1514
     11 C11        13.8090   10.5980   20.0460 C.ar      1 OE1         0.0944
     12 C12        13.9110   11.9710   19.8990 C.ar      1 OE1        -0.0475
     13 C13        14.5720   12.5420   18.8270 C.ar      1 OE1        -0.0372
     14 C14        15.1130   11.6300   17.9410 C.ar      1 OE1         0.0825
     15 C15        15.0210   10.2580   18.0590 C.ar      1 OE1         0.0353
     16 C16        14.3550    9.7060   19.1420 C.ar      1 OE1        -0.0341
     17 N17        15.6740    9.6470   17.0150 N.2       1 OE1        -0.3039
     18 C18        16.1530   10.6020   16.2470 C.2       1 OE1         0.1412
     19 N19        15.8260   11.8100   16.7910 N.pl3     1 OE1        -0.2491
     20 C21        16.9600   10.4510   15.0470 C.ar      1 OE1         0.0345
     21 C22        17.4920   11.5440   14.3840 C.ar      1 OE1        -0.0441
     22 C23        18.3060   11.3920   13.2800 C.ar      1 OE1        -0.0567
     23 C24        18.5970   10.1290   12.8150 C.ar      1 OE1        -0.0580
     24 C25        18.0690    9.0280   13.4560 C.ar      1 OE1        -0.0567
     25 C26        17.2670    9.1910   14.5680 C.ar      1 OE1        -0.0441
     26 H1         10.0812    5.6265   22.5919 H         1 OE1         0.0230
     27 H2         11.7499    6.2463   22.3514 H         1 OE1         0.0230
     28 H3         10.8730    5.4747   20.9867 H         1 OE1         0.0230
     29 H4         10.1017    8.0773   22.3751 H         1 OE1         0.0278
     30 H5          9.2249    7.3056   21.0104 H         1 OE1         0.0278
     31 H6         10.6679    8.1031   19.4958 H         1 OE1         0.0478
     32 H7         12.0908    7.6152   20.4777 H         1 OE1         0.0478
     33 H8         10.6419   10.8953   22.3156 H         1 OE1         0.0478
     34 H9          9.5810    9.4935   21.9466 H         1 OE1         0.0478
     35 H10         9.0204   10.4547   19.7673 H         1 OE1         0.0278
     36 H11        10.1455   11.8245   20.0579 H         1 OE1         0.0278
     37 H12         7.8137   12.4419   20.6238 H         1 OE1         0.0230
     38 H13         8.8648   12.4474   22.0805 H         1 OE1         0.0230
     39 H14         7.7396   11.0776   21.7899 H         1 OE1         0.0230
     40 H15        13.4604   12.6159   20.6447 H         1 OE1         0.0567
     41 H16        14.6584   13.6142   18.6930 H         1 OE1         0.0548
     42 H17        14.2671    8.6335   19.2729 H         1 OE1         0.0574
     43 H18        16.0803   12.7248   16.3918 H         1 OE1         0.2304
     44 H19        17.2639   12.5420   14.7403 H         1 OE1         0.0663
     45 H20        18.7146   12.2633   12.7810 H         1 OE1         0.0628
     46 H21        19.2375   10.0009   11.9499 H         1 OE1         0.0649
     47 H22        18.2842    8.0321   13.0859 H         1 OE1         0.0628
     48 H23        16.8718    8.3172   15.0734 H         1 OE1         0.0663
@<TRIPOS>BOND
     1    1    2 1  
     2    2    3 1  
     3    3    4 1  
     4    4    5 1  
     5    4    8 am 
     6    5    6 1  
     7    6    7 1  
     8    8    9 2  
     9    8   10 2  
    10    8   11 1  
    11   11   12 ar 
    12   11   16 ar 
    13   12   13 ar 
    14   13   14 ar 
    15   14   15 ar 
    16   14   19 1  
    17   15   16 ar 
    18   15   17 1  
    19   17   18 2  
    20   18   19 1  
    21   18   20 1  
    22   20   21 ar 
    23   20   25 ar 
    24   21   22 ar 
    25   22   23 ar 
    26   23   24 ar 
    27   24   25 ar 
    28    1   26 1  
    29    1   27 1  
    30    1   28 1  
    31    2   29 1  
    32    2   30 1  
    33    3   31 1  
    34    3   32 1  
    35    5   33 1  
    36    5   34 1  
    37    6   35 1  
    38    6   36 1  
    39    7   37 1  
    40    7   38 1  
    41    7   39 1  
    42   12   40 1  
    43   13   41 1  
    44   16   42 1  
    45   19   43 1  
    46   21   44 1  
    47   22   45 1  
    48   23   46 1  
    49   24   47 1  
    50   25   48 1  
@<TRIPOS>SUBSTRUCTURE
     1 OE1         1

