### 
### Created by X-TOOL on Mon Sep 10 21:13:24 2018
### 

@<TRIPOS>MOLECULE
5alg_ligand
   54    58     1     0     0
SMALL
GAST_HUCK


@<TRIPOS>ATOM
      1 C1         -9.9200  -10.8650   20.0280 C.ar      1 R4N        -0.0819
      2 C2        -10.5900   -9.7640   19.5240 C.ar      1 R4N        -0.0819
      3 C3        -20.7760  -10.1680   13.0120 C.ar      1 R4N        -0.0680
      4 C4        -14.1920  -11.0450   14.6490 C.ar      1 R4N        -0.0630
      5 C5        -19.4580   -9.7890   12.9090 C.ar      1 R4N        -0.0578
      6 C6        -10.6150  -12.0040   20.3900 C.ar      1 R4N        -0.0415
      7 C7        -11.9630   -9.7790   19.3740 C.ar      1 R4N        -0.0414
      8 C8        -13.8870  -10.8690   13.3150 C.ar      1 R4N        -0.0566
      9 C9        -21.7450   -9.1940   13.0850 C.ar      1 R4N        -0.0548
     10 C10       -16.2940   -9.9550   14.2820 C.ar      1 R4N        -0.0266
     11 C11       -20.0690   -7.4780   12.9380 C.ar      1 R4N        -0.0441
     12 C12       -15.4060  -10.5920   15.1270 C.ar      1 R4N         0.0292
     13 C13       -19.1010   -8.4540   12.8690 C.ar      1 R4N        -0.0152
     14 C14       -15.9740   -9.7700   12.9440 C.ar      1 R4N         0.0900
     15 C15       -11.9880  -12.0250   20.2390 C.ar      1 R4N         0.1199
     16 C16       -12.6560  -10.9180   19.7320 C.ar      1 R4N         0.1203
     17 C17       -14.7610  -10.2250   12.4570 C.ar      1 R4N         0.0445
     18 C18       -21.3900   -7.8630   13.0470 C.ar      1 R4N         0.0338
     19 C19       -16.9880   -9.2980   10.7010 C.2       1 R4N         0.2182
     20 C20       -15.7550  -10.7520   16.5470 C.2       1 R4N         0.1965
     21 C21       -15.9530  -10.1380   10.0170 C.3       1 R4N         0.1007
     22 C22       -13.6020  -13.3640   19.5150 C.3       1 R4N         0.0999
     23 C23       -14.5990  -12.2240   19.5420 C.3       1 R4N         0.1257
     24 C24       -17.6710   -8.0600   12.7410 C.3       1 R4N         0.0878
     25 C25       -15.6100  -12.3230   18.4330 C.3       1 R4N         0.0630
     26 N26       -16.8680   -9.0800   12.0850 N.am      1 R4N        -0.2089
     27 N27       -15.1310  -11.7980   17.1840 N.am      1 R4N        -0.2844
     28 O28       -17.8970   -8.8790   10.0010 O.2       1 R4N        -0.3844
     29 O29       -16.4940   -9.9310   17.0630 O.2       1 R4N        -0.3878
     30 O30       -12.6940  -13.1650   20.5940 O.3       1 R4N        -0.3188
     31 O31       -14.0330  -10.9060   19.5620 O.3       1 R4N        -0.3139
     32 S32       -14.3120   -9.9780   10.7550 S.3       1 R4N        -0.0840
     33 CL33      -22.6480   -6.6970   13.1300 Cl        1 R4N        -0.0725
     34 H1         -8.8422  -10.8341   20.1398 H         1 R4N         0.0495
     35 H2        -10.0304   -8.8790   19.2435 H         1 R4N         0.0495
     36 H3        -21.0471  -11.2173   13.0353 H         1 R4N         0.0599
     37 H4        -13.4878  -11.5326   15.3134 H         1 R4N         0.0525
     38 H5        -18.6868  -10.5491   12.8584 H         1 R4N         0.0559
     39 H6        -10.0911  -12.8665   20.7859 H         1 R4N         0.0509
     40 H7        -12.4859   -8.9137   18.9830 H         1 R4N         0.0509
     41 H8        -12.9444  -11.2425   12.9316 H         1 R4N         0.0535
     42 H9        -22.7886   -9.4738   13.1725 H         1 R4N         0.0565
     43 H10       -17.2434   -9.5986   14.6649 H         1 R4N         0.0529
     44 H11       -19.7995   -6.4285   12.9074 H         1 R4N         0.0563
     45 H12       -15.8941   -9.8315    8.9622 H         1 R4N         0.0645
     46 H13       -16.2623  -11.1920   10.0759 H         1 R4N         0.0645
     47 H14       -13.0562  -13.3629   18.5600 H         1 R4N         0.0639
     48 H15       -14.1256  -14.3237   19.6371 H         1 R4N         0.0639
     49 H16       -15.1510  -12.3347   20.4870 H         1 R4N         0.0693
     50 H17       -17.2627   -7.8827   13.7469 H         1 R4N         0.0747
     51 H18       -17.6121   -7.1325   12.1526 H         1 R4N         0.0747
     52 H19       -16.5085  -11.7608   18.7273 H         1 R4N         0.0549
     53 H20       -15.8705  -13.3821   18.2905 H         1 R4N         0.0549
     54 H21       -14.3194  -12.2059   16.7658 H         1 R4N         0.1844
@<TRIPOS>BOND
     1    2    1 ar 
     2    6    1 ar 
     3    7    2 ar 
     4    5    3 ar 
     5    3    9 ar 
     6    4    8 ar 
     7   12    4 ar 
     8   13    5 ar 
     9   15    6 ar 
    10   16    7 ar 
    11    8   17 ar 
    12   18    9 ar 
    13   12   10 ar 
    14   10   14 ar 
    15   13   11 ar 
    16   11   18 ar 
    17   20   12 1  
    18   24   13 1  
    19   14   17 ar 
    20   14   26 1  
    21   16   15 ar 
    22   30   15 1  
    23   31   16 1  
    24   17   32 1  
    25   18   33 1  
    26   19   21 1  
    27   26   19 am 
    28   19   28 2  
    29   27   20 am 
    30   20   29 2  
    31   32   21 1  
    32   23   22 1  
    33   22   30 1  
    34   25   23 1  
    35   23   31 1  
    36   26   24 1  
    37   25   27 1  
    38    1   34 1  
    39    2   35 1  
    40    3   36 1  
    41    4   37 1  
    42    5   38 1  
    43    6   39 1  
    44    7   40 1  
    45    8   41 1  
    46    9   42 1  
    47   10   43 1  
    48   11   44 1  
    49   21   45 1  
    50   21   46 1  
    51   22   47 1  
    52   22   48 1  
    53   23   49 1  
    54   24   50 1  
    55   24   51 1  
    56   25   52 1  
    57   25   53 1  
    58   27   54 1  
@<TRIPOS>SUBSTRUCTURE
     1 R4N         1

