### 
### Created by X-TOOL on Mon Sep 10 21:13:23 2018
### 

@<TRIPOS>MOLECULE
5alh_ligand
   72    75     1     0     0
SMALL
GAST_HUCK


@<TRIPOS>ATOM
      1 C35         9.4960   11.2630   19.7010 C.ar      1 4UA        -0.0340
      2 C34        10.1530   12.4000   20.1160 C.ar      1 4UA        -0.0324
      3 C36        10.2280   10.1790   19.2660 C.ar      1 4UA        -0.0324
      4 C33        11.5320   12.4450   20.0930 C.ar      1 4UA        -0.0393
      5 C37        11.6050   10.2370   19.2460 C.ar      1 4UA        -0.0393
      6 C3         18.4760   10.3530   11.0880 C.ar      1 4UA        -0.0670
      7 C7         16.1650   10.4820   11.6660 C.ar      1 4UA        -0.0670
      8 C4         18.8260   10.6860   12.3840 C.ar      1 4UA        -0.0649
      9 C6         16.5130   10.8130   12.9620 C.ar      1 4UA        -0.0649
     10 C26        10.3010    7.3050   21.9690 C.ar      1 4UA        -0.0689
     11 C27        10.0120    8.4400   22.6920 C.ar      1 4UA        -0.0377
     12 C24        12.6440    7.8370   22.0600 C.ar      1 4UA        -0.0423
     13 C32        12.2900   11.3720   19.6500 C.ar      1 4UA        -0.0451
     14 C2         17.1480   10.2600   10.7220 C.ar      1 4UA        -0.0528
     15 C5         17.8420   10.9230   13.3250 C.ar      1 4UA        -0.0279
     16 C25        11.6140    7.0220   21.6650 C.ar      1 4UA        -0.0549
     17 C28        11.0340    9.2830   23.0960 C.ar      1 4UA         0.1101
     18 C23        12.3530    8.9710   22.7770 C.ar      1 4UA         0.1298
     19 C10        16.6810   10.7610   16.5340 C.2       1 4UA         0.2616
     20 C14        14.2940   12.6360   18.8210 C.3       1 4UA        -0.0490
     21 C16        14.3920   10.1350   19.0760 C.3       1 4UA        -0.0490
     22 C13        15.5580   12.4040   18.0020 C.3       1 4UA         0.0274
     23 C17        14.5960   10.1650   17.5750 C.3       1 4UA         0.0274
     24 C15        13.8060   11.4330   19.6300 C.3       1 4UA        -0.0162
     25 C1         16.7720    9.9070    9.3250 C.3       1 4UA        -0.0343
     26 C31        11.9640    5.8200   20.9070 C.3       1 4UA        -0.0362
     27 C30         9.4820   10.9470   23.3600 C.3       1 4UA         0.0580
     28 C8         18.2400   11.2860   14.7110 C.3       1 4UA         0.0618
     29 C18        14.2560   11.6100   21.0730 C.3       1 4UA         0.0094
     30 N12        15.5540   11.1860   17.2170 N.am      1 4UA        -0.2609
     31 N9         17.1310   11.6240   15.5750 N.am      1 4UA        -0.2627
     32 N19        14.4820   10.2880   21.6940 N.am      1 4UA        -0.2564
     33 O11        17.2170    9.6830   16.7380 O.2       1 4UA        -0.4005
     34 O21        13.3750   11.0800   23.9500 O.2       1 4UA        -0.1521
     35 O22        14.6920    8.9500   23.8500 O.2       1 4UA        -0.1521
     36 O29        10.7150   10.4140   23.8390 O.3       1 4UA        -0.3237
     37 S20        13.8050    9.9080   23.2250 S.o2      1 4UA         0.0642
     38 H1          8.4129   11.2209   19.7163 H         1 4UA         0.0856
     39 H2          9.5876   13.2584   20.4603 H         1 4UA         0.0698
     40 H3          9.7197    9.2791   18.9390 H         1 4UA         0.0698
     41 H4         12.0361   13.3434   20.4303 H         1 4UA         0.0850
     42 H5         12.1658    9.3739   18.9060 H         1 4UA         0.0850
     43 H6         19.2506   10.1635   10.3537 H         1 4UA         0.0540
     44 H7         15.1201   10.3966   11.3905 H         1 4UA         0.0540
     45 H8         19.8712   10.7610   12.6614 H         1 4UA         0.0540
     46 H9         15.7377   10.9876   13.6993 H         1 4UA         0.0540
     47 H10         9.5064    6.6433   21.6435 H         1 4UA         0.0530
     48 H11         8.9843    8.6742   22.9453 H         1 4UA         0.0526
     49 H12        13.6696    7.5901   21.8105 H         1 4UA         0.0549
     50 H13        13.4903   12.9282   18.1292 H         1 4UA         0.0195
     51 H14        14.4910   13.4596   19.5231 H         1 4UA         0.0195
     52 H15        15.3649    9.9572   19.5576 H         1 4UA         0.0195
     53 H16        13.7062    9.3101   19.3192 H         1 4UA         0.0195
     54 H17        16.4122   12.3633   18.6938 H         1 4UA         0.0512
     55 H18        15.6825   13.2542   17.3152 H         1 4UA         0.0512
     56 H19        13.6360   10.3803   17.0830 H         1 4UA         0.0512
     57 H20        14.9681    9.1855   17.2401 H         1 4UA         0.0512
     58 H21        17.6828    9.7694    8.7238 H         1 4UA         0.0378
     59 H22        16.1661   10.7169    8.8925 H         1 4UA         0.0378
     60 H23        16.1894    8.9740    9.3267 H         1 4UA         0.0378
     61 H24        11.0481    5.2642   20.6576 H         1 4UA         0.0370
     62 H25        12.6254    5.1837   21.5134 H         1 4UA         0.0370
     63 H26        12.4815    6.1086   19.9802 H         1 4UA         0.0370
     64 H27         9.2195   11.8432   23.9413 H         1 4UA         0.0575
     65 H28         8.6889   10.1929   23.4707 H         1 4UA         0.0575
     66 H29         9.5865   11.2161   22.2986 H         1 4UA         0.0575
     67 H30        18.9151   12.1530   14.6606 H         1 4UA         0.0667
     68 H31        18.7733   10.4311   15.1522 H         1 4UA         0.0667
     69 H32        13.4784   12.1487   21.6343 H         1 4UA         0.0384
     70 H33        15.1914   12.1883   21.0953 H         1 4UA         0.0384
     71 H34        16.6823   12.5113   15.4681 H         1 4UA         0.1870
     72 H35        15.0362    9.6064   21.2163 H         1 4UA         0.1661
@<TRIPOS>BOND
     1    2    1 ar 
     2    3    1 ar 
     3    4    2 ar 
     4    5    3 ar 
     5   13    4 ar 
     6   13    5 ar 
     7    8    6 ar 
     8    6   14 ar 
     9    9    7 ar 
    10    7   14 ar 
    11   15    8 ar 
    12   15    9 ar 
    13   11   10 ar 
    14   16   10 ar 
    15   17   11 ar 
    16   12   16 ar 
    17   18   12 ar 
    18   24   13 1  
    19   14   25 1  
    20   28   15 1  
    21   16   26 1  
    22   18   17 ar 
    23   17   36 1  
    24   37   18 1  
    25   30   19 am 
    26   19   31 am 
    27   19   33 2  
    28   20   22 1  
    29   24   20 1  
    30   21   23 1  
    31   24   21 1  
    32   22   30 1  
    33   23   30 1  
    34   29   24 1  
    35   36   27 1  
    36   31   28 1  
    37   32   29 1  
    38   32   37 am 
    39   37   34 2  
    40   37   35 2  
    41    1   38 1  
    42    2   39 1  
    43    3   40 1  
    44    4   41 1  
    45    5   42 1  
    46    6   43 1  
    47    7   44 1  
    48    8   45 1  
    49    9   46 1  
    50   10   47 1  
    51   11   48 1  
    52   12   49 1  
    53   20   50 1  
    54   20   51 1  
    55   21   52 1  
    56   21   53 1  
    57   22   54 1  
    58   22   55 1  
    59   23   56 1  
    60   23   57 1  
    61   25   58 1  
    62   25   59 1  
    63   25   60 1  
    64   26   61 1  
    65   26   62 1  
    66   26   63 1  
    67   27   64 1  
    68   27   65 1  
    69   27   66 1  
    70   28   67 1  
    71   28   68 1  
    72   29   69 1  
    73   29   70 1  
    74   31   71 1  
    75   32   72 1  
@<TRIPOS>SUBSTRUCTURE
     1 4UA         1

