### 
### Created by X-TOOL on Mon Sep 10 21:13:23 2018
### 

@<TRIPOS>MOLECULE
5ali_ligand
   65    70     1     0     0
SMALL
GAST_HUCK


@<TRIPOS>ATOM
      1 C1         20.5580   -7.3760  -11.9490 C.3       1 Q3B         0.0561
      2 O2         20.6100   -8.8000  -11.9500 O.3       1 Q3B        -0.3309
      3 C3         19.5780   -9.3130  -12.7240 C.ar      1 Q3B         0.0754
      4 C4         19.6020  -10.6750  -12.9460 C.ar      1 Q3B        -0.0460
      5 C5         18.6010  -11.2560  -13.6970 C.ar      1 Q3B        -0.0493
      6 C6         17.5890  -10.4840  -14.2280 C.ar      1 Q3B         0.0565
      7 C7         17.5570   -9.1230  -13.9860 C.ar      1 Q3B        -0.0493
      8 C8         18.5560   -8.5330  -13.2390 C.ar      1 Q3B        -0.0460
      9 N9         16.5850  -11.1330  -14.9820 N.am      1 Q3B        -0.2206
     10 C10        16.1020  -10.7120  -16.2070 C.2       1 Q3B         0.3139
     11 O11        16.4280   -9.6760  -16.7660 O.2       1 Q3B        -0.3815
     12 N12        15.1900  -11.6200  -16.7100 N.am      1 Q3B        -0.2155
     13 C13        14.6380  -11.6100  -18.0070 C.ar      1 Q3B         0.0649
     14 C14        14.9300  -12.6390  -18.8810 C.ar      1 Q3B        -0.0432
     15 C15        14.3660  -12.6570  -20.1420 C.ar      1 Q3B        -0.0767
     16 C16        13.5040  -11.6520  -20.5380 C.ar      1 Q3B        -0.0720
     17 C17        13.1810  -10.6290  -19.6650 C.ar      1 Q3B        -0.0305
     18 C18        13.7570  -10.6210  -18.4040 C.ar      1 Q3B        -0.0375
     19 C19        12.2710   -9.5510  -20.0170 C.2       1 Q3B         0.0488
     20 C20        11.3360   -9.4480  -21.0420 C.2       1 Q3B         0.1364
     21 N21        10.8160   -8.1830  -20.8930 N.pl3     1 Q3B        -0.2298
     22 C22        11.4490   -7.5810  -19.8490 C.2       1 Q3B         0.1097
     23 N23        12.3200   -8.3870  -19.2950 N.2       1 Q3B        -0.3001
     24 C24         9.8880   -7.4190  -21.7250 C.3       1 Q3B         0.0862
     25 C25         8.4780   -7.9370  -21.9040 C.3       1 Q3B         0.0867
     26 C26         7.9110   -7.3850  -23.1890 C.3       1 Q3B        -0.0218
     27 C27         6.6100   -6.7350  -22.8110 C.3       1 Q3B        -0.0270
     28 C28         6.3930   -7.1030  -21.3660 C.3       1 Q3B         0.0482
     29 O29         7.6500   -7.5080  -20.8300 O.3       1 Q3B        -0.3737
     30 C30        10.8560  -10.3390  -22.0460 C.2       1 Q3B         0.1375
     31 N31        11.4580  -10.5230  -23.2030 N.2       1 Q3B        -0.2929
     32 C32        10.7210  -11.3670  -23.9990 C.ar      1 Q3B         0.1005
     33 C33        10.9940  -11.8070  -25.2890 C.ar      1 Q3B         0.1361
     34 N34        10.1070  -12.6150  -25.8860 N.ar      1 Q3B        -0.2635
     35 C35         8.9980  -12.9480  -25.2170 C.ar      1 Q3B         0.0592
     36 N36         8.6240  -12.5950  -23.9830 N.ar      1 Q3B        -0.2751
     37 C37         9.5330  -11.7900  -23.4290 C.ar      1 Q3B         0.1253
     38 S38         9.3620  -11.1650  -21.8420 S.3       1 Q3B         0.0200
     39 N39        12.1670  -11.4540  -25.9620 N.pl3     1 Q3B        -0.3144
     40 H1         21.3790   -6.9796  -11.3336 H         1 Q3B         0.0572
     41 H2         19.5951   -7.0445  -11.5332 H         1 Q3B         0.0572
     42 H3         20.6599   -7.0046  -12.9794 H         1 Q3B         0.0572
     43 H4         20.3998  -11.2825  -12.5342 H         1 Q3B         0.0506
     44 H5         18.6100  -12.3259  -13.8708 H         1 Q3B         0.0477
     45 H6         16.7481   -8.5202  -14.3826 H         1 Q3B         0.0477
     46 H7         18.5409   -7.4646  -13.0562 H         1 Q3B         0.0506
     47 H8         16.1907  -11.9673  -14.5967 H         1 Q3B         0.2225
     48 H9         14.8940  -12.3524  -16.0968 H         1 Q3B         0.2259
     49 H10        15.6023  -13.4332  -18.5771 H         1 Q3B         0.0489
     50 H11        14.6012  -13.4649  -20.8254 H         1 Q3B         0.0574
     51 H12        13.0799  -11.6655  -21.5355 H         1 Q3B         0.0479
     52 H13        13.5113   -9.8218  -17.7141 H         1 Q3B         0.0479
     53 H14        11.2562   -6.5617  -19.5176 H         1 Q3B         0.1321
     54 H15        10.3359   -7.3465  -22.7270 H         1 Q3B         0.0648
     55 H16         9.8102   -6.4141  -21.2845 H         1 Q3B         0.0648
     56 H17         8.4930   -9.0362  -21.9426 H         1 Q3B         0.0624
     57 H18         7.7391   -8.1957  -23.9123 H         1 Q3B         0.0292
     58 H19         8.5977   -6.6444  -23.6247 H         1 Q3B         0.0292
     59 H20         5.7901   -7.1203  -23.4350 H         1 Q3B         0.0288
     60 H21         6.6761   -5.6430  -22.9257 H         1 Q3B         0.0288
     61 H22         5.6709   -7.9297  -21.2940 H         1 Q3B         0.0560
     62 H23         6.0114   -6.2334  -20.8109 H         1 Q3B         0.0560
     63 H24         8.3074  -13.5928  -25.7483 H         1 Q3B         0.1014
     64 H25        12.3360  -11.7988  -26.9177 H         1 Q3B         0.1820
     65 H26        12.8624  -10.8491  -25.5022 H         1 Q3B         0.1820
@<TRIPOS>BOND
     1    1    2 1  
     2    2    3 1  
     3    3    4 ar 
     4    3    8 ar 
     5    4    5 ar 
     6    5    6 ar 
     7    6    7 ar 
     8    6    9 1  
     9    7    8 ar 
    10    9   10 am 
    11   10   11 2  
    12   10   12 am 
    13   12   13 1  
    14   13   14 ar 
    15   13   18 ar 
    16   14   15 ar 
    17   15   16 ar 
    18   16   17 ar 
    19   17   18 ar 
    20   17   19 1  
    21   19   20 2  
    22   19   23 1  
    23   20   21 1  
    24   20   30 1  
    25   21   22 1  
    26   21   24 1  
    27   22   23 2  
    28   24   25 1  
    29   25   26 1  
    30   25   29 1  
    31   26   27 1  
    32   27   28 1  
    33   28   29 1  
    34   30   31 2  
    35   30   38 1  
    36   31   32 1  
    37   32   33 ar 
    38   32   37 ar 
    39   33   34 ar 
    40   33   39 1  
    41   34   35 ar 
    42   35   36 ar 
    43   36   37 ar 
    44   37   38 1  
    45    1   40 1  
    46    1   41 1  
    47    1   42 1  
    48    4   43 1  
    49    5   44 1  
    50    7   45 1  
    51    8   46 1  
    52    9   47 1  
    53   12   48 1  
    54   14   49 1  
    55   15   50 1  
    56   16   51 1  
    57   18   52 1  
    58   22   53 1  
    59   24   54 1  
    60   24   55 1  
    61   25   56 1  
    62   26   57 1  
    63   26   58 1  
    64   27   59 1  
    65   27   60 1  
    66   28   61 1  
    67   28   62 1  
    68   35   63 1  
    69   39   64 1  
    70   39   65 1  
@<TRIPOS>SUBSTRUCTURE
     1 Q3B         1

