### 
### Created by X-TOOL on Mon Sep 10 21:13:24 2018
### 

@<TRIPOS>MOLECULE
5alj_ligand
   36    38     1     0     0
SMALL
GAST_HUCK


@<TRIPOS>ATOM
      1 C1         19.4420   -7.9850  -13.2090 C.3       1 T5J        -0.0356
      2 C2         18.5530   -8.8590  -14.0300 C.ar      1 T5J        -0.0234
      3 C3         17.5980   -8.2830  -14.8450 C.ar      1 T5J        -0.0713
      4 C4         16.7700   -9.0880  -15.6030 C.ar      1 T5J        -0.0487
      5 C5         16.8820  -10.4710  -15.5750 C.ar      1 T5J         0.0544
      6 C6         17.8320  -11.0440  -14.7520 C.ar      1 T5J        -0.0114
      7 C7         18.6620  -10.2400  -13.9920 C.ar      1 T5J         0.1241
      8 F8         19.5770  -10.8350  -13.2000 F         1 T5J        -0.1919
      9 N9         16.0490  -11.3240  -16.3170 N.pl3     1 T5J        -0.2650
     10 C10        15.4560  -11.0460  -17.5620 C.ar      1 T5J         0.1134
     11 C11        14.9340  -12.1090  -18.2740 C.ar      1 T5J        -0.0102
     12 C12        14.3360  -11.8940  -19.4990 C.ar      1 T5J        -0.0214
     13 C13        14.2710  -10.5880  -19.9970 C.ar      1 T5J         0.0367
     14 C14        14.8170   -9.5690  -19.2170 C.ar      1 T5J         0.0127
     15 N15        15.3770   -9.7910  -18.0210 N.ar      1 T5J        -0.3058
     16 C16        14.7930   -8.2670  -19.6870 C.ar      1 T5J        -0.0641
     17 C17        14.2380   -7.9260  -20.8990 C.ar      1 T5J        -0.0749
     18 C18        13.6740   -8.9190  -21.6670 C.ar      1 T5J        -0.0342
     19 C19        13.7020  -10.2220  -21.2100 C.ar      1 T5J         0.1028
     20 O20        13.1380  -11.1520  -22.0420 O.3       1 T5J        -0.3267
     21 C21        13.7930  -13.1190  -20.1670 C.3       1 T5J        -0.0225
     22 H1         19.1872   -6.9302  -13.3894 H         1 T5J         0.0362
     23 H2         20.4908   -8.1620  -13.4896 H         1 T5J         0.0362
     24 H3         19.3031   -8.2187  -12.1431 H         1 T5J         0.0362
     25 H4         17.4988   -7.2045  -14.8895 H         1 T5J         0.0519
     26 H5         16.0165   -8.6296  -16.2333 H         1 T5J         0.0486
     27 H6         17.9269  -12.1227  -14.7019 H         1 T5J         0.0504
     28 H7         15.8519  -12.2483  -15.9075 H         1 T5J         0.2127
     29 H8         14.9943  -13.1130  -17.8698 H         1 T5J         0.0528
     30 H9         15.2288   -7.4850  -19.0758 H         1 T5J         0.0466
     31 H10        14.2449   -6.8975  -21.2415 H         1 T5J         0.0601
     32 H11        13.2134   -8.6813  -22.6191 H         1 T5J         0.0480
     33 H12        13.2046  -12.0124  -21.6448 H         1 T5J         0.2526
     34 H13        13.9930  -13.9989  -19.5378 H         1 T5J         0.0436
     35 H14        14.2793  -13.2494  -21.1450 H         1 T5J         0.0436
     36 H15        12.7078  -13.0088  -20.3088 H         1 T5J         0.0436
@<TRIPOS>BOND
     1    1    2 1  
     2    2    3 ar 
     3    2    7 ar 
     4    3    4 ar 
     5    4    5 ar 
     6    5    6 ar 
     7    5    9 1  
     8    6    7 ar 
     9    7    8 1  
    10    9   10 1  
    11   10   11 ar 
    12   10   15 ar 
    13   11   12 ar 
    14   12   13 ar 
    15   12   21 1  
    16   13   14 ar 
    17   13   19 ar 
    18   14   15 ar 
    19   14   16 ar 
    20   16   17 ar 
    21   17   18 ar 
    22   18   19 ar 
    23   19   20 1  
    24    1   22 1  
    25    1   23 1  
    26    1   24 1  
    27    3   25 1  
    28    4   26 1  
    29    6   27 1  
    30    9   28 1  
    31   11   29 1  
    32   16   30 1  
    33   17   31 1  
    34   18   32 1  
    35   20   33 1  
    36   21   34 1  
    37   21   35 1  
    38   21   36 1  
@<TRIPOS>SUBSTRUCTURE
     1 T5J         1

