### 
### Created by X-TOOL on Mon Sep 10 21:13:24 2018
### 

@<TRIPOS>MOLECULE
5alk_ligand
   42    44     1     0     0
SMALL
GAST_HUCK


@<TRIPOS>ATOM
      1 C8         16.0250   10.2830   12.2330 C.ar      1 WMR         0.0905
      2 C7         17.3720    9.8670   11.9050 C.ar      1 WMR        -0.0031
      3 C6         17.6930    9.5640   10.4400 C.ar      1 WMR        -0.0008
      4 C5         16.5620    9.7090    9.5160 C.ar      1 WMR         0.0218
      5 C12        15.0720   10.3530   11.1750 C.ar      1 WMR        -0.0013
      6 C9         15.2860   10.7090   13.4140 C.2       1 WMR         0.2370
      7 C15        18.4480    9.7560   13.0020 C.3       1 WMR        -0.0002
      8 C18        19.1400    9.1270    9.9850 C.3       1 WMR         0.0292
      9 C16        19.8390    9.3160   12.6020 C.3       1 WMR         0.0230
     10 C19        20.5850   10.5770   12.2880 C.3       1 WMR        -0.0486
     11 C20        20.4510    8.7130   13.8100 C.3       1 WMR        -0.0486
     12 C1         15.5710    6.8890    5.8670 C.3       1 WMR        -0.0651
     13 C4         16.8640    9.4320    8.1110 C.3       1 WMR        -0.0081
     14 C2         16.5610    7.8810    6.4110 C.3       1 WMR        -0.0540
     15 C3         15.8110    8.7320    7.3670 C.3       1 WMR        -0.0426
     16 N13        15.2430   10.0770    9.9040 N.ar      1 WMR        -0.3202
     17 N10        14.0000   11.0250   13.0010 N.pl3     1 WMR        -0.2553
     18 N11        13.9120   10.8100   11.6540 N.2       1 WMR        -0.4326
     19 N14        15.8380   10.8080   14.6480 N.pl3     1 WMR        -0.2618
     20 S17        19.8470    7.9880   11.2340 S.3       1 WMR        -0.1399
     21 H1         18.0802    9.0349   13.7468 H         1 WMR         0.0448
     22 H2         18.5418   10.7483   13.4674 H         1 WMR         0.0448
     23 H3         19.7810   10.0162    9.8936 H         1 WMR         0.0523
     24 H4         19.0811    8.6159    9.0128 H         1 WMR         0.0523
     25 H5         21.6136   10.3292   11.9871 H         1 WMR         0.0245
     26 H6         20.6089   11.2207   13.1797 H         1 WMR         0.0245
     27 H7         20.0803   11.1068   11.4667 H         1 WMR         0.0245
     28 H8         19.9213    7.7830   14.0640 H         1 WMR         0.0245
     29 H9         20.3760    9.4188   14.6503 H         1 WMR         0.0245
     30 H10        21.5097    8.4896   13.6121 H         1 WMR         0.0245
     31 H11        16.0738    6.2262    5.1473 H         1 WMR         0.0230
     32 H12        14.7539    7.4254    5.3625 H         1 WMR         0.0230
     33 H13        15.1610    6.2894    6.6931 H         1 WMR         0.0230
     34 H14        17.7732    8.8139    8.0748 H         1 WMR         0.0438
     35 H15        17.0532   10.3922    7.6089 H         1 WMR         0.0438
     36 H16        16.9730    8.4946    5.5963 H         1 WMR         0.0264
     37 H17        17.3801    7.3586    6.9269 H         1 WMR         0.0264
     38 H18        15.1665    9.4464    6.8338 H         1 WMR         0.0288
     39 H19        15.1971    8.1169    8.0414 H         1 WMR         0.0288
     40 H20        13.2396   11.3644   13.6072 H         1 WMR         0.2537
     41 H21        16.8185   10.5303   14.7973 H         1 WMR         0.2096
     42 H22        15.2769   11.1609   15.4364 H         1 WMR         0.2096
@<TRIPOS>BOND
     1    2    1 ar 
     2    5    1 ar 
     3    1    6 2  
     4    3    2 ar 
     5    2    7 1  
     6    4    3 ar 
     7    3    8 1  
     8   13    4 1  
     9    4   16 ar 
    10   16    5 ar 
    11    5   18 2  
    12    6   17 1  
    13    6   19 1  
    14    7    9 1  
    15    8   20 1  
    16    9   10 1  
    17    9   11 1  
    18   20    9 1  
    19   14   12 1  
    20   15   13 1  
    21   14   15 1  
    22   17   18 1  
    23    7   21 1  
    24    7   22 1  
    25    8   23 1  
    26    8   24 1  
    27   10   25 1  
    28   10   26 1  
    29   10   27 1  
    30   11   28 1  
    31   11   29 1  
    32   11   30 1  
    33   12   31 1  
    34   12   32 1  
    35   12   33 1  
    36   13   34 1  
    37   13   35 1  
    38   14   36 1  
    39   14   37 1  
    40   15   38 1  
    41   15   39 1  
    42   17   40 1  
    43   19   41 1  
    44   19   42 1  
@<TRIPOS>SUBSTRUCTURE
     1 WMR         1

