### 
### Created by X-TOOL on Mon Sep 10 21:13:25 2018
### 

@<TRIPOS>MOLECULE
5all_ligand
   31    31     1     0     0
SMALL
GAST_HUCK


@<TRIPOS>ATOM
      1 C1         19.0250    9.5450   13.6920 C.3       1 II6        -0.0428
      2 C2         18.5150    8.8100   11.3360 C.3       1 II6        -0.0455
      3 C3         17.0950   10.5460   12.4530 C.3       1 II6        -0.0405
      4 C4         19.5960    9.0160   12.3840 C.3       1 II6        -0.0431
      5 C5         18.2260   10.8020   13.4300 C.3       1 II6        -0.0003
      6 C6         17.6950   10.0800   11.1410 C.3       1 II6        -0.0171
      7 C7         20.2800    7.7030   12.6430 C.3       1 II6        -0.0624
      8 C8         17.8550   11.5580   14.6910 C.3       1 II6        -0.0325
      9 C9         16.5970    9.8590   10.1350 C.3       1 II6         0.0470
     10 N10        16.7110   10.9970   15.3940 N.4       1 II6         0.2187
     11 O11        17.1740    9.5880    8.8700 O.3       1 II6        -0.3947
     12 H1         19.8487    9.7734   14.3843 H         1 II6         0.0272
     13 H2         18.3704    8.7827   14.1397 H         1 II6         0.0272
     14 H3         17.8484    7.9978   11.6614 H         1 II6         0.0271
     15 H4         18.9872    8.5364   10.3809 H         1 II6         0.0271
     16 H5         16.5250   11.4731   12.2927 H         1 II6         0.0273
     17 H6         16.4267    9.7692   12.8530 H         1 II6         0.0273
     18 H7         20.3295    9.7399   11.9993 H         1 II6         0.0298
     19 H8         18.9119   11.4769   12.8971 H         1 II6         0.0353
     20 H9         18.3632   10.8676   10.7628 H         1 II6         0.0323
     21 H10        21.0650    7.8418   13.4010 H         1 II6         0.0232
     22 H11        20.7320    7.3347   11.7102 H         1 II6         0.0232
     23 H12        19.5437    6.9715   13.0074 H         1 II6         0.0232
     24 H13        17.6187   12.5966   14.4165 H         1 II6         0.0816
     25 H14        18.7201   11.5460   15.3703 H         1 II6         0.0816
     26 H15        15.9714   10.7613   10.0686 H         1 II6         0.0560
     27 H16        15.9775    9.0054   10.4476 H         1 II6         0.0560
     28 H17        16.5208   11.5457   16.2179 H         1 II6         0.1994
     29 H18        16.9145   10.0470   15.6626 H         1 II6         0.1994
     30 H19        15.9052   11.0097   14.7885 H         1 II6         0.1994
     31 H20        16.4842    9.4479    8.2320 H         1 II6         0.2094
@<TRIPOS>BOND
     1    1    4 1  
     2    1    5 1  
     3    4    2 1  
     4    2    6 1  
     5    5    3 1  
     6    3    6 1  
     7    4    7 1  
     8    5    8 1  
     9    6    9 1  
    10    8   10 1  
    11    9   11 1  
    12    1   12 1  
    13    1   13 1  
    14    2   14 1  
    15    2   15 1  
    16    3   16 1  
    17    3   17 1  
    18    4   18 1  
    19    5   19 1  
    20    6   20 1  
    21    7   21 1  
    22    7   22 1  
    23    7   23 1  
    24    8   24 1  
    25    8   25 1  
    26    9   26 1  
    27    9   27 1  
    28   10   28 1  
    29   10   29 1  
    30   10   30 1  
    31   11   31 1  
@<TRIPOS>SUBSTRUCTURE
     1 II6         1

