### 
### Created by X-TOOL on Mon Sep 10 21:13:25 2018
### 

@<TRIPOS>MOLECULE
5alm_ligand
   43    45     1     0     0
SMALL
GAST_HUCK


@<TRIPOS>ATOM
      1 C13        13.0120   10.0570   19.5840 C.ar      1 7GM        -0.0388
      2 C17        14.3350   10.9620   21.3580 C.ar      1 7GM        -0.0388
      3 C14        11.9190    9.9910   20.4180 C.ar      1 7GM        -0.0583
      4 C16        13.2390   10.8950   22.1950 C.ar      1 7GM        -0.0583
      5 C12        14.2170   10.5620   20.0430 C.ar      1 7GM         0.0851
      6 C15        12.0320   10.4120   21.7250 C.ar      1 7GM         0.0040
      7 C9         18.9030   10.9850   13.1130 C.3       1 7GM        -0.0450
      8 C10        17.4660   10.7140   12.8010 C.3       1 7GM        -0.0450
      9 C3         14.4620   10.7880   16.9320 C.3       1 7GM         0.0255
     10 C4         15.3820   10.6340   15.7550 C.3       1 7GM        -0.0286
     11 C6         16.6690   11.4930   17.4580 C.3       1 7GM         0.0020
     12 C8         18.0110   10.3920   14.1640 C.3       1 7GM        -0.0007
     13 C2         15.2680   11.4480   18.0330 C.3       1 7GM         0.1317
     14 C1         14.7610   12.8560   18.3050 C.3       1 7GM        -0.0264
     15 C19        10.9890    8.6900   23.4810 C.3       1 7GM        -0.0064
     16 C7         17.6170   11.2590   15.3150 C.3       1 7GM        -0.0289
     17 N5         16.7370   10.6120   16.2890 N.4       1 7GM         0.2378
     18 O11        15.3570   10.6380   19.2310 O.3       1 7GM        -0.3108
     19 S18        10.6130   10.3100   22.7740 S.3       1 7GM        -0.1134
     20 H1         12.9289    9.7110   18.5601 H         1 7GM         0.0526
     21 H2         15.2843   11.3274   21.7326 H         1 7GM         0.0526
     22 H3         10.9740    9.6097   20.0483 H         1 7GM         0.0538
     23 H4         13.3253   11.2224   23.2248 H         1 7GM         0.0538
     24 H5         19.2573   12.0215   13.2141 H         1 7GM         0.0270
     25 H6         19.6906   10.3717   12.6510 H         1 7GM         0.0270
     26 H7         17.1972    9.9012   12.1103 H         1 7GM         0.0270
     27 H8         16.7638   11.5510   12.6734 H         1 7GM         0.0270
     28 H9         14.1031    9.8026   17.2639 H         1 7GM         0.0350
     29 H10        13.6027   11.4191   16.6612 H         1 7GM         0.0350
     30 H11        15.2598   11.4809   15.0638 H         1 7GM         0.0815
     31 H12        15.1671    9.6943   15.2252 H         1 7GM         0.0815
     32 H13        17.3895   11.1540   18.2169 H         1 7GM         0.0847
     33 H14        16.9106   12.5231   17.1572 H         1 7GM         0.0847
     34 H15        18.1336    9.3486   14.4901 H         1 7GM         0.0352
     35 H16        13.7442   12.8055   18.7215 H         1 7GM         0.0263
     36 H17        14.7443   13.4276   17.3654 H         1 7GM         0.0263
     37 H18        15.4278   13.3532   19.0249 H         1 7GM         0.0263
     38 H19        10.2016    8.4105   24.1964 H         1 7GM         0.0363
     39 H20        11.9578    8.7324   24.0002 H         1 7GM         0.0363
     40 H21        11.0364    7.9410   22.6768 H         1 7GM         0.0363
     41 H22        17.0976   12.1432   14.9171 H         1 7GM         0.0817
     42 H23        18.5326   11.5752   15.8362 H         1 7GM         0.0817
     43 H24        17.0481    9.6811   16.5186 H         1 7GM         0.2035
@<TRIPOS>BOND
     1    1    3 ar 
     2    5    1 ar 
     3    2    4 ar 
     4    5    2 ar 
     5    3    6 ar 
     6    4    6 ar 
     7   18    5 1  
     8    6   19 1  
     9    8    7 1  
    10   12    7 1  
    11   12    8 1  
    12   10    9 1  
    13   13    9 1  
    14   17   10 1  
    15   11   13 1  
    16   17   11 1  
    17   16   12 1  
    18   13   14 1  
    19   13   18 1  
    20   19   15 1  
    21   16   17 1  
    22    1   20 1  
    23    2   21 1  
    24    3   22 1  
    25    4   23 1  
    26    7   24 1  
    27    7   25 1  
    28    8   26 1  
    29    8   27 1  
    30    9   28 1  
    31    9   29 1  
    32   10   30 1  
    33   10   31 1  
    34   11   32 1  
    35   11   33 1  
    36   12   34 1  
    37   14   35 1  
    38   14   36 1  
    39   14   37 1  
    40   15   38 1  
    41   15   39 1  
    42   15   40 1  
    43   16   41 1  
    44   16   42 1  
    45   17   43 1  
@<TRIPOS>SUBSTRUCTURE
     1 7GM         1

