### 
### Created by X-TOOL on Mon Sep 10 21:13:23 2018
### 

@<TRIPOS>MOLECULE
5aln_ligand
   33    35     1     0     0
SMALL
GAST_HUCK


@<TRIPOS>ATOM
      1 C1         15.6860    9.3940    7.1450 C.3       1 5ZM        -0.0879
      2 C2         15.0370    8.7520    8.2500 C.3       1 5ZM         0.0285
      3 C3         15.7280    8.9860    9.5110 C.ar      1 5ZM        -0.0271
      4 C4         17.1080    8.7770    9.9400 C.ar      1 5ZM        -0.0482
      5 C5         17.4630    9.1240   11.3170 C.ar      1 5ZM        -0.0063
      6 C6         16.4840    9.6590   12.1850 C.ar      1 5ZM        -0.0384
      7 C7         15.1520    9.8750   11.7780 C.ar      1 5ZM        -0.0071
      8 C8         14.7880    9.5270   10.4370 C.ar      1 5ZM         0.0958
      9 N9         13.5690    9.6660    9.8580 N.am      1 5ZM        -0.2188
     10 C10        13.6060    9.2150    8.5140 C.2       1 5ZM         0.2090
     11 O11        12.7060    9.1810    7.6900 O.2       1 5ZM        -0.3196
     12 C12        18.7220    8.9320   11.7440 C.ar      1 5ZM        -0.0226
     13 C13        19.3590    7.5330   11.4040 C.ar      1 5ZM        -0.0575
     14 C14        20.6640    7.3420   11.8350 C.ar      1 5ZM        -0.0288
     15 C15        21.3710    8.3510   12.5470 C.ar      1 5ZM         0.1316
     16 C16        20.7920    9.6620   12.8580 C.ar      1 5ZM        -0.0288
     17 C17        19.4770    9.9750   12.4830 C.ar      1 5ZM        -0.0575
     18 F18        22.6830    7.9940   12.9160 F         1 5ZM        -0.1839
     19 C19        14.7580    7.2010    8.2200 C.3       1 5ZM        -0.0879
     20 H1         16.7055    8.9953    7.0365 H         1 5ZM         0.0091
     21 H2         15.7336   10.4778    7.3270 H         1 5ZM         0.0091
     22 H3         15.1171    9.2016    6.2234 H         1 5ZM         0.0091
     23 H4         17.8489    8.3761    9.2578 H         1 5ZM         0.0766
     24 H5         16.7679    9.9122   13.2001 H         1 5ZM         0.0814
     25 H6         14.4223   10.2934   12.4617 H         1 5ZM         0.0601
     26 H7         12.7590   10.0343   10.3144 H         1 5ZM         0.2420
     27 H8         18.8121    6.7667   10.8666 H         1 5ZM         0.0601
     28 H9         21.1575    6.4002   11.6240 H         1 5ZM         0.0602
     29 H10        21.3879   10.3987   13.3845 H         1 5ZM         0.0602
     30 H11        19.0325   10.9344   12.7219 H         1 5ZM         0.0601
     31 H12        14.2563    6.9006    9.1517 H         1 5ZM         0.0091
     32 H13        15.7104    6.6589    8.1252 H         1 5ZM         0.0091
     33 H14        14.1125    6.9611    7.3623 H         1 5ZM         0.0091
@<TRIPOS>BOND
     1    1    2 1  
     2    2    3 1  
     3    2   10 1  
     4    2   19 1  
     5    3    4 ar 
     6    3    8 ar 
     7    4    5 ar 
     8    5    6 ar 
     9    5   12 1  
    10    6    7 ar 
    11    7    8 ar 
    12    8    9 1  
    13    9   10 am 
    14   10   11 2  
    15   12   13 ar 
    16   12   17 ar 
    17   13   14 ar 
    18   14   15 ar 
    19   15   16 ar 
    20   15   18 1  
    21   16   17 ar 
    22    1   20 1  
    23    1   21 1  
    24    1   22 1  
    25    4   23 1  
    26    6   24 1  
    27    7   25 1  
    28    9   26 1  
    29   13   27 1  
    30   14   28 1  
    31   16   29 1  
    32   17   30 1  
    33   19   31 1  
    34   19   32 1  
    35   19   33 1  
@<TRIPOS>SUBSTRUCTURE
     1 5ZM         1

