### 
### Created by X-TOOL on Mon Sep 10 21:13:24 2018
### 

@<TRIPOS>MOLECULE
5alo_ligand
   43    46     1     0     0
SMALL
GAST_HUCK


@<TRIPOS>ATOM
      1 C1        -12.8740  -11.7920   26.0740 C.3       1 A0J        -0.0872
      2 C2        -13.0510  -10.2900   26.2740 C.3       1 A0J         0.0375
      3 C3        -12.5970   -9.5270   25.0620 C.ar      1 A0J        -0.0315
      4 C4        -11.3230   -9.2760   24.5790 C.ar      1 A0J        -0.0569
      5 C5        -11.1800   -8.5260   23.4210 C.ar      1 A0J        -0.0209
      6 C6        -12.2970   -8.0630   22.7420 C.ar      1 A0J        -0.0433
      7 C7        -13.5720   -8.2950   23.2220 C.ar      1 A0J        -0.0091
      8 C8        -13.6780   -9.0260   24.3850 C.ar      1 A0J         0.0935
      9 N9        -14.8480   -9.3800   25.0390 N.am      1 A0J        -0.2199
     10 C10       -14.5420  -10.0490   26.2120 C.2       1 A0J         0.2094
     11 O11       -15.3430  -10.4080   27.0600 O.2       1 A0J        -0.3196
     12 C12        -9.8640   -8.1960   22.9290 C.2       1 A0J         0.0001
     13 C13        -9.4170   -7.8930   21.6180 C.2       1 A0J         0.0047
     14 N14        -8.1070   -7.6220   21.5800 N.2       1 A0J        -0.2147
     15 N15        -7.7280   -7.7510   22.8630 N.pl3     1 A0J        -0.2076
     16 C16        -8.7390   -8.0860   23.7190 C.2       1 A0J         0.0609
     17 C17        -6.3440   -7.5290   23.2290 C.3       1 A0J         0.0608
     18 C18       -12.5520   -9.7540   27.6260 C.3       1 A0J        -0.0429
     19 C19       -11.0790   -9.9000   27.8600 C.ar      1 A0J        -0.0549
     20 C20       -10.5380  -11.0830   28.3350 C.ar      1 A0J        -0.0615
     21 C21        -9.1780  -11.1960   28.5330 C.ar      1 A0J        -0.0686
     22 C22        -8.3620  -10.1200   28.2630 C.ar      1 A0J        -0.0687
     23 C23        -8.8820   -8.9280   27.8120 C.ar      1 A0J        -0.0686
     24 C24       -10.2410   -8.8270   27.6140 C.ar      1 A0J        -0.0615
     25 H1        -11.8035  -12.0427   26.1076 H         1 A0J         0.0089
     26 H2        -13.2883  -12.0832   25.0975 H         1 A0J         0.0089
     27 H3        -13.4025  -12.3331   26.8727 H         1 A0J         0.0089
     28 H4        -10.4519   -9.6596   25.0978 H         1 A0J         0.0697
     29 H5        -12.1678   -7.5096   21.8189 H         1 A0J         0.0793
     30 H6        -14.4486   -7.9190   22.7070 H         1 A0J         0.0598
     31 H7        -15.7725   -9.1822   24.7131 H         1 A0J         0.2415
     32 H8        -10.0650   -7.8821   20.7428 H         1 A0J         0.0668
     33 H9         -8.6709   -8.2345   24.7957 H         1 A0J         0.1012
     34 H10        -6.2227   -7.6782   24.3121 H         1 A0J         0.0606
     35 H11        -6.0556   -6.5006   22.9660 H         1 A0J         0.0606
     36 H12        -5.7028   -8.2397   22.6869 H         1 A0J         0.0606
     37 H13       -13.0798  -10.2966   28.4241 H         1 A0J         0.0284
     38 H14       -12.8021   -8.6843   27.6824 H         1 A0J         0.0284
     39 H15       -11.1866  -11.9240   28.5522 H         1 A0J         0.0556
     40 H16        -8.7545  -12.1246   28.8983 H         1 A0J         0.0599
     41 H17        -7.2918  -10.2134   28.4081 H         1 A0J         0.0559
     42 H18        -8.2324   -8.0827   27.6159 H         1 A0J         0.0599
     43 H19       -10.6607   -7.8924   27.2599 H         1 A0J         0.0556
@<TRIPOS>BOND
     1    1    2 1  
     2    2    3 1  
     3    2   10 1  
     4    2   18 1  
     5    3    4 ar 
     6    3    8 ar 
     7    4    5 ar 
     8    5    6 ar 
     9    5   12 1  
    10    6    7 ar 
    11    7    8 ar 
    12    8    9 1  
    13    9   10 am 
    14   10   11 2  
    15   12   13 1  
    16   12   16 2  
    17   13   14 2  
    18   14   15 1  
    19   15   16 1  
    20   15   17 1  
    21   18   19 1  
    22   19   20 ar 
    23   19   24 ar 
    24   20   21 ar 
    25   21   22 ar 
    26   22   23 ar 
    27   23   24 ar 
    28    1   25 1  
    29    1   26 1  
    30    1   27 1  
    31    4   28 1  
    32    6   29 1  
    33    7   30 1  
    34    9   31 1  
    35   13   32 1  
    36   16   33 1  
    37   17   34 1  
    38   17   35 1  
    39   17   36 1  
    40   18   37 1  
    41   18   38 1  
    42   20   39 1  
    43   21   40 1  
    44   22   41 1  
    45   23   42 1  
    46   24   43 1  
@<TRIPOS>SUBSTRUCTURE
     1 A0J         1

