### 
### Created by X-TOOL on Mon Sep 10 21:13:23 2018
### 

@<TRIPOS>MOLECULE
5alp_ligand
   41    43     1     0     0
SMALL
GAST_HUCK


@<TRIPOS>ATOM
      1 C1         11.8780   -8.7430  -22.4980 C.ar      1 QYD        -0.0687
      2 C2         12.9390   -9.4750  -22.9950 C.ar      1 QYD        -0.0685
      3 C3         13.6680  -10.2840  -22.1380 C.ar      1 QYD        -0.0592
      4 C4         13.3520  -10.3600  -20.8050 C.ar      1 QYD        -0.0282
      5 C5         12.2900   -9.6310  -20.3320 C.ar      1 QYD        -0.0592
      6 C6         11.5370   -8.8070  -21.1500 C.ar      1 QYD        -0.0685
      7 C7         14.1640  -11.2500  -19.9370 C.3       1 QYD         0.0591
      8 C8         14.6240  -10.5330  -18.6910 C.3       1 QYD         0.0598
      9 N9         15.3540  -11.3760  -17.7440 N.am      1 QYD        -0.2150
     10 C10        15.5300  -12.7710  -18.0850 C.3       1 QYD         0.0478
     11 C11        14.2490  -13.5440  -18.1950 C.3       1 QYD         0.0165
     12 S12        13.2290  -12.7360  -19.4760 S.3       1 QYD        -0.1396
     13 C13        16.1520  -10.7600  -16.7920 C.2       1 QYD         0.4573
     14 O14        16.6210   -9.6480  -17.0170 O.2       1 QYD        -0.2941
     15 N15        16.3320  -11.4410  -15.6010 N.am      1 QYD        -0.0688
     16 C16        17.2820  -11.0010  -14.6650 C.ar      1 QYD         0.3157
     17 C17        18.1710  -11.9150  -14.1610 C.ar      1 QYD         0.1242
     18 C18        19.0900  -11.5090  -13.2070 C.ar      1 QYD         0.0811
     19 C19        19.0730  -10.1880  -12.8160 C.ar      1 QYD         0.1877
     20 C20        18.1680   -9.2680  -13.2950 C.ar      1 QYD         0.0811
     21 C21        17.2450   -9.6950  -14.2380 C.ar      1 QYD         0.1242
     22 N22        20.0400   -9.7480  -11.8270 N.2       1 QYD        -0.1365
     23 O23        20.7990  -10.6300  -11.3900 O.2       1 QYD        -0.4479
     24 O24        19.9790   -8.5670  -11.4620 O.2       1 QYD        -0.4479
     25 H1         11.3040   -8.1110  -23.1660 H         1 QYD         0.0559
     26 H2         13.1989   -9.4171  -24.0458 H         1 QYD         0.0599
     27 H3         14.4979  -10.8638  -22.5255 H         1 QYD         0.0557
     28 H4         12.0321   -9.7030  -19.2816 H         1 QYD         0.0557
     29 H5         10.7089   -8.2304  -20.7540 H         1 QYD         0.0599
     30 H6         15.0531  -11.5615  -20.5048 H         1 QYD         0.0594
     31 H7         13.7380  -10.1286  -18.1797 H         1 QYD         0.0555
     32 H8         15.2824   -9.7054  -18.9934 H         1 QYD         0.0555
     33 H9         16.1504  -13.2405  -17.3074 H         1 QYD         0.0530
     34 H10        16.0504  -12.8266  -19.0525 H         1 QYD         0.0530
     35 H11        13.7195  -13.5327  -17.2309 H         1 QYD         0.0398
     36 H12        14.4614  -14.5837  -18.4846 H         1 QYD         0.0398
     37 H13        15.7815  -12.2526  -15.4053 H         1 QYD         0.4316
     38 H14        18.1550  -12.9429  -14.5048 H         1 QYD         0.1345
     39 H15        19.8002  -12.2088  -12.7815 H         1 QYD         0.1019
     40 H16        18.1765   -8.2417  -12.9460 H         1 QYD         0.1019
     41 H17        16.5048   -9.0084  -14.6327 H         1 QYD         0.1345
@<TRIPOS>BOND
     1    1    2 ar 
     2    1    6 ar 
     3    2    3 ar 
     4    3    4 ar 
     5    4    5 ar 
     6    4    7 1  
     7    5    6 ar 
     8    7    8 1  
     9    7   12 1  
    10    8    9 1  
    11    9   10 1  
    12    9   13 am 
    13   10   11 1  
    14   11   12 1  
    15   13   14 2  
    16   13   15 am 
    17   15   16 1  
    18   16   17 ar 
    19   16   21 ar 
    20   17   18 ar 
    21   18   19 ar 
    22   19   20 ar 
    23   19   22 1  
    24   20   21 ar 
    25   22   23 2  
    26   22   24 2  
    27    1   25 1  
    28    2   26 1  
    29    3   27 1  
    30    5   28 1  
    31    6   29 1  
    32    7   30 1  
    33    8   31 1  
    34    8   32 1  
    35   10   33 1  
    36   10   34 1  
    37   11   35 1  
    38   11   36 1  
    39   15   37 1  
    40   17   38 1  
    41   18   39 1  
    42   20   40 1  
    43   21   41 1  
@<TRIPOS>SUBSTRUCTURE
     1 QYD         1

