### 
### Created by X-TOOL on Mon Sep 10 21:13:24 2018
### 

@<TRIPOS>MOLECULE
5alr_ligand
   32    34     1     0     0
SMALL
GAST_HUCK


@<TRIPOS>ATOM
      1 C1        -13.9720  -13.5910   19.2640 C.ar      1 8TM        -0.0547
      2 C2        -13.5040  -12.9710   20.4020 C.ar      1 8TM        -0.0557
      3 C3        -14.6810  -12.8660   18.3330 C.ar      1 8TM        -0.0400
      4 C4        -13.7460  -11.6280   20.5950 C.ar      1 8TM        -0.0402
      5 C5        -16.6450   -9.4940   14.9730 C.ar      1 8TM        -0.0420
      6 C6        -17.7860  -11.5540   14.6930 C.ar      1 8TM        -0.0420
      7 C7        -17.3440   -8.9500   13.9150 C.ar      1 8TM        -0.0577
      8 C8        -18.5030  -11.0150   13.6450 C.ar      1 8TM        -0.0577
      9 C9        -15.3280   -8.9460   18.9160 C.ar      1 8TM         0.0609
     10 C10       -14.9220  -11.5200   18.5250 C.ar      1 8TM         0.0578
     11 C11       -14.4450  -10.8800   19.6650 C.ar      1 8TM         0.0447
     12 C12       -16.8500  -10.8000   15.3780 C.ar      1 8TM         0.0627
     13 C13       -18.2810   -9.7110   13.2490 C.ar      1 8TM         0.0131
     14 C14       -15.6230  -10.7700   17.5910 C.ar      1 8TM         0.1616
     15 C15       -20.4340   -8.1260   12.8720 C.3       1 8TM         0.4554
     16 N16       -14.6430   -9.5710   19.8760 N.ar      1 8TM        -0.2935
     17 N17       -15.8370   -9.4660   17.7970 N.ar      1 8TM        -0.2515
     18 N18       -16.1140  -11.3920   16.4230 N.pl3     1 8TM        -0.2487
     19 F19       -21.1160   -7.2600   12.0810 F         1 8TM        -0.1584
     20 F20       -19.9000   -7.3790   13.8780 F         1 8TM        -0.1584
     21 F21       -21.3310   -8.9990   13.4090 F         1 8TM        -0.1584
     22 S22       -19.1900   -9.0080   11.9050 S.3       1 8TM         0.0005
     23 H1        -13.7826  -14.6460   19.1024 H         1 8TM         0.0626
     24 H2        -12.9485  -13.5364   21.1414 H         1 8TM         0.0673
     25 H3        -15.0536  -13.3563   17.4409 H         1 8TM         0.0684
     26 H4        -13.3805  -11.1474   21.4953 H         1 8TM         0.0627
     27 H5        -15.9191   -8.8839   15.4983 H         1 8TM         0.0528
     28 H6        -17.9586  -12.5838   14.9842 H         1 8TM         0.0528
     29 H7        -17.1569   -7.9272   13.6084 H         1 8TM         0.0540
     30 H8        -19.2432  -11.6172   13.1306 H         1 8TM         0.0540
     31 H9        -15.4912   -7.8845   19.0633 H         1 8TM         0.1061
     32 H10       -15.9102  -12.3967   16.3230 H         1 8TM         0.2214
@<TRIPOS>BOND
     1    1    2 ar 
     2    3    1 ar 
     3    4    2 ar 
     4   10    3 ar 
     5   11    4 ar 
     6    7    5 ar 
     7    5   12 ar 
     8    8    6 ar 
     9    6   12 ar 
    10   13    7 ar 
    11   13    8 ar 
    12    9   16 ar 
    13   17    9 ar 
    14   10   11 ar 
    15   14   10 ar 
    16   11   16 ar 
    17   12   18 1  
    18   22   13 1  
    19   14   17 ar 
    20   18   14 1  
    21   15   19 1  
    22   15   20 1  
    23   15   21 1  
    24   15   22 1  
    25    1   23 1  
    26    2   24 1  
    27    3   25 1  
    28    4   26 1  
    29    5   27 1  
    30    6   28 1  
    31    7   29 1  
    32    8   30 1  
    33    9   31 1  
    34   18   32 1  
@<TRIPOS>SUBSTRUCTURE
     1 8TM         1

