### 
### Created by X-TOOL on Mon Sep 10 21:13:24 2018
### 

@<TRIPOS>MOLECULE
5als_ligand
   43    46     1     0     0
SMALL
GAST_HUCK


@<TRIPOS>ATOM
      1 C1         17.5990    9.4380   14.8840 C.ar      1 5DQ        -0.0170
      2 C5         18.1770   11.8090   14.6940 C.ar      1 5DQ        -0.0170
      3 C2         18.4400    9.0010   13.9030 C.ar      1 5DQ        -0.0302
      4 C4         19.0820   11.5220   13.6570 C.ar      1 5DQ        -0.0302
      5 C13        14.1300   11.9280   20.2900 C.ar      1 5DQ        -0.0162
      6 C14        14.1410   13.2310   19.6320 C.ar      1 5DQ        -0.0002
      7 C6         17.3820   10.8060   15.3470 C.ar      1 5DQ         0.0632
      8 C3         19.2180   10.0880   13.2520 C.ar      1 5DQ         0.0446
      9 C10        15.5290   11.1120   18.2490 C.ar      1 5DQ         0.1417
     10 C12        14.8480   10.7780   19.5850 C.ar      1 5DQ         0.1535
     11 C9         15.3950   12.4330   17.8350 C.ar      1 5DQ         0.1147
     12 C7         16.5700   11.1930   16.4040 C.2       1 5DQ         0.1688
     13 C22        10.3070    8.5510   19.0380 C.3       1 5DQ        -0.0331
     14 C23        10.5550    8.5360   17.5510 C.2       1 5DQ        -0.0967
     15 C21        11.3270    9.3480   19.7850 C.3       1 5DQ        -0.0199
     16 C24        11.9540    8.7150   17.4370 C.2       1 5DQ        -0.0773
     17 C20        12.4330    9.2680   18.7840 C.3       1 5DQ         0.0563
     18 C25        20.1720    9.7870   12.1620 C.3       1 5DQ         0.3718
     19 N15        14.7310   13.5230   18.4330 N.ar      1 5DQ        -0.2978
     20 N11        16.2830   10.4430   17.2780 N.pl3     1 5DQ        -0.2343
     21 N8         16.0620   12.3240   16.7350 N.2       1 5DQ        -0.2686
     22 N19        13.6400    8.5190   19.3590 N.am      1 5DQ        -0.2360
     23 O17        16.0720    8.4480   20.1820 O.2       1 5DQ        -0.1496
     24 O18        14.1760    9.1870   21.6080 O.2       1 5DQ        -0.1496
     25 F26        19.7780    9.6250   10.8930 F         1 5DQ        -0.2261
     26 F27        21.2900   10.4970   12.3110 F         1 5DQ        -0.2261
     27 F28        20.6210    8.6210   12.3210 F         1 5DQ        -0.2261
     28 S16        14.8450    9.1120   20.3820 S.o2      1 5DQ         0.0755
     29 H1         17.0173    8.6719   15.3839 H         1 5DQ         0.0735
     30 H2         18.0739   12.8386   15.0171 H         1 5DQ         0.0735
     31 H3         18.5326    7.9577   13.6238 H         1 5DQ         0.0845
     32 H4         19.6553   12.3042   13.1728 H         1 5DQ         0.0845
     33 H5         13.6319   11.7819   21.2416 H         1 5DQ         0.0670
     34 H6         13.6343   14.0429   20.1411 H         1 5DQ         0.0760
     35 H7         10.3289    7.5157   19.4089 H         1 5DQ         0.0390
     36 H8          9.3143    8.9865   19.2248 H         1 5DQ         0.0390
     37 H9          9.8266    8.4154   16.7505 H         1 5DQ         0.0451
     38 H10        11.5989    8.8818   20.7435 H         1 5DQ         0.0323
     39 H11        10.9991   10.3832   19.9607 H         1 5DQ         0.0323
     40 H12        12.5693    8.5018   16.5641 H         1 5DQ         0.0468
     41 H13        12.7657   10.2991   18.5941 H         1 5DQ         0.0637
     42 H14        16.5490    9.4487   17.3162 H         1 5DQ         0.2349
     43 H15        13.7245    7.5582   19.0951 H         1 5DQ         0.1700
@<TRIPOS>BOND
     1    1    3 ar 
     2    7    1 ar 
     3    2    4 ar 
     4    7    2 ar 
     5    3    8 ar 
     6    4    8 ar 
     7    5    6 ar 
     8   10    5 ar 
     9    6   19 ar 
    10   12    7 1  
    11    8   18 1  
    12   10    9 ar 
    13    9   11 ar 
    14    9   20 1  
    15   28   10 1  
    16   11   19 ar 
    17   11   21 1  
    18   20   12 1  
    19   12   21 2  
    20   14   13 1  
    21   15   13 1  
    22   16   14 2  
    23   17   15 1  
    24   17   16 1  
    25   22   17 1  
    26   18   25 1  
    27   18   26 1  
    28   18   27 1  
    29   22   28 am 
    30   28   23 2  
    31   28   24 2  
    32    1   29 1  
    33    2   30 1  
    34    3   31 1  
    35    4   32 1  
    36    5   33 1  
    37    6   34 1  
    38   13   35 1  
    39   13   36 1  
    40   14   37 1  
    41   15   38 1  
    42   15   39 1  
    43   16   40 1  
    44   17   41 1  
    45   20   42 1  
    46   22   43 1  
@<TRIPOS>SUBSTRUCTURE
     1 5DQ         1

