### 
### Created by X-TOOL on Mon Sep 10 21:13:24 2018
### 

@<TRIPOS>MOLECULE
5alt_ligand
   28    30     1     0     0
SMALL
GAST_HUCK


@<TRIPOS>ATOM
      1 C1         12.7020   11.7760   19.4940 C.2       1 9XZ        -0.0701
      2 C2         12.1660    9.8000   21.6570 C.ar      1 9XZ        -0.0410
      3 C3         13.7190   10.9230   23.0110 C.ar      1 9XZ        -0.0009
      4 C4         13.3020   12.4760   18.4780 C.2       1 9XZ        -0.0068
      5 C5         14.8620   11.9140   20.3160 C.2       1 9XZ         0.0017
      6 C6         13.5880   11.4420   20.5620 C.2       1 9XZ        -0.0327
      7 C7         13.1860   10.7200   21.7510 C.ar      1 9XZ        -0.0182
      8 C8         11.7260    9.1130   22.7730 C.ar      1 9XZ         0.0538
      9 C9         12.3320    9.3840   23.9990 C.ar      1 9XZ         0.1196
     10 C10        10.6820    8.1510   22.5580 C.2       1 9XZ         0.1488
     11 C11         8.8260    5.9880   20.6150 C.3       1 9XZ         0.0866
     12 N12        13.3150   10.2890   24.1170 N.ar      1 9XZ        -0.2860
     13 N13         9.8920    7.6050   23.5420 N.2       1 9XZ        -0.1770
     14 N14        10.4310    7.6590   21.3370 N.2       1 9XZ        -0.1457
     15 N15         9.1010    6.7390   22.9450 N.2       1 9XZ        -0.0507
     16 N16         9.4520    6.8090   21.6470 N.pl3     1 9XZ        -0.0950
     17 N17        11.9280    8.7170   25.1630 N.pl3     1 9XZ        -0.3207
     18 S18        14.9540   12.7340   18.8120 S.3       1 9XZ        -0.0436
     19 H1         11.6483   11.5009   19.4863 H         1 9XZ         0.0408
     20 H2         11.7020    9.6120   20.6955 H         1 9XZ         0.0678
     21 H3         14.5202   11.6466   23.1089 H         1 9XZ         0.0758
     22 H4         12.7920   12.8204   17.5795 H         1 9XZ         0.0721
     23 H5         15.7045   11.7820   20.9932 H         1 9XZ         0.0736
     24 H6          9.2758    6.2206   19.6385 H         1 9XZ         0.0638
     25 H7          7.7472    6.2004   20.5817 H         1 9XZ         0.0638
     26 H8          8.9833    4.9243   20.8471 H         1 9XZ         0.0638
     27 H9         12.3847    8.9274   26.0619 H         1 9XZ         0.1781
     28 H10        11.1743    8.0163   25.1198 H         1 9XZ         0.1781
@<TRIPOS>BOND
     1    1    4 2  
     2    6    1 1  
     3    2    7 ar 
     4    8    2 ar 
     5    7    3 ar 
     6   12    3 ar 
     7   18    4 1  
     8    6    5 2  
     9    5   18 1  
    10    7    6 1  
    11    8    9 ar 
    12   10    8 1  
    13    9   12 ar 
    14    9   17 1  
    15   10   13 1  
    16   14   10 2  
    17   16   11 1  
    18   13   15 2  
    19   14   16 1  
    20   15   16 1  
    21    1   19 1  
    22    2   20 1  
    23    3   21 1  
    24    4   22 1  
    25    5   23 1  
    26   11   24 1  
    27   11   25 1  
    28   11   26 1  
    29   17   27 1  
    30   17   28 1  
@<TRIPOS>SUBSTRUCTURE
     1 9XZ         1

