### 
### Created by X-TOOL on Mon Sep 10 21:13:22 2018
### 

@<TRIPOS>MOLECULE
5alu_ligand
   65    70     1     0     0
SMALL
GAST_HUCK


@<TRIPOS>ATOM
      1 C1        -19.0990  -61.7650  -12.1500 C.ar      1 HD2         0.0265
      2 C2        -19.4790  -61.6200  -10.8330 C.ar      1 HD2         0.0887
      3 C3        -18.6010  -60.9580   -9.9920 C.ar      1 HD2         0.0543
      4 N4        -17.4410  -60.4840  -10.4670 N.ar      1 HD2        -0.2483
      5 C5        -17.1400  -60.6610  -11.7600 C.ar      1 HD2         0.1876
      6 N6        -17.9320  -61.3140  -12.6300 N.ar      1 HD2        -0.2565
      7 N7        -15.8840  -60.1420  -12.1340 N.pl3     1 HD2        -0.2827
      8 C8        -18.8520  -60.7360   -8.5280 C.3       1 HD2         0.0145
      9 C9        -17.6900  -61.1970   -7.6760 C.3       1 HD2        -0.0359
     10 C10       -17.8790  -60.4960   -6.3620 C.3       1 HD2        -0.0502
     11 C11       -18.6580  -59.2470   -6.6760 C.3       1 HD2        -0.0502
     12 C12       -19.0040  -59.2850   -8.1510 C.3       1 HD2        -0.0359
     13 C13       -20.8040  -62.1170  -10.4110 C.2       1 HD2         0.2043
     14 O14       -21.5760  -61.3220   -9.8770 O.2       1 HD2        -0.3897
     15 N15       -21.0640  -63.4460  -10.7160 N.am      1 HD2        -0.2839
     16 C16       -22.3940  -64.0010  -10.4930 C.3       1 HD2         0.0471
     17 C17       -22.3750  -65.1660   -9.5130 C.3       1 HD2        -0.0150
     18 C18       -21.6800  -66.3690  -10.1190 C.3       1 HD2        -0.0451
     19 C19       -22.3800  -66.7590  -11.4140 C.3       1 HD2        -0.0378
     20 C20       -22.3860  -65.6050  -12.4010 C.3       1 HD2        -0.0451
     21 C21       -23.0870  -64.4070  -11.7880 C.3       1 HD2        -0.0150
     22 C22       -24.5320  -64.7710  -11.4490 C.3       1 HD2        -0.0190
     23 C23       -24.5350  -65.9380  -10.4820 C.3       1 HD2         0.0670
     24 C24       -23.8200  -67.1290  -11.1210 C.3       1 HD2        -0.0211
     25 C25       -23.8080  -65.5500   -9.2000 C.3       1 HD2        -0.0190
     26 O26       -25.8890  -66.2320  -10.1730 O.3       1 HD2        -0.3885
     27 C27       -15.6390  -59.9350  -13.5610 C.3       1 HD2         0.0681
     28 C28       -14.9190  -58.6350  -13.7950 C.3       1 HD2        -0.0037
     29 C29       -13.4700  -58.9770  -13.5670 C.3       1 HD2         0.0500
     30 O30       -13.3530  -60.3970  -13.5460 O.3       1 HD2        -0.3774
     31 C31       -14.6010  -60.9460  -13.9570 C.3       1 HD2         0.0711
     32 H1        -19.7768  -62.2681  -12.8302 H         1 HD2         0.0927
     33 H2        -15.1667  -59.9173  -11.4298 H         1 HD2         0.1882
     34 H3        -19.7631  -61.2874   -8.2525 H         1 HD2         0.0527
     35 H4        -16.7333  -60.9081   -8.1356 H         1 HD2         0.0297
     36 H5        -17.7171  -62.2883   -7.5408 H         1 HD2         0.0297
     37 H6        -16.9048  -60.2396   -5.9203 H         1 HD2         0.0267
     38 H7        -18.4416  -61.1338   -5.6643 H         1 HD2         0.0267
     39 H8        -18.0479  -58.3585   -6.4561 H         1 HD2         0.0267
     40 H9        -19.5787  -59.2175   -6.0749 H         1 HD2         0.0267
     41 H10       -20.0364  -58.9443   -8.3186 H         1 HD2         0.0297
     42 H11       -18.3118  -58.6566   -8.7305 H         1 HD2         0.0297
     43 H12       -20.3381  -64.0238  -11.0892 H         1 HD2         0.1844
     44 H13       -22.9990  -63.2027  -10.0384 H         1 HD2         0.0560
     45 H14       -21.8548  -64.8647   -8.5918 H         1 HD2         0.0324
     46 H15       -21.7206  -67.2108   -9.4121 H         1 HD2         0.0271
     47 H16       -20.6301  -66.1182  -10.3306 H         1 HD2         0.0271
     48 H17       -21.8589  -67.6190  -11.8599 H         1 HD2         0.0302
     49 H18       -22.9161  -65.9095  -13.3155 H         1 HD2         0.0271
     50 H19       -21.3499  -65.3331  -12.6510 H         1 HD2         0.0271
     51 H20       -23.0691  -63.5686  -12.4998 H         1 HD2         0.0324
     52 H21       -25.0663  -65.0529  -12.3682 H         1 HD2         0.0296
     53 H22       -25.0305  -63.9070  -10.9853 H         1 HD2         0.0296
     54 H23       -23.8450  -67.9847  -10.4303 H         1 HD2         0.0296
     55 H24       -24.3266  -67.4000  -12.0590 H         1 HD2         0.0296
     56 H25       -24.3209  -64.6954   -8.7347 H         1 HD2         0.0296
     57 H26       -23.8133  -66.4032   -8.5057 H         1 HD2         0.0296
     58 H27       -25.9227  -66.9601   -9.5637 H         1 HD2         0.2102
     59 H28       -16.5673  -60.0109  -14.1462 H         1 HD2         0.0586
     60 H29       -15.2565  -57.8671  -13.0833 H         1 HD2         0.0311
     61 H30       -15.0797  -58.2782  -14.8230 H         1 HD2         0.0311
     62 H31       -13.1344  -58.5602  -12.6060 H         1 HD2         0.0560
     63 H32       -12.8559  -58.5635  -14.3806 H         1 HD2         0.0560
     64 H33       -14.6120  -61.1008  -15.0460 H         1 HD2         0.0583
     65 H34       -14.7848  -61.9039  -13.4485 H         1 HD2         0.0583
@<TRIPOS>BOND
     1    1    2 ar 
     2    1    6 ar 
     3    2    3 ar 
     4    2   13 1  
     5    3    4 ar 
     6    3    8 1  
     7    4    5 ar 
     8    5    6 ar 
     9    5    7 1  
    10    7   27 1  
    11    8    9 1  
    12    8   12 1  
    13    9   10 1  
    14   10   11 1  
    15   11   12 1  
    16   13   14 2  
    17   13   15 am 
    18   15   16 1  
    19   16   17 1  
    20   16   21 1  
    21   17   18 1  
    22   17   25 1  
    23   18   19 1  
    24   19   20 1  
    25   19   24 1  
    26   20   21 1  
    27   21   22 1  
    28   22   23 1  
    29   23   24 1  
    30   23   25 1  
    31   23   26 1  
    32   27   28 1  
    33   27   31 1  
    34   28   29 1  
    35   29   30 1  
    36   30   31 1  
    37    1   32 1  
    38    7   33 1  
    39    8   34 1  
    40    9   35 1  
    41    9   36 1  
    42   10   37 1  
    43   10   38 1  
    44   11   39 1  
    45   11   40 1  
    46   12   41 1  
    47   12   42 1  
    48   15   43 1  
    49   16   44 1  
    50   17   45 1  
    51   18   46 1  
    52   18   47 1  
    53   19   48 1  
    54   20   49 1  
    55   20   50 1  
    56   21   51 1  
    57   22   52 1  
    58   22   53 1  
    59   24   54 1  
    60   24   55 1  
    61   25   56 1  
    62   25   57 1  
    63   26   58 1  
    64   27   59 1  
    65   28   60 1  
    66   28   61 1  
    67   29   62 1  
    68   29   63 1  
    69   31   64 1  
    70   31   65 1  
@<TRIPOS>SUBSTRUCTURE
     1 HD2         1

