### 
### Created by X-TOOL on Mon Sep 10 21:13:24 2018
### 

@<TRIPOS>MOLECULE
5alv_ligand
   19    20     1     0     0
SMALL
GAST_HUCK


@<TRIPOS>ATOM
      1 C1        -13.3720  -13.7240   19.3880 C.ar      1 6TZ        -0.0639
      2 C2        -14.1980  -13.0600   18.5080 C.ar      1 6TZ        -0.0590
      3 C3        -14.8250  -11.8940   18.8980 C.ar      1 6TZ        -0.0164
      4 C4        -14.6190  -11.3840   20.1660 C.ar      1 6TZ        -0.0217
      5 C5        -13.7910  -12.0610   21.0390 C.ar      1 6TZ         0.1319
      6 C6        -13.1640  -13.2270   20.6580 C.ar      1 6TZ        -0.0290
      7 F7        -13.5760  -11.5860   22.2710 F         1 6TZ        -0.1837
      8 C8        -15.6720  -11.2050   17.9650 C.2       1 6TZ         0.0358
      9 C9        -16.1960   -9.9450   17.9720 C.2       1 6TZ        -0.0410
     10 C10       -16.9330   -9.8590   16.7630 C.2       1 6TZ         0.0483
     11 N11       -16.8860  -10.9620   16.0300 N.pl3     1 6TZ        -0.2205
     12 N12       -16.1190  -11.7430   16.7960 N.2       1 6TZ        -0.2124
     13 H1        -12.8831  -14.6415   19.0811 H         1 6TZ         0.0605
     14 H2        -14.3554  -13.4530   17.5101 H         1 6TZ         0.0581
     15 H3        -15.1021  -10.4629   20.4715 H         1 6TZ         0.0600
     16 H4        -12.5131  -13.7492   21.3499 H         1 6TZ         0.0598
     17 H5        -16.0754   -9.1773   18.7349 H         1 6TZ         0.0351
     18 H6        -17.4859   -8.9694   16.4650 H         1 6TZ         0.0989
     19 H7        -17.3218  -11.1625   15.1185 H         1 6TZ         0.2590
@<TRIPOS>BOND
     1    1    2 ar 
     2    1    6 ar 
     3    2    3 ar 
     4    3    4 ar 
     5    3    8 1  
     6    4    5 ar 
     7    5    6 ar 
     8    5    7 1  
     9    8    9 1  
    10    8   12 2  
    11    9   10 2  
    12   10   11 1  
    13   11   12 1  
    14    1   13 1  
    15    2   14 1  
    16    4   15 1  
    17    6   16 1  
    18    9   17 1  
    19   10   18 1  
    20   11   19 1  
@<TRIPOS>SUBSTRUCTURE
     1 6TZ         1

