### 
### Created by X-TOOL on Mon Sep 10 21:13:24 2018
### 

@<TRIPOS>MOLECULE
5alw_ligand
   36    38     1     0     0
SMALL
GAST_HUCK


@<TRIPOS>ATOM
      1 C1        -22.5990   -4.8780   11.2980 C.3       1 JQN        -0.0343
      2 C2        -21.8270   -5.9390   12.0290 C.ar      1 JQN        -0.0527
      3 C3        -22.4880   -7.0790   12.4790 C.ar      1 JQN        -0.0663
      4 C4        -21.7710   -8.0880   13.1190 C.ar      1 JQN        -0.0562
      5 C5        -20.3900   -7.9380   13.3180 C.ar      1 JQN         0.0107
      6 C6        -19.7300   -6.7870   12.8630 C.ar      1 JQN        -0.0562
      7 C7        -20.4590   -5.7840   12.2280 C.ar      1 JQN        -0.0663
      8 S8        -19.4770   -9.2030   14.1370 S.3       1 JQN        -0.0872
      9 C9        -19.4160  -10.5770   12.9600 C.3       1 JQN         0.0781
     10 C10       -18.9250  -10.0240   11.6430 C.2       1 JQN         0.1319
     11 O11       -19.7380   -9.6040   10.8480 O.2       1 JQN        -0.3853
     12 C12       -17.4980   -9.9720   11.2880 C.ar      1 JQN         0.0116
     13 C13       -16.4880  -10.1470   12.2600 C.ar      1 JQN        -0.0626
     14 C14       -15.1640  -10.0940   11.9020 C.ar      1 JQN        -0.0398
     15 C15       -14.8040   -9.8490   10.5600 C.ar      1 JQN         0.0783
     16 C16       -15.8090   -9.6800    9.5910 C.ar      1 JQN         0.0051
     17 C17       -17.1390   -9.7310    9.9430 C.ar      1 JQN        -0.0519
     18 C18       -15.1070   -9.4770    8.2690 C.3       1 JQN         0.0737
     19 C19       -13.6410   -9.6240    8.6250 C.2       1 JQN         0.2110
     20 O20       -12.7050   -9.5810    7.8530 O.2       1 JQN        -0.3877
     21 N21       -13.5540   -9.8190    9.9520 N.am      1 JQN        -0.2317
     22 H1        -23.6575   -5.1710   11.2373 H         1 JQN         0.0378
     23 H2        -22.1918   -4.7621   10.2827 H         1 JQN         0.0378
     24 H3        -22.5131   -3.9239   11.8387 H         1 JQN         0.0378
     25 H4        -23.5571   -7.1812   12.3319 H         1 JQN         0.0540
     26 H5        -22.2770   -8.9835   13.4611 H         1 JQN         0.0548
     27 H6        -18.6607   -6.6788   13.0044 H         1 JQN         0.0548
     28 H7        -19.9604   -4.8831   11.8891 H         1 JQN         0.0540
     29 H8        -20.4196  -11.0096   12.8351 H         1 JQN         0.0619
     30 H9        -18.7251  -11.3522   13.3229 H         1 JQN         0.0619
     31 H10       -16.7601  -10.3241   13.2942 H         1 JQN         0.0581
     32 H11       -14.3942  -10.2405   12.6510 H         1 JQN         0.0501
     33 H12       -17.9071   -9.5869    9.1918 H         1 JQN         0.0572
     34 H13       -15.3150   -8.4764    7.8622 H         1 JQN         0.0647
     35 H14       -15.4134  -10.2406    7.5390 H         1 JQN         0.0647
     36 H15       -12.6908   -9.9296   10.4446 H         1 JQN         0.2280
@<TRIPOS>BOND
     1    1    2 1  
     2    2    3 ar 
     3    2    7 ar 
     4    3    4 ar 
     5    4    5 ar 
     6    5    6 ar 
     7    5    8 1  
     8    6    7 ar 
     9    8    9 1  
    10    9   10 1  
    11   10   11 2  
    12   10   12 1  
    13   12   13 ar 
    14   12   17 ar 
    15   13   14 ar 
    16   14   15 ar 
    17   15   16 ar 
    18   15   21 1  
    19   16   17 ar 
    20   16   18 1  
    21   18   19 1  
    22   19   20 2  
    23   19   21 am 
    24    1   22 1  
    25    1   23 1  
    26    1   24 1  
    27    3   25 1  
    28    4   26 1  
    29    6   27 1  
    30    7   28 1  
    31    9   29 1  
    32    9   30 1  
    33   13   31 1  
    34   14   32 1  
    35   17   33 1  
    36   18   34 1  
    37   18   35 1  
    38   21   36 1  
@<TRIPOS>SUBSTRUCTURE
     1 JQN         1

