### 
### Created by X-TOOL on Mon Sep 10 21:13:23 2018
### 

@<TRIPOS>MOLECULE
5alx_ligand
   30    31     1     0     0
SMALL
GAST_HUCK


@<TRIPOS>ATOM
      1 C1         20.0250    8.8350   13.0570 C.3       1 DUL        -0.0541
      2 C2         20.0870   10.2410   12.6650 C.3       1 DUL         0.0042
      3 S3         18.5730   10.9590   13.1820 S.3       1 DUL        -0.1023
      4 C4         17.2420   10.5020   11.9510 C.ar      1 DUL         0.0152
      5 C5         15.7880   10.4010   12.1990 C.ar      1 DUL        -0.0500
      6 C6         14.8130   10.0430   11.1570 C.ar      1 DUL        -0.0672
      7 C7         15.2160    9.7070    9.8360 C.ar      1 DUL        -0.0601
      8 C8         16.6090    9.8460    9.5000 C.ar      1 DUL        -0.0118
      9 C9         17.5880   10.2150   10.5970 C.ar      1 DUL        -0.0419
     10 C10        17.2000    9.4630    8.2340 C.2       1 DUL         0.0410
     11 C11        18.4700    9.6720    8.0110 C.2       1 DUL        -0.0570
     12 C12        18.9530    9.2330    6.9430 C.2       1 DUL        -0.0512
     13 C13        18.1220    8.5930    6.1640 C.2       1 DUL         0.1009
     14 S14        16.5160    8.5250    6.9470 S.3       1 DUL        -0.0206
     15 C15        18.7380    8.1130    4.8980 C.2       1 DUL         0.2063
     16 O16        19.4910    8.7660    4.2010 O.2       1 DUL        -0.3905
     17 N17        18.4550    6.8860    4.4620 N.am      1 DUL        -0.3015
     18 H1         20.9544    8.3292   12.7564 H         1 DUL         0.0239
     19 H2         19.1689    8.3536   12.5616 H         1 DUL         0.0239
     20 H3         19.9050    8.7635   14.1481 H         1 DUL         0.0239
     21 H4         20.1977   10.3284   11.5741 H         1 DUL         0.0399
     22 H5         20.9338   10.7382   13.1606 H         1 DUL         0.0399
     23 H6         15.4217   10.6009   13.1995 H         1 DUL         0.0564
     24 H7         13.7575   10.0353   11.4037 H         1 DUL         0.0600
     25 H8         14.4969    9.3570    9.1043 H         1 DUL         0.0566
     26 H9         18.6376   10.2649   10.3307 H         1 DUL         0.0564
     27 H10        19.0871   10.2096    8.7294 H         1 DUL         0.0470
     28 H11        20.0000    9.3755    6.6797 H         1 DUL         0.0528
     29 H12        18.8623    6.5509    3.6124 H         1 DUL         0.1800
     30 H13        17.8353    6.3003    4.9844 H         1 DUL         0.1800
@<TRIPOS>BOND
     1    1    2 1  
     2    2    3 1  
     3    3    4 1  
     4    4    5 ar 
     5    4    9 ar 
     6    5    6 ar 
     7    6    7 ar 
     8    7    8 ar 
     9    8    9 ar 
    10    8   10 1  
    11   10   11 2  
    12   10   14 1  
    13   11   12 1  
    14   12   13 2  
    15   13   14 1  
    16   13   15 1  
    17   15   16 2  
    18   15   17 am 
    19    1   18 1  
    20    1   19 1  
    21    1   20 1  
    22    2   21 1  
    23    2   22 1  
    24    5   23 1  
    25    6   24 1  
    26    7   25 1  
    27    9   26 1  
    28   11   27 1  
    29   12   28 1  
    30   17   29 1  
    31   17   30 1  
@<TRIPOS>SUBSTRUCTURE
     1 DUL         1

