### 
### Created by X-TOOL on Mon Sep 10 21:13:24 2018
### 

@<TRIPOS>MOLECULE
5aly_ligand
   34    36     1     0     0
SMALL
GAST_HUCK


@<TRIPOS>ATOM
      1 C20        21.9500    8.1610   12.6130 C.1       1 B7H         0.1013
      2 C8         16.8280    8.8800   10.3260 C.ar      1 B7H        -0.0537
      3 C12        16.1620    9.7720   12.4560 C.ar      1 B7H        -0.0028
      4 C3         20.6290    8.6910   12.5530 C.2       1 B7H         0.1623
      5 C7         17.1490    9.2460   11.6230 C.ar      1 B7H         0.0161
      6 C9         15.5180    9.0530    9.8940 C.ar      1 B7H        -0.0313
      7 C2         19.5730    8.3110   11.7650 C.2       1 B7H         0.0102
      8 C10        14.5840    9.5820   10.7350 C.ar      1 B7H         0.1317
      9 C11        14.8650    9.9400   12.0290 C.ar      1 B7H         0.1859
     10 C6         18.5090    9.1770   12.1200 C.2       1 B7H         0.0964
     11 C15        13.4480    9.2290    8.7920 C.2       1 B7H         0.2075
     12 C17        14.8730    8.7450    8.5540 C.3       1 B7H         0.0250
     13 C1         19.5490    7.2140   10.7720 C.3       1 B7H        -0.0376
     14 C18        14.8310    7.2270    8.3240 C.3       1 B7H        -0.0895
     15 C19        15.5300    9.4770    7.4010 C.3       1 B7H        -0.0895
     16 N21        23.0250    7.7410   12.6740 N.1       1 B7H        -0.3361
     17 N5         18.9070   10.0500   13.0550 N.pl3     1 B7H        -0.2082
     18 N4         20.1970    9.7480   13.3050 N.2       1 B7H        -0.1725
     19 N14        13.3530    9.6750   10.1100 N.am      1 B7H        -0.2172
     20 O16        12.5780    9.2300    7.9190 O.2       1 B7H        -0.3195
     21 F13        13.8820   10.4660   12.8060 F         1 B7H        -0.1834
     22 H1         17.5807    8.4683    9.6634 H         1 B7H         0.0692
     23 H2         16.4241   10.0566   13.4686 H         1 B7H         0.0791
     24 H3         20.5377    6.7334   10.7327 H         1 B7H         0.0347
     25 H4         19.2998    7.6217    9.7812 H         1 B7H         0.0347
     26 H5         18.7918    6.4715   11.0641 H         1 B7H         0.0347
     27 H6         15.8511    6.8542    8.1496 H         1 B7H         0.0086
     28 H7         14.2050    7.0062    7.4469 H         1 B7H         0.0086
     29 H8         14.4069    6.7333    9.2108 H         1 B7H         0.0086
     30 H9         15.5375   10.5571    7.6091 H         1 B7H         0.0086
     31 H10        14.9660    9.2857    6.4762 H         1 B7H         0.0086
     32 H11        16.5633    9.1196    7.2809 H         1 B7H         0.0086
     33 H12        18.3455   10.7953   13.4912 H         1 B7H         0.2585
     34 H13        12.5163   10.0131   10.5410 H         1 B7H         0.2423
@<TRIPOS>BOND
     1    4    1 1  
     2    1   16 3  
     3    5    2 ar 
     4    2    6 ar 
     5    5    3 ar 
     6    3    9 ar 
     7    7    4 1  
     8    4   18 2  
     9   10    5 1  
    10    6    8 ar 
    11    6   12 1  
    12    7   10 2  
    13    7   13 1  
    14    8    9 ar 
    15    8   19 1  
    16    9   21 1  
    17   10   17 1  
    18   12   11 1  
    19   11   19 am 
    20   11   20 2  
    21   12   14 1  
    22   12   15 1  
    23   17   18 1  
    24    2   22 1  
    25    3   23 1  
    26   13   24 1  
    27   13   25 1  
    28   13   26 1  
    29   14   27 1  
    30   14   28 1  
    31   14   29 1  
    32   15   30 1  
    33   15   31 1  
    34   15   32 1  
    35   17   33 1  
    36   19   34 1  
@<TRIPOS>SUBSTRUCTURE
     1 B7H         1

