### 
### Created by X-TOOL on Mon Sep 10 21:13:24 2018
### 

@<TRIPOS>MOLECULE
5alz_ligand
   53    56     1     0     0
SMALL
GAST_HUCK


@<TRIPOS>ATOM
      1 C1        -12.5240   11.0880  -22.4160 C.3       1 XQ9         0.0734
      2 S2        -12.0700   11.7530  -20.7900 S.o2      1 XQ9         0.0385
      3 O3        -11.0010   10.9930  -20.2310 O.2       1 XQ9        -0.1556
      4 O4        -11.9980   13.1750  -20.8370 O.2       1 XQ9        -0.1556
      5 N5        -13.4180   11.4290  -19.8580 N.am      1 XQ9        -0.2385
      6 C6        -14.5340   12.4020  -19.8040 C.3       1 XQ9         0.0313
      7 C7        -14.9650   12.6420  -18.3520 C.3       1 XQ9        -0.0129
      8 C8        -15.2930   11.2880  -17.7040 C.3       1 XQ9         0.0453
      9 C9        -14.0300   10.4070  -17.6710 C.3       1 XQ9        -0.0129
     10 C10       -13.5350   10.1530  -19.1120 C.3       1 XQ9         0.0313
     11 N11       -15.8500   11.5020  -16.3610 N.am      1 XQ9        -0.2700
     12 C12       -16.6290   10.6060  -15.7170 C.2       1 XQ9         0.2581
     13 O13       -16.8950    9.5640  -16.2830 O.2       1 XQ9        -0.4008
     14 N14       -17.1080   10.9120  -14.4700 N.am      1 XQ9        -0.2671
     15 C15       -17.9250   10.0860  -13.5400 C.3       1 XQ9         0.0542
     16 C16       -16.9320    9.1440  -12.7860 C.3       1 XQ9        -0.0244
     17 C17       -17.6710    8.3060  -11.7060 C.3       1 XQ9        -0.0382
     18 C18       -18.3410    9.2540  -10.6700 C.3       1 XQ9        -0.0472
     19 C19       -19.3480   10.1800  -11.4020 C.3       1 XQ9        -0.0382
     20 C20       -18.6140   11.0180  -12.5010 C.3       1 XQ9        -0.0244
     21 C21       -20.4290    9.2920  -12.0730 C.3       1 XQ9        -0.0472
     22 C22       -19.7800    8.3570  -13.1290 C.3       1 XQ9        -0.0382
     23 C23       -18.7590    7.4410  -12.4010 C.3       1 XQ9        -0.0472
     24 C24       -19.0490    9.2290  -14.1950 C.3       1 XQ9        -0.0244
     25 H1        -12.5751    9.9905  -22.3620 H         1 XQ9         0.0482
     26 H2        -11.7672   11.3838  -23.1575 H         1 XQ9         0.0482
     27 H3        -13.5050   11.4864  -22.7142 H         1 XQ9         0.0482
     28 H4        -15.3873   12.0067  -20.3746 H         1 XQ9         0.0478
     29 H5        -14.2063   13.3542  -20.2467 H         1 XQ9         0.0478
     30 H6        -15.8559   13.2870  -18.3323 H         1 XQ9         0.0303
     31 H7        -14.1479   13.1284  -17.7991 H         1 XQ9         0.0303
     32 H8        -16.0527   10.7789  -18.3153 H         1 XQ9         0.0554
     33 H9        -14.2669    9.4460  -17.1910 H         1 XQ9         0.0303
     34 H10       -13.2422   10.9185  -17.0986 H         1 XQ9         0.0303
     35 H11       -12.5500    9.6648  -19.0747 H         1 XQ9         0.0478
     36 H12       -14.2503    9.4966  -19.6291 H         1 XQ9         0.0478
     37 H13       -15.6398   12.3621  -15.8963 H         1 XQ9         0.1848
     38 H14       -16.8740   11.8250  -14.1357 H         1 XQ9         0.1851
     39 H15       -16.1565    9.7539  -12.2996 H         1 XQ9         0.0293
     40 H16       -16.4619    8.4628  -13.5105 H         1 XQ9         0.0293
     41 H17       -16.9520    7.6516  -11.1914 H         1 XQ9         0.0302
     42 H18       -17.5700    9.8651  -10.1780 H         1 XQ9         0.0271
     43 H19       -18.8726    8.6566   -9.9147 H         1 XQ9         0.0271
     44 H20       -19.8200   10.8595  -10.6771 H         1 XQ9         0.0302
     45 H21       -19.3469   11.6547  -13.0181 H         1 XQ9         0.0293
     46 H22       -17.8516   11.6505  -12.0227 H         1 XQ9         0.0293
     47 H23       -21.1721    9.9357  -12.5664 H         1 XQ9         0.0271
     48 H24       -20.9253    8.6815  -11.3043 H         1 XQ9         0.0271
     49 H25       -20.5520    7.7437  -13.6167 H         1 XQ9         0.0302
     50 H26       -19.2841    6.8391  -11.6447 H         1 XQ9         0.0271
     51 H27       -18.2812    6.7738  -13.1335 H         1 XQ9         0.0271
     52 H28       -18.6026    8.5699  -14.9541 H         1 XQ9         0.0293
     53 H29       -19.7788    9.8983  -14.6739 H         1 XQ9         0.0293
@<TRIPOS>BOND
     1    1    2 1  
     2    2    3 2  
     3    2    4 2  
     4    2    5 am 
     5    5    6 1  
     6    5   10 1  
     7    6    7 1  
     8    7    8 1  
     9    8    9 1  
    10    8   11 1  
    11    9   10 1  
    12   11   12 am 
    13   12   13 2  
    14   12   14 am 
    15   14   15 1  
    16   15   16 1  
    17   15   20 1  
    18   15   24 1  
    19   16   17 1  
    20   17   18 1  
    21   17   23 1  
    22   18   19 1  
    23   19   20 1  
    24   19   21 1  
    25   21   22 1  
    26   22   23 1  
    27   22   24 1  
    28    1   25 1  
    29    1   26 1  
    30    1   27 1  
    31    6   28 1  
    32    6   29 1  
    33    7   30 1  
    34    7   31 1  
    35    8   32 1  
    36    9   33 1  
    37    9   34 1  
    38   10   35 1  
    39   10   36 1  
    40   11   37 1  
    41   14   38 1  
    42   16   39 1  
    43   16   40 1  
    44   17   41 1  
    45   18   42 1  
    46   18   43 1  
    47   19   44 1  
    48   20   45 1  
    49   20   46 1  
    50   21   47 1  
    51   21   48 1  
    52   22   49 1  
    53   23   50 1  
    54   23   51 1  
    55   24   52 1  
    56   24   53 1  
@<TRIPOS>SUBSTRUCTURE
     1 XQ9         1

