### 
### Created by X-TOOL on Mon Sep 10 21:13:23 2018
### 

@<TRIPOS>MOLECULE
5am0_ligand
   34    36     1     0     0
SMALL
GAST_HUCK


@<TRIPOS>ATOM
      1 C1         15.6750    9.7250    7.2220 C.3       1 LWS        -0.0902
      2 C2         14.9710    8.9360    8.3010 C.3       1 LWS         0.0237
      3 C3         15.5430    9.1700    9.6550 C.ar      1 LWS        -0.0334
      4 C4         16.8200    8.9380   10.1340 C.ar      1 LWS        -0.0565
      5 C5         17.0900    9.2380   11.4590 C.ar      1 LWS         0.0078
      6 C6         16.0880    9.7490   12.2810 C.ar      1 LWS        -0.0040
      7 C7         14.8170    9.9840   11.7890 C.ar      1 LWS         0.1857
      8 C8         14.5740    9.6710   10.4770 C.ar      1 LWS         0.1313
      9 N9         13.3800    9.8150    9.7850 N.am      1 LWS        -0.2173
     10 C10        13.5470    9.4340    8.4710 C.2       1 LWS         0.2067
     11 O11        12.6970    9.5230    7.5950 O.2       1 LWS        -0.3197
     12 F12        13.8340   10.4880   12.5620 F         1 LWS        -0.1834
     13 C13        18.4200    8.9820   11.9660 C.2       1 LWS         0.0580
     14 C14        19.2510    7.9050   11.7290 C.2       1 LWS        -0.0760
     15 C15        20.4550    8.0920   12.4570 C.2       1 LWS        -0.0814
     16 C16        20.3400    9.2950   13.1150 C.2       1 LWS         0.0179
     17 N17        19.1130    9.8160   12.8110 N.pl3     1 LWS        -0.2772
     18 C18        18.6640   11.1010   13.3110 C.3       1 LWS         0.0415
     19 C19        14.9820    7.4510    8.0330 C.3       1 LWS        -0.0902
     20 H1         16.7045    9.3543    7.1093 H         1 LWS         0.0084
     21 H2         15.6968   10.7889    7.5007 H         1 LWS         0.0084
     22 H3         15.1364    9.6063    6.2703 H         1 LWS         0.0084
     23 H4         17.5901    8.5315    9.4884 H         1 LWS         0.0671
     24 H5         16.3075    9.9653   13.3203 H         1 LWS         0.0788
     25 H6         12.5239   10.1466   10.1815 H         1 LWS         0.2423
     26 H7         19.0209    7.0538   11.0899 H         1 LWS         0.0307
     27 H8         21.3063    7.4136   12.4887 H         1 LWS         0.0301
     28 H9         21.0900    9.7495   13.7606 H         1 LWS         0.0834
     29 H10        17.6510   11.3071   12.9349 H         1 LWS         0.0579
     30 H11        19.3503   11.8886   12.9666 H         1 LWS         0.0579
     31 H12        18.6500   11.0820   14.4107 H         1 LWS         0.0579
     32 H13        14.4582    6.9277    8.8465 H         1 LWS         0.0084
     33 H14        16.0217    7.0959    7.9783 H         1 LWS         0.0084
     34 H15        14.4741    7.2468    7.0789 H         1 LWS         0.0084
@<TRIPOS>BOND
     1    1    2 1  
     2    2    3 1  
     3    2   10 1  
     4    2   19 1  
     5    3    4 ar 
     6    3    8 ar 
     7    4    5 ar 
     8    5    6 ar 
     9    5   13 1  
    10    6    7 ar 
    11    7    8 ar 
    12    7   12 1  
    13    8    9 1  
    14    9   10 am 
    15   10   11 2  
    16   13   14 2  
    17   13   17 1  
    18   14   15 1  
    19   15   16 2  
    20   16   17 1  
    21   17   18 1  
    22    1   20 1  
    23    1   21 1  
    24    1   22 1  
    25    4   23 1  
    26    6   24 1  
    27    9   25 1  
    28   14   26 1  
    29   15   27 1  
    30   16   28 1  
    31   18   29 1  
    32   18   30 1  
    33   18   31 1  
    34   19   32 1  
    35   19   33 1  
    36   19   34 1  
@<TRIPOS>SUBSTRUCTURE
     1 LWS         1

