### 
### Created by X-TOOL on Mon Sep 10 21:13:24 2018
### 

@<TRIPOS>MOLECULE
5am1_ligand
   52    56     1     0     0
SMALL
GAST_HUCK


@<TRIPOS>ATOM
      1 C1         20.6630    7.5970   12.7880 C.ar      1 I5T        -0.0687
      2 C2          9.2140   11.1500   21.7430 C.ar      1 I5T        -0.0668
      3 C3         19.3720    7.4140   13.2320 C.ar      1 I5T        -0.0686
      4 C4         21.1770    8.8700   12.6890 C.ar      1 I5T        -0.0686
      5 C5          9.1380   11.1310   20.3600 C.ar      1 I5T        -0.0658
      6 C6         10.4000   11.4930   22.3620 C.ar      1 I5T        -0.0514
      7 C7         18.6340    8.5300   13.5670 C.ar      1 I5T        -0.0600
      8 C8         20.4170    9.9690   13.0380 C.ar      1 I5T        -0.0600
      9 C9         10.2360   11.4400   19.5800 C.ar      1 I5T        -0.0264
     10 C10        11.4890   11.8200   21.5730 C.ar      1 I5T         0.0614
     11 C11        19.1210    9.8180   13.4850 C.ar      1 I5T        -0.0377
     12 C12        11.4210   11.7970   20.1870 C.ar      1 I5T         0.1127
     13 C13        12.7450   12.2180   22.2430 C.2       1 I5T         0.1304
     14 C14        16.2870   10.6750   16.8420 C.2       1 I5T         0.2603
     15 C15        13.8430   12.7400   21.3350 C.3       1 I5T         0.0544
     16 C16        14.6440   13.0640   19.0730 C.3       1 I5T         0.0034
     17 C17        14.4150   10.7090   19.9270 C.3       1 I5T         0.0034
     18 C18        16.9940   11.2940   13.2420 C.3       1 I5T        -0.0133
     19 C19        14.8240   12.5280   17.6670 C.3       1 I5T         0.0374
     20 C20        14.5660   10.2000   18.4990 C.3       1 I5T         0.0374
     21 C21        18.3210   10.9870   13.8590 C.3       1 I5T         0.0178
     22 C22        17.0610   10.7660   14.6260 C.3       1 I5T         0.0568
     23 C23        13.8130   12.1230   19.9380 C.3       1 I5T         0.1120
     24 N24        15.2530   11.1400   17.6340 N.am      1 I5T        -0.2593
     25 N25        16.7200   11.4690   15.7990 N.am      1 I5T        -0.2676
     26 O26        12.8410   12.1320   23.4650 O.2       1 I5T        -0.3851
     27 O27        16.8460    9.6090   17.0630 O.2       1 I5T        -0.4006
     28 O28        12.4860   12.1180   19.3370 O.3       1 I5T        -0.3034
     29 H1         21.2718    6.7418   12.5176 H         1 I5T         0.0559
     30 H2          8.3443   10.8962   22.3382 H         1 I5T         0.0537
     31 H3         18.9476    6.4200   13.3158 H         1 I5T         0.0599
     32 H4         22.1909    9.0117   12.3327 H         1 I5T         0.0599
     33 H5          8.2012   10.8693   19.8815 H         1 I5T         0.0627
     34 H6         10.4763   11.5058   23.4432 H         1 I5T         0.0643
     35 H7         17.6168    8.3873   13.9133 H         1 I5T         0.0557
     36 H8         20.8442   10.9622   12.9597 H         1 I5T         0.0557
     37 H9         10.1660   11.4019   18.4989 H         1 I5T         0.0556
     38 H10        14.8155   12.5133   21.7964 H         1 I5T         0.0515
     39 H11        13.7281   13.8297   21.2383 H         1 I5T         0.0515
     40 H12        14.1372   14.0388   19.0198 H         1 I5T         0.0318
     41 H13        15.6343   13.1903   19.5350 H         1 I5T         0.0318
     42 H14        15.4038   10.7337   20.4082 H         1 I5T         0.0318
     43 H15        13.7528   10.0302   20.4844 H         1 I5T         0.0318
     44 H16        16.6055   10.6612   12.4305 H         1 I5T         0.0314
     45 H17        16.6981   12.3387   13.0660 H         1 I5T         0.0314
     46 H18        15.5803   13.1399   17.1537 H         1 I5T         0.0520
     47 H19        13.8641   12.6099   17.1361 H         1 I5T         0.0520
     48 H20        13.5642   10.0108   18.0861 H         1 I5T         0.0520
     49 H21        15.1374    9.2603   18.5200 H         1 I5T         0.0520
     50 H22        18.9948   11.8169   14.1184 H         1 I5T         0.0484
     51 H23        16.7330    9.7276   14.7816 H         1 I5T         0.0580
     52 H24        16.7865   12.4643   15.8701 H         1 I5T         0.1850
@<TRIPOS>BOND
     1    3    1 ar 
     2    4    1 ar 
     3    2    5 ar 
     4    6    2 ar 
     5    7    3 ar 
     6    8    4 ar 
     7    9    5 ar 
     8   10    6 ar 
     9   11    7 ar 
    10   11    8 ar 
    11   12    9 ar 
    12   10   12 ar 
    13   13   10 1  
    14   21   11 1  
    15   12   28 1  
    16   15   13 1  
    17   13   26 2  
    18   14   24 am 
    19   25   14 am 
    20   14   27 2  
    21   23   15 1  
    22   19   16 1  
    23   16   23 1  
    24   20   17 1  
    25   17   23 1  
    26   21   18 1  
    27   22   18 1  
    28   24   19 1  
    29   24   20 1  
    30   22   21 1  
    31   22   25 1  
    32   23   28 1  
    33    1   29 1  
    34    2   30 1  
    35    3   31 1  
    36    4   32 1  
    37    5   33 1  
    38    6   34 1  
    39    7   35 1  
    40    8   36 1  
    41    9   37 1  
    42   15   38 1  
    43   15   39 1  
    44   16   40 1  
    45   16   41 1  
    46   17   42 1  
    47   17   43 1  
    48   18   44 1  
    49   18   45 1  
    50   19   46 1  
    51   19   47 1  
    52   20   48 1  
    53   20   49 1  
    54   21   50 1  
    55   22   51 1  
    56   25   52 1  
@<TRIPOS>SUBSTRUCTURE
     1 I5T         1

