### 
### Created by X-TOOL on Mon Sep 10 21:13:24 2018
### 

@<TRIPOS>MOLECULE
5am2_ligand
   21    22     1     0     0
SMALL
GAST_HUCK


@<TRIPOS>ATOM
      1 C4        -19.8330   -5.3660   11.8120 C.ar      1 KUF        -0.0687
      2 C3        -18.5590   -4.9970   11.4310 C.ar      1 KUF        -0.0649
      3 C12       -17.9270   -7.2990   11.9860 C.ar      1 KUF        -0.0504
      4 C5        -20.1720   -6.6220   12.2740 C.ar      1 KUF        -0.0402
      5 C11       -19.2260   -7.6710   12.3810 C.ar      1 KUF         0.0419
      6 C2        -17.5880   -5.9860   11.5070 C.ar      1 KUF        -0.0492
      7 C6        -21.5490   -6.8440   12.6410 C.2       1 KUF        -0.0521
      8 C7        -21.9750   -8.0110   13.0910 C.2       1 KUF         0.0463
      9 C9        -19.7530   -8.9980   12.9010 C.2       1 KUF         0.2238
     10 C1        -16.2310   -5.6210   11.0980 C.3       1 KUF        -0.0341
     11 N8        -21.0950   -9.0090   13.1980 N.am      1 KUF        -0.2268
     12 O10       -19.1930  -10.0380   13.1070 O.2       1 KUF        -0.3940
     13 H1        -20.6181   -4.6217   11.7441 H         1 KUF         0.0537
     14 H2        -18.3299   -3.9932   11.0921 H         1 KUF         0.0573
     15 H3        -17.1400   -8.0421   12.0461 H         1 KUF         0.0577
     16 H4        -22.2596   -6.0245   12.5442 H         1 KUF         0.0278
     17 H5        -23.0183   -8.1551   13.3678 H         1 KUF         0.1113
     18 H6        -16.2166   -4.5708   10.7710 H         1 KUF         0.0377
     19 H7        -15.9118   -6.2680   10.2676 H         1 KUF         0.0377
     20 H8        -15.5447   -5.7497   11.9479 H         1 KUF         0.0377
     21 H9        -21.4589   -9.8762   13.5380 H         1 KUF         0.2476
@<TRIPOS>BOND
     1    2    1 ar 
     2    1    4 ar 
     3    6    2 ar 
     4    3    5 ar 
     5    3    6 ar 
     6    4    5 ar 
     7    4    7 1  
     8    5    9 1  
     9    6   10 1  
    10    7    8 2  
    11    8   11 1  
    12    9   11 am 
    13    9   12 2  
    14    1   13 1  
    15    2   14 1  
    16    3   15 1  
    17    7   16 1  
    18    8   17 1  
    19   10   18 1  
    20   10   19 1  
    21   10   20 1  
    22   11   21 1  
@<TRIPOS>SUBSTRUCTURE
     1 KUF         1

