### 
### Created by X-TOOL on Mon Sep 10 21:13:24 2018
### 

@<TRIPOS>MOLECULE
5am3_ligand
   61    65     1     0     0
SMALL
GAST_HUCK


@<TRIPOS>ATOM
      1 C22        16.4150    9.7490    7.9100 C.ar      1 AUB        -0.0562
      2 C24        18.0460    8.0120    7.5270 C.ar      1 AUB        -0.0562
      3 C21        16.8580    9.8700    9.2120 C.ar      1 AUB        -0.0292
      4 C25        18.4820    8.1450    8.8310 C.ar      1 AUB        -0.0292
      5 C23        17.0110    8.8180    7.0830 C.ar      1 AUB        -0.0010
      6 C20        17.8880    9.0680    9.6740 C.ar      1 AUB         0.0948
      7 C28        16.5140    8.7070    5.7010 C.2       1 AUB         0.0557
      8 C26        15.8700   10.8440   16.8470 C.2       1 AUB         0.2581
      9 C14        15.9970   10.2710   13.6170 C.3       1 AUB        -0.0274
     10 C12        18.3090   11.1060   14.1090 C.3       1 AUB        -0.0274
     11 C15        16.5620    9.3420   12.5580 C.3       1 AUB        -0.0200
     12 C17        18.8420   10.2600   12.9650 C.3       1 AUB        -0.0200
     13 C6         13.2280   10.0250   20.9470 C.3       1 AUB        -0.0472
     14 C9         13.8060   12.3920   21.5130 C.3       1 AUB        -0.0472
     15 C4         11.7760   11.9090   20.1420 C.3       1 AUB        -0.0472
     16 C2         15.2240   11.1510   19.8800 C.3       1 AUB        -0.0244
     17 C10        13.1690   10.6250   18.5230 C.3       1 AUB        -0.0244
     18 C8         13.7800   13.0170   19.1000 C.3       1 AUB        -0.0244
     19 C1         14.3800   11.0140   21.1620 C.3       1 AUB        -0.0382
     20 C5         12.3270   10.5080   19.7980 C.3       1 AUB        -0.0382
     21 C3         12.9270   12.9110   20.3730 C.3       1 AUB        -0.0382
     22 C13        17.0320   10.5110   14.7020 C.3       1 AUB         0.0426
     23 C16        17.7780    9.9860   11.9010 C.3       1 AUB         0.0822
     24 C7         14.3370   11.6320   18.7100 C.3       1 AUB         0.0542
     25 N18        16.5020   11.3520   15.7420 N.am      1 AUB        -0.2701
     26 N11        15.0630   11.7890   17.4560 N.am      1 AUB        -0.2671
     27 O29        15.5440    9.3050    5.2560 O.co2     1 AUB        -0.5636
     28 O27        16.0280    9.6970   17.2380 O.2       1 AUB        -0.4008
     29 O30        17.3010    7.8470    5.0140 O.co2     1 AUB        -0.5636
     30 O19        18.3950    9.0880   10.9710 O.3       1 AUB        -0.3127
     31 H1         15.6108   10.3760    7.5424 H         1 AUB         0.0623
     32 H2         18.5060    7.2893    6.8628 H         1 AUB         0.0623
     33 H3         16.3984   10.5947    9.8743 H         1 AUB         0.0551
     34 H4         19.2924    7.5241    9.1954 H         1 AUB         0.0551
     35 H5         15.1013    9.8137   14.0626 H         1 AUB         0.0288
     36 H6         15.7264   11.2309   13.1529 H         1 AUB         0.0288
     37 H7         18.0910   12.1168   13.7339 H         1 AUB         0.0288
     38 H8         19.0747   11.1643   14.8966 H         1 AUB         0.0288
     39 H9         15.7941    9.1487   11.7945 H         1 AUB         0.0295
     40 H10        16.8603    8.3926   13.0267 H         1 AUB         0.0295
     41 H11        19.1935    9.2993   13.3694 H         1 AUB         0.0295
     42 H12        19.6836   10.7901   12.4953 H         1 AUB         0.0295
     43 H13        12.6337    9.9520   21.8697 H         1 AUB         0.0271
     44 H14        13.6391    9.0360   20.6963 H         1 AUB         0.0271
     45 H15        14.6335   13.0968   21.6820 H         1 AUB         0.0271
     46 H16        13.2013   12.3101   22.4282 H         1 AUB         0.0271
     47 H17        11.1674   11.8424   21.0559 H         1 AUB         0.0271
     48 H18        11.1505   12.2645   19.3099 H         1 AUB         0.0271
     49 H19        15.6623   10.1744   19.6267 H         1 AUB         0.0293
     50 H20        16.0289   11.8811   20.0504 H         1 AUB         0.0293
     51 H21        12.5266   10.9700   17.6994 H         1 AUB         0.0293
     52 H22        13.5838    9.6368   18.2753 H         1 AUB         0.0293
     53 H23        14.6175   13.7067   19.2811 H         1 AUB         0.0293
     54 H24        13.1587   13.4024   18.2782 H         1 AUB         0.0293
     55 H25        15.0174   10.6565   21.9842 H         1 AUB         0.0302
     56 H26        11.4987    9.8007   19.6443 H         1 AUB         0.0302
     57 H27        12.5174   13.8985   20.6319 H         1 AUB         0.0302
     58 H28        17.2867    9.5391   15.1498 H         1 AUB         0.0553
     59 H29        17.4786   10.9169   11.3973 H         1 AUB         0.0651
     60 H30        16.5983   12.3436   15.6555 H         1 AUB         0.1848
     61 H31        14.9685   12.6680   16.9887 H         1 AUB         0.1851
@<TRIPOS>BOND
     1    3    1 ar 
     2    1    5 ar 
     3    4    2 ar 
     4    2    5 ar 
     5    6    3 ar 
     6    6    4 ar 
     7    5    7 1  
     8   30    6 1  
     9    7   27 ar 
    10    7   29 ar 
    11    8   25 am 
    12   26    8 am 
    13    8   28 2  
    14    9   11 1  
    15   22    9 1  
    16   10   12 1  
    17   22   10 1  
    18   11   23 1  
    19   12   23 1  
    20   19   13 1  
    21   20   13 1  
    22   19   14 1  
    23   21   14 1  
    24   20   15 1  
    25   21   15 1  
    26   16   19 1  
    27   24   16 1  
    28   17   20 1  
    29   24   17 1  
    30   18   21 1  
    31   24   18 1  
    32   25   22 1  
    33   23   30 1  
    34   24   26 1  
    35    1   31 1  
    36    2   32 1  
    37    3   33 1  
    38    4   34 1  
    39    9   35 1  
    40    9   36 1  
    41   10   37 1  
    42   10   38 1  
    43   11   39 1  
    44   11   40 1  
    45   12   41 1  
    46   12   42 1  
    47   13   43 1  
    48   13   44 1  
    49   14   45 1  
    50   14   46 1  
    51   15   47 1  
    52   15   48 1  
    53   16   49 1  
    54   16   50 1  
    55   17   51 1  
    56   17   52 1  
    57   18   53 1  
    58   18   54 1  
    59   19   55 1  
    60   20   56 1  
    61   21   57 1  
    62   22   58 1  
    63   23   59 1  
    64   25   60 1  
    65   26   61 1  
@<TRIPOS>SUBSTRUCTURE
     1 AUB         1

