### 
### Created by X-TOOL on Mon Sep 10 21:13:22 2018
### 

@<TRIPOS>MOLECULE
5am4_ligand
   44    47     1     0     0
SMALL
GAST_HUCK


@<TRIPOS>ATOM
      1 C1        -15.8710  -10.0500   12.1920 C.ar      1 MVJ        -0.0424
      2 C2        -14.6540  -10.2950   11.5850 C.ar      1 MVJ        -0.0123
      3 C3        -14.5280   -9.9860   10.2460 C.ar      1 MVJ         0.0896
      4 C4        -15.5550   -9.4490    9.5170 C.ar      1 MVJ        -0.0351
      5 C5        -16.7720   -9.2120   10.1310 C.ar      1 MVJ        -0.0555
      6 C6        -16.9280   -9.5100   11.4760 C.ar      1 MVJ        -0.0267
      7 C7        -18.2230   -9.2640   12.1860 C.3       1 MVJ        -0.0070
      8 C8        -18.5250   -7.7740   12.2450 C.3       1 MVJ        -0.0414
      9 C9        -19.8700   -7.4550   12.8870 C.3       1 MVJ        -0.0512
     10 C10       -21.0070   -8.3060   12.3490 C.3       1 MVJ        -0.0528
     11 C11       -20.6640   -9.7890   12.3170 C.3       1 MVJ        -0.0512
     12 C12       -19.3680  -10.0500   11.5640 C.3       1 MVJ        -0.0414
     13 C13       -15.1240   -9.2320    8.0970 C.3       1 MVJ         0.0348
     14 C14       -15.1910   -7.7640    7.6910 C.3       1 MVJ        -0.0527
     15 C15       -16.5900   -7.3610    7.2360 C.3       1 MVJ         0.0372
     16 O16       -17.0760   -8.2590    6.2350 O.3       1 MVJ        -0.3821
     17 C17       -17.2380   -9.5860    6.7450 C.3       1 MVJ         0.0372
     18 C18       -15.8720  -10.1500    7.1300 C.3       1 MVJ        -0.0527
     19 C19       -13.6680   -9.6800    8.1650 C.2       1 MVJ         0.2073
     20 O20       -12.8570   -9.6500    7.2450 O.2       1 MVJ        -0.3199
     21 N21       -13.4020  -10.1500    9.4380 N.am      1 MVJ        -0.2222
     22 H1        -16.0009  -10.2833   13.2426 H         1 MVJ         0.0767
     23 H2        -13.8253  -10.7162   12.1425 H         1 MVJ         0.0587
     24 H3        -17.5975   -8.7963    9.5646 H         1 MVJ         0.0679
     25 H4        -18.1066   -9.6197   13.2204 H         1 MVJ         0.0446
     26 H5        -18.5253   -7.3772   11.2191 H         1 MVJ         0.0288
     27 H6        -17.7340   -7.2805   12.8288 H         1 MVJ         0.0288
     28 H7        -20.1055   -6.3973   12.6980 H         1 MVJ         0.0267
     29 H8        -19.7890   -7.6247   13.9708 H         1 MVJ         0.0267
     30 H9        -21.2403   -7.9763   11.3258 H         1 MVJ         0.0265
     31 H10       -21.8888   -8.1622   12.9906 H         1 MVJ         0.0265
     32 H11       -21.4807  -10.3333   11.8204 H         1 MVJ         0.0267
     33 H12       -20.5558  -10.1524   13.3496 H         1 MVJ         0.0267
     34 H13       -19.1348  -11.1242   11.6063 H         1 MVJ         0.0288
     35 H14       -19.4906   -9.7424   10.5150 H         1 MVJ         0.0288
     36 H15       -14.4853   -7.5912    6.8651 H         1 MVJ         0.0147
     37 H16       -14.9054   -7.1435    8.5532 H         1 MVJ         0.0147
     38 H17       -16.5551   -6.3429    6.8210 H         1 MVJ         0.0548
     39 H18       -17.2703   -7.3816    8.1001 H         1 MVJ         0.0548
     40 H19       -17.6940  -10.2231    5.9729 H         1 MVJ         0.0548
     41 H20       -17.8885   -9.5618    7.6317 H         1 MVJ         0.0548
     42 H21       -16.0148  -11.1297    7.6094 H         1 MVJ         0.0147
     43 H22       -15.2688  -10.2723    6.2183 H         1 MVJ         0.0147
     44 H23       -12.5337  -10.5475    9.7349 H         1 MVJ         0.2396
@<TRIPOS>BOND
     1    1    2 ar 
     2    1    6 ar 
     3    2    3 ar 
     4    3    4 ar 
     5    3   21 1  
     6    4    5 ar 
     7    4   13 1  
     8    5    6 ar 
     9    6    7 1  
    10    7    8 1  
    11    7   12 1  
    12    8    9 1  
    13    9   10 1  
    14   10   11 1  
    15   11   12 1  
    16   13   14 1  
    17   13   18 1  
    18   13   19 1  
    19   14   15 1  
    20   15   16 1  
    21   16   17 1  
    22   17   18 1  
    23   19   20 2  
    24   19   21 am 
    25    1   22 1  
    26    2   23 1  
    27    5   24 1  
    28    7   25 1  
    29    8   26 1  
    30    8   27 1  
    31    9   28 1  
    32    9   29 1  
    33   10   30 1  
    34   10   31 1  
    35   11   32 1  
    36   11   33 1  
    37   12   34 1  
    38   12   35 1  
    39   14   36 1  
    40   14   37 1  
    41   15   38 1  
    42   15   39 1  
    43   17   40 1  
    44   17   41 1  
    45   18   42 1  
    46   18   43 1  
    47   21   44 1  
@<TRIPOS>SUBSTRUCTURE
     1 MVJ         1

