### 
### Created by X-TOOL on Mon Sep 10 21:13:22 2018
### 

@<TRIPOS>MOLECULE
5am5_ligand
   37    38     1     0     0
SMALL
GAST_HUCK


@<TRIPOS>ATOM
      1 C1         14.5680    6.4140    6.0000 C.3       1 6NZ        -0.0638
      2 C2         15.6800    6.9170    6.9350 C.3       1 6NZ        -0.0490
      3 C3         15.6630    8.4460    7.0770 C.3       1 6NZ        -0.0234
      4 C4         15.4130    8.8680    8.5120 C.2       1 6NZ         0.0091
      5 C5         16.4000    8.7610    9.4890 C.2       1 6NZ        -0.0716
      6 C6         16.1510    9.1830   10.8280 C.2       1 6NZ        -0.0341
      7 C7         14.9180    9.6940   11.1190 C.2       1 6NZ         0.0484
      8 N8         13.9450    9.7950   10.1650 N.am      1 6NZ        -0.2366
      9 C10        14.1500    9.4040    8.8810 C.2       1 6NZ         0.1998
     10 O11        13.2440    9.5280    8.0580 O.2       1 6NZ        -0.4231
     11 C12        17.1790    9.0980   11.9520 C.3       1 6NZ        -0.0214
     12 C13        18.2970    8.0450   11.7060 C.3       1 6NZ        -0.0456
     13 C14        19.5060    8.1270   12.6710 C.3       1 6NZ        -0.0517
     14 C15        19.9710    9.5790   12.9170 C.3       1 6NZ        -0.0528
     15 C16        18.7950   10.4380   13.4090 C.3       1 6NZ        -0.0517
     16 C17        17.7330   10.4990   12.2950 C.3       1 6NZ        -0.0456
     17 H1         14.6177    5.3175    5.9280 H         1 6NZ         0.0231
     18 H2         14.7025    6.8535    5.0007 H         1 6NZ         0.0231
     19 H3         13.5883    6.7110    6.4024 H         1 6NZ         0.0231
     20 H4         16.6539    6.6089    6.5268 H         1 6NZ         0.0281
     21 H5         15.5397    6.4663    7.9286 H         1 6NZ         0.0281
     22 H6         14.8652    8.8553    6.4399 H         1 6NZ         0.0387
     23 H7         16.6343    8.8461    6.7508 H         1 6NZ         0.0387
     24 H8         17.3738    8.3500    9.2269 H         1 6NZ         0.0507
     25 H9         14.7059   10.0282   12.1335 H         1 6NZ         0.1006
     26 H10        13.0534   10.1688   10.4206 H         1 6NZ         0.2480
     27 H11        16.6333    8.7530   12.8426 H         1 6NZ         0.0387
     28 H12        18.6710    8.1794   10.6803 H         1 6NZ         0.0282
     29 H13        17.8500    7.0449   11.8053 H         1 6NZ         0.0282
     30 H14        20.3418    7.5579   12.2380 H         1 6NZ         0.0266
     31 H15        19.2188    7.6809   13.6346 H         1 6NZ         0.0266
     32 H16        20.3601    9.9997   11.9781 H         1 6NZ         0.0265
     33 H17        20.7659    9.5819   13.6774 H         1 6NZ         0.0265
     34 H18        19.1488   11.4536   13.6400 H         1 6NZ         0.0266
     35 H19        18.3590    9.9871   14.3126 H         1 6NZ         0.0266
     36 H20        16.9025   11.1380   12.6296 H         1 6NZ         0.0282
     37 H21        18.1885   10.9324   11.3924 H         1 6NZ         0.0282
@<TRIPOS>BOND
     1    1    2 1  
     2    2    3 1  
     3    3    4 1  
     4    4    5 2  
     5    4    9 1  
     6    5    6 1  
     7    6    7 2  
     8    6   11 1  
     9    7    8 1  
    10    8    9 am 
    11    9   10 2  
    12   11   12 1  
    13   11   16 1  
    14   12   13 1  
    15   13   14 1  
    16   14   15 1  
    17   15   16 1  
    18    1   17 1  
    19    1   18 1  
    20    1   19 1  
    21    2   20 1  
    22    2   21 1  
    23    3   22 1  
    24    3   23 1  
    25    5   24 1  
    26    7   25 1  
    27    8   26 1  
    28   11   27 1  
    29   12   28 1  
    30   12   29 1  
    31   13   30 1  
    32   13   31 1  
    33   14   32 1  
    34   14   33 1  
    35   15   34 1  
    36   15   35 1  
    37   16   36 1  
    38   16   37 1  
@<TRIPOS>SUBSTRUCTURE
     1 6NZ         1

