### 
### Created by X-TOOL on Mon Sep 10 21:13:25 2018
### 

@<TRIPOS>MOLECULE
5am6_ligand
   51    55     1     0     0
SMALL
GAST_HUCK


@<TRIPOS>ATOM
      1 C1        220.0510  -10.4830   31.8860 C.3       1 38O        -0.0430
      2 C3        220.9950   -9.5940   29.8570 C.3       1 38O        -0.0122
      3 C4        220.6900   -9.4060   28.3760 C.3       1 38O         0.0656
      4 C6        218.8860   -7.8770   29.4100 C.3       1 38O         0.0656
      5 C7        218.8910   -8.7680   30.6600 C.3       1 38O        -0.0122
      6 C8        219.1620   -8.0260   26.9900 C.ar      1 38O         0.0257
      7 C12       217.0880   -7.6070   23.0210 C.2       1 38O         0.1113
      8 N13       217.9450   -6.6300   23.3430 N.2       1 38O        -0.3403
      9 C15       219.3650   -6.2640   25.3490 C.ar      1 38O        -0.0740
     10 C16       219.7080   -6.8140   26.5710 C.ar      1 38O        -0.0587
     11 C17       216.3180   -7.7190   21.7510 C.2       1 38O         0.1061
     12 C18       216.6060   -6.7820   20.6290 C.2       1 38O         0.0807
     13 C21       216.0000   -6.1170   18.1740 C.ar      1 38O         0.1442
     14 C23       215.2190   -6.3730   17.0370 C.ar      1 38O        -0.0339
     15 C24       214.2820   -7.4040   17.0320 C.ar      1 38O        -0.0695
     16 O29       215.0160   -9.5510   22.4660 O.2       1 38O        -0.4114
     17 N2        219.7510   -9.9570   30.5430 N.4       1 38O         0.2358
     18 N5        219.5800   -8.4680   28.2540 N.pl3     1 38O        -0.3042
     19 C9        218.2310   -8.7290   26.2010 C.ar      1 38O        -0.0269
     20 C10       217.8480   -8.2160   24.9560 C.ar      1 38O         0.0626
     21 N11       217.0250   -8.5950   23.9450 N.pl3     1 38O        -0.2633
     22 C14       218.4520   -6.9250   24.5400 C.ar      1 38O         0.0058
     23 N19       217.5420   -5.7970   20.7280 N.pl3     1 38O        -0.3193
     24 C20       215.8250   -6.9660   19.3770 C.ar      1 38O         0.0856
     25 F22       216.9150   -5.1280   18.1870 F         1 38O        -0.1786
     26 C25       214.0770   -8.2270   18.1430 C.ar      1 38O        -0.0338
     27 C26       214.8090   -8.0490   19.3190 C.ar      1 38O         0.0931
     28 N27       214.6160   -8.8510   20.3720 N.am      1 38O        -0.2313
     29 C28       215.2770   -8.7470   21.5410 C.2       1 38O         0.2047
     30 H1        220.6936  -11.3713   31.7967 H         1 38O         0.0778
     31 H2        219.1128  -10.7583   32.3900 H         1 38O         0.0778
     32 H3        220.5706   -9.7122   32.4741 H         1 38O         0.0778
     33 H4        221.3910   -8.6575   30.2766 H         1 38O         0.0834
     34 H5        221.7372  -10.3957   29.9847 H         1 38O         0.0834
     35 H6        220.4125  -10.3714   27.9276 H         1 38O         0.0564
     36 H7        221.5753   -9.0038   27.8618 H         1 38O         0.0564
     37 H8        219.3785   -6.9259   29.6605 H         1 38O         0.0564
     38 H9        217.8409   -7.6850   29.1256 H         1 38O         0.0564
     39 H10       217.8608   -9.1034   30.8501 H         1 38O         0.0834
     40 H11       219.2443   -8.1678   31.5115 H         1 38O         0.0834
     41 H12       219.8047   -5.3269   25.0270 H         1 38O         0.0507
     42 H13       220.4115   -6.2950   27.2119 H         1 38O         0.0439
     43 H14       215.3462   -5.7610   16.1514 H         1 38O         0.0504
     44 H15       213.6931   -7.5734   16.1378 H         1 38O         0.0622
     45 H16       219.2713  -10.6646   30.0089 H         1 38O         0.2032
     46 H17       217.8126   -9.6637   26.5564 H         1 38O         0.0413
     47 H18       216.4662   -9.4586   23.8916 H         1 38O         0.2242
     48 H19       218.0762   -5.6801   21.6008 H         1 38O         0.1858
     49 H20       217.7154   -5.1692   19.9300 H         1 38O         0.1858
     50 H21       213.3369   -9.0173   18.0909 H         1 38O         0.0497
     51 H22       213.9343   -9.5775   20.2854 H         1 38O         0.2359
@<TRIPOS>BOND
     1   17    1 1  
     2    3    2 1  
     3    2   17 1  
     4   18    3 1  
     5    4    5 1  
     6   18    4 1  
     7    5   17 1  
     8   10    6 ar 
     9    6   18 1  
    10    6   19 ar 
    11    7    8 2  
    12   11    7 1  
    13    7   21 1  
    14    8   22 1  
    15    9   10 ar 
    16   22    9 ar 
    17   12   11 2  
    18   11   29 1  
    19   12   23 1  
    20   24   12 1  
    21   13   14 ar 
    22   13   24 ar 
    23   13   25 1  
    24   14   15 ar 
    25   15   26 ar 
    26   29   16 2  
    27   19   20 ar 
    28   20   21 1  
    29   20   22 ar 
    30   24   27 ar 
    31   26   27 ar 
    32   27   28 1  
    33   28   29 am 
    34    1   30 1  
    35    1   31 1  
    36    1   32 1  
    37    2   33 1  
    38    2   34 1  
    39    3   35 1  
    40    3   36 1  
    41    4   37 1  
    42    4   38 1  
    43    5   39 1  
    44    5   40 1  
    45    9   41 1  
    46   10   42 1  
    47   14   43 1  
    48   15   44 1  
    49   17   45 1  
    50   19   46 1  
    51   21   47 1  
    52   23   48 1  
    53   23   49 1  
    54   26   50 1  
    55   28   51 1  
@<TRIPOS>SUBSTRUCTURE
     1 38O         1

