### 
### Created by X-TOOL on Mon Sep 10 21:13:24 2018
### 

@<TRIPOS>MOLECULE
5am7_ligand
   51    55     1     0     0
SMALL
GAST_HUCK


@<TRIPOS>ATOM
      1 C1        221.1200    2.4580   31.8530 C.3       1 38O        -0.0430
      2 C3        221.4130    2.7580   29.4910 C.3       1 38O        -0.0122
      3 C4        220.9230    2.3010   28.1230 C.3       1 38O         0.0656
      4 C6        218.5620    2.4750   29.0970 C.3       1 38O         0.0656
      5 C7        219.2260    2.8590   30.4150 C.3       1 38O        -0.0122
      6 C8        219.0890    3.2680   26.8140 C.ar      1 38O         0.0257
      7 C12       216.9120    3.7860   22.9210 C.2       1 38O         0.1113
      8 N13       217.7250    4.8110   23.2450 N.2       1 38O        -0.3403
      9 C15       219.1810    5.1310   25.2660 C.ar      1 38O        -0.0740
     10 C16       219.5800    4.5190   26.4510 C.ar      1 38O        -0.0587
     11 C17       216.0740    3.6230   21.7030 C.2       1 38O         0.1061
     12 C18       216.1910    4.6360   20.6230 C.2       1 38O         0.0807
     13 C21       215.3960    5.3590   18.2370 C.ar      1 38O         0.1442
     14 C23       214.5770    5.0890   17.1330 C.ar      1 38O        -0.0339
     15 C24       213.7210    3.9830   17.1360 C.ar      1 38O        -0.0695
     16 O29       214.9600    1.6500   22.4110 O.2       1 38O        -0.4114
     17 N2        220.5350    2.2030   30.5290 N.4       1 38O         0.2358
     18 N5        219.5220    2.6940   28.0150 N.pl3     1 38O        -0.3042
     19 C9        218.1820    2.5830   26.0060 C.ar      1 38O        -0.0269
     20 C10       217.7530    3.1500   24.8010 C.ar      1 38O         0.0626
     21 N11       216.9250    2.7660   23.8110 N.pl3     1 38O        -0.2633
     22 C14       218.2840    4.4830   24.4260 C.ar      1 38O         0.0058
     23 N19       217.0490    5.6690   20.7560 N.pl3     1 38O        -0.3193
     24 C20       215.3580    4.4430   19.4020 C.ar      1 38O         0.0856
     25 F22       216.2120    6.4340   18.2600 F         1 38O        -0.1786
     26 C25       213.6500    3.0910   18.2120 C.ar      1 38O        -0.0338
     27 C26       214.4370    3.2820   19.3520 C.ar      1 38O         0.0931
     28 N27       214.3930    2.4140   20.3750 N.am      1 38O        -0.2313
     29 C28       215.1030    2.5200   21.5180 C.2       1 38O         0.2047
     30 H1        222.0988    1.9610   31.9232 H         1 38O         0.0778
     31 H2        220.4513    2.0625   32.6317 H         1 38O         0.0778
     32 H3        221.2478    3.5413   31.9950 H         1 38O         0.0778
     33 H4        221.3926    3.8567   29.5409 H         1 38O         0.0834
     34 H5        222.4417    2.4027   29.6508 H         1 38O         0.0834
     35 H6        221.0161    1.2085   28.0346 H         1 38O         0.0564
     36 H7        221.5126    2.7847   27.3302 H         1 38O         0.0564
     37 H8        217.6706    3.0987   28.9345 H         1 38O         0.0564
     38 H9        218.2681    1.4153   29.1240 H         1 38O         0.0564
     39 H10       218.5857    2.5417   31.2513 H         1 38O         0.0834
     40 H11       219.3613    3.9501   30.4502 H         1 38O         0.0834
     41 H12       219.5681    6.1080   25.0001 H         1 38O         0.0507
     42 H13       220.2844    5.0247   27.1015 H         1 38O         0.0439
     43 H14       214.6070    5.7429   16.2690 H         1 38O         0.0504
     44 H15       213.0888    3.8102   16.2725 H         1 38O         0.0622
     45 H16       220.4303    1.2095   30.3944 H         1 38O         0.2032
     46 H17       217.8096    1.6118   26.3113 H         1 38O         0.0413
     47 H18       216.4075    1.8780   23.7445 H         1 38O         0.2242
     48 H19       217.6072    5.7674   21.6160 H         1 38O         0.1858
     49 H20       217.1457    6.3591   19.9975 H         1 38O         0.1858
     50 H21       212.9774    2.2425   18.1612 H         1 38O         0.0497
     51 H22       213.7852    1.6253   20.2828 H         1 38O         0.2359
@<TRIPOS>BOND
     1   17    1 1  
     2    3    2 1  
     3    2   17 1  
     4   18    3 1  
     5    4    5 1  
     6   18    4 1  
     7    5   17 1  
     8   10    6 ar 
     9    6   18 1  
    10    6   19 ar 
    11    7    8 2  
    12   11    7 1  
    13    7   21 1  
    14    8   22 1  
    15    9   10 ar 
    16   22    9 ar 
    17   12   11 2  
    18   11   29 1  
    19   12   23 1  
    20   24   12 1  
    21   13   14 ar 
    22   13   24 ar 
    23   13   25 1  
    24   14   15 ar 
    25   15   26 ar 
    26   29   16 2  
    27   19   20 ar 
    28   20   21 1  
    29   20   22 ar 
    30   24   27 ar 
    31   26   27 ar 
    32   27   28 1  
    33   28   29 am 
    34    1   30 1  
    35    1   31 1  
    36    1   32 1  
    37    2   33 1  
    38    2   34 1  
    39    3   35 1  
    40    3   36 1  
    41    4   37 1  
    42    4   38 1  
    43    5   39 1  
    44    5   40 1  
    45    9   41 1  
    46   10   42 1  
    47   14   43 1  
    48   15   44 1  
    49   17   45 1  
    50   19   46 1  
    51   21   47 1  
    52   23   48 1  
    53   23   49 1  
    54   26   50 1  
    55   28   51 1  
@<TRIPOS>SUBSTRUCTURE
     1 38O         1

