### 
### Created by X-TOOL on Mon Sep 10 21:13:21 2018
### 

@<TRIPOS>MOLECULE
5amd_ligand
   40    41     1     0     0
SMALL
GAST_HUCK


@<TRIPOS>ATOM
      1 O18        -3.2830    4.6210   11.5130 O.co2     1 45I        -0.5606
      2 C17        -4.1970    3.8140   11.5910 C.2       1 45I         0.0648
      3 O17        -4.9360    3.5660   10.5540 O.co2     1 45I        -0.5606
      4 C10        -4.6020    3.1450   12.8460 C.ar      1 45I         0.0369
      5 C9         -4.3310    1.7960   13.0080 C.ar      1 45I        -0.0438
      6 C8         -4.7270    1.1050   14.1700 C.ar      1 45I        -0.0314
      7 C7         -5.4430    1.7470   15.2210 C.ar      1 45I         0.1123
      8 S1         -5.9680    0.9880   16.6220 S.o2      1 45I         0.0670
      9 O6         -7.3720    1.2830   16.7910 O.2       1 45I        -0.1502
     10 N7         -5.7650   -0.5630   16.4590 N.am      1 45I        -0.2607
     11 O5         -5.1390    1.4140   17.6830 O.2       1 45I        -0.1502
     12 C12        -5.7440    3.1110   15.0450 C.ar      1 45I        -0.0048
     13 C11        -5.3820    3.8380   13.8920 C.ar      1 45I         0.1241
     14 S13        -5.7100    5.4360   13.7730 S.o2      1 45I         0.0705
     15 O15        -6.0530    5.9620   15.0450 O.2       1 45I        -0.1499
     16 O14        -6.4740    5.9030   12.6350 O.2       1 45I        -0.1499
     17 N16        -4.3290    6.1490   13.4110 N.am      1 45I        -0.2451
     18 C19        -3.2410    6.1690   14.3940 C.3       1 45I         0.0362
     19 C20        -1.9020    6.5410   13.7650 C.3       1 45I        -0.0022
     20 C21        -1.8250    8.0100   13.4830 C.ar      1 45I        -0.0415
     21 C26        -1.3400    8.8760   14.4620 C.ar      1 45I        -0.0603
     22 C25        -1.2690   10.2480   14.1970 C.ar      1 45I        -0.0686
     23 C24        -1.6610   10.7440   12.9470 C.ar      1 45I        -0.0687
     24 C23        -2.1510    9.8670   11.9670 C.ar      1 45I        -0.0686
     25 C22        -2.2210    8.4990   12.2340 C.ar      1 45I        -0.0603
     26 H1         -3.8041    1.2620   12.2255 H         1 45I         0.0652
     27 H2         -4.4797    0.0541   14.2672 H         1 45I         0.0644
     28 H3         -6.0241   -1.1818   17.2006 H         1 45I         0.1635
     29 H4         -5.3768   -0.9304   15.6138 H         1 45I         0.1635
     30 H5         -6.2797    3.6272   15.8335 H         1 45I         0.0664
     31 H6         -4.2060    6.5805   12.5173 H         1 45I         0.1674
     32 H7         -3.1543    5.1702   14.8466 H         1 45I         0.0498
     33 H8         -3.4824    6.9056   15.1745 H         1 45I         0.0498
     34 H9         -1.7828    5.9880   12.8216 H         1 45I         0.0442
     35 H10        -1.0920    6.2656   14.4564 H         1 45I         0.0442
     36 H11        -1.0199    8.4888   15.4226 H         1 45I         0.0557
     37 H12        -0.9099   10.9285   14.9606 H         1 45I         0.0599
     38 H13        -1.5859   11.8048   12.7367 H         1 45I         0.0559
     39 H14        -2.4740   10.2508   11.0061 H         1 45I         0.0599
     40 H15        -2.5821    7.8158   11.4738 H         1 45I         0.0557
@<TRIPOS>BOND
     1    1    2 ar 
     2    2    3 ar 
     3    2    4 1  
     4    4    5 ar 
     5    4   13 ar 
     6    5    6 ar 
     7    6    7 ar 
     8    7    8 1  
     9    7   12 ar 
    10    8    9 2  
    11    8   10 am 
    12    8   11 2  
    13   12   13 ar 
    14   13   14 1  
    15   14   15 2  
    16   14   16 2  
    17   14   17 am 
    18   17   18 1  
    19   18   19 1  
    20   19   20 1  
    21   20   21 ar 
    22   20   25 ar 
    23   21   22 ar 
    24   22   23 ar 
    25   23   24 ar 
    26   24   25 ar 
    27    5   26 1  
    28    6   27 1  
    29   10   28 1  
    30   10   29 1  
    31   12   30 1  
    32   17   31 1  
    33   18   32 1  
    34   18   33 1  
    35   19   34 1  
    36   19   35 1  
    37   21   36 1  
    38   22   37 1  
    39   23   38 1  
    40   24   39 1  
    41   25   40 1  
@<TRIPOS>SUBSTRUCTURE
     1 45I         1

