### 
### Created by X-TOOL on Mon Sep 10 21:13:21 2018
### 

@<TRIPOS>MOLECULE
5amg_ligand
   39    39     1     0     0
SMALL
GAST_HUCK


@<TRIPOS>ATOM
      1 O5         -7.3700    1.3400   16.8430 O.2       1 IW7        -0.1502
      2 S1         -5.9870    1.0240   16.5680 S.o2      1 IW7         0.0670
      3 O6         -5.1090    1.3840   17.6380 O.2       1 IW7        -0.1502
      4 N7         -5.7910   -0.5430   16.4470 N.am      1 IW7        -0.2607
      5 C7         -5.4810    1.7990   15.1870 C.ar      1 IW7         0.1123
      6 C8         -4.7720    1.1350   14.1540 C.ar      1 IW7        -0.0314
      7 C9         -4.3500    1.7960   12.9910 C.ar      1 IW7        -0.0438
      8 C10        -4.6250    3.1460   12.8210 C.ar      1 IW7         0.0369
      9 C17        -4.2130    3.7870   11.5530 C.2       1 IW7         0.0648
     10 O18        -4.8070    3.4890   10.5540 O.co2     1 IW7        -0.5606
     11 O17        -3.2720    4.7000   11.5270 O.co2     1 IW7        -0.5606
     12 C12        -5.8010    3.1610   15.0110 C.ar      1 IW7        -0.0048
     13 C11        -5.4060    3.8630   13.8590 C.ar      1 IW7         0.1241
     14 S13        -5.7460    5.4430   13.7160 S.o2      1 IW7         0.0704
     15 O15        -6.4930    5.8670   12.5710 O.2       1 IW7        -0.1499
     16 O14        -6.1440    5.9890   14.9510 O.2       1 IW7        -0.1499
     17 N16        -4.3680    6.2280   13.4460 N.am      1 IW7        -0.2471
     18 C19        -3.3230    6.2750   14.4680 C.3       1 IW7         0.0266
     19 C20        -2.1110    7.0870   14.0000 C.3       1 IW7        -0.0361
     20 C21        -1.9600    8.3750   14.7620 C.3       1 IW7        -0.0519
     21 C29        -0.8070    9.2180   14.2070 C.3       1 IW7        -0.0559
     22 C30        -1.2430   10.4100   13.3730 C.3       1 IW7        -0.0653
     23 H1         -6.3008   -1.0590   15.7586 H         1 IW7         0.1635
     24 H2         -5.1574   -1.0164   17.0590 H         1 IW7         0.1635
     25 H3         -4.5484    0.0803   14.2669 H         1 IW7         0.0644
     26 H4         -3.8090    1.2525   12.2248 H         1 IW7         0.0652
     27 H5         -6.3635    3.6776   15.7803 H         1 IW7         0.0664
     28 H6         -4.2245    6.6887   12.5701 H         1 IW7         0.1673
     29 H7         -2.9988    5.2485   14.6943 H         1 IW7         0.0475
     30 H8         -3.7336    6.7387   15.3770 H         1 IW7         0.0475
     31 H9         -2.2319    7.3198   12.9317 H         1 IW7         0.0281
     32 H10        -1.2032    6.4825   14.1431 H         1 IW7         0.0281
     33 H11        -1.7593    8.1448   15.8187 H         1 IW7         0.0266
     34 H12        -2.8945    8.9498   14.6830 H         1 IW7         0.0266
     35 H13        -0.1792    8.5698   13.5779 H         1 IW7         0.0263
     36 H14        -0.2144    9.5907   15.0555 H         1 IW7         0.0263
     37 H15        -0.3550   10.9538   13.0184 H         1 IW7         0.0230
     38 H16        -1.8624   11.0803   13.9870 H         1 IW7         0.0230
     39 H17        -1.8272   10.0593   12.5095 H         1 IW7         0.0230
@<TRIPOS>BOND
     1    1    2 2  
     2    2    3 2  
     3    2    4 am 
     4    2    5 1  
     5    5    6 ar 
     6    5   12 ar 
     7    6    7 ar 
     8    7    8 ar 
     9    8    9 1  
    10    8   13 ar 
    11    9   10 ar 
    12    9   11 ar 
    13   12   13 ar 
    14   13   14 1  
    15   14   15 2  
    16   14   16 2  
    17   14   17 am 
    18   17   18 1  
    19   18   19 1  
    20   19   20 1  
    21   20   21 1  
    22   21   22 1  
    23    4   23 1  
    24    4   24 1  
    25    6   25 1  
    26    7   26 1  
    27   12   27 1  
    28   17   28 1  
    29   18   29 1  
    30   18   30 1  
    31   19   31 1  
    32   19   32 1  
    33   20   33 1  
    34   20   34 1  
    35   21   35 1  
    36   21   36 1  
    37   22   37 1  
    38   22   38 1  
    39   22   39 1  
@<TRIPOS>SUBSTRUCTURE
     1 IW7         1

