### 
### Created by X-TOOL on Mon Sep 10 21:13:20 2018
### 

@<TRIPOS>MOLECULE
5aml_ligand
   32    32     1     0     0
SMALL
GAST_HUCK


@<TRIPOS>ATOM
      1 O14        -6.2510    5.9320   14.9740 O.2       1 51J        -0.1498
      2 S13        -5.6280    5.5060   13.7570 S.o2      1 51J         0.0712
      3 O15        -6.3120    5.7830   12.5660 O.2       1 51J        -0.1498
      4 N16        -4.2310    6.3380   13.6400 N.am      1 51J        -0.2353
      5 C19        -3.3990    6.3880   14.8350 C.3       1 51J         0.0875
      6 C20        -2.4740    7.5090   14.7990 C.1       1 51J        -0.0823
      7 C21        -1.7400    8.4230   14.7690 C.1       1 51J        -0.1040
      8 C29        -0.8400    9.5600   14.7250 C.3       1 51J        -0.0025
      9 C11        -5.2670    3.8860   13.8640 C.ar      1 51J         0.1241
     10 C10        -4.5170    3.1520   12.8300 C.ar      1 51J         0.0369
     11 C9         -4.3040    1.8020   13.0520 C.ar      1 51J        -0.0438
     12 C17        -4.1150    3.7680   11.5380 C.2       1 51J         0.0648
     13 O17        -4.5970    3.3040   10.4770 O.co2     1 51J        -0.5606
     14 O18        -3.3490    4.7410   11.5530 O.co2     1 51J        -0.5606
     15 C12        -5.6790    3.1550   15.0090 C.ar      1 51J        -0.0048
     16 C7         -5.3640    1.7980   15.2430 C.ar      1 51J         0.1123
     17 C8         -4.6860    1.1370   14.1970 C.ar      1 51J        -0.0314
     18 S1         -5.9180    0.9820   16.6330 S.o2      1 51J         0.0670
     19 O6         -7.3430    1.3090   16.7330 O.2       1 51J        -0.1502
     20 O5         -5.0780    1.3780   17.7110 O.2       1 51J        -0.1502
     21 N7         -5.7290   -0.5660   16.4200 N.am      1 51J        -0.2607
     22 H1         -3.9589    6.7911   12.7911 H         1 51J         0.1684
     23 H2         -2.8237    5.4533   14.9084 H         1 51J         0.0611
     24 H3         -4.0479    6.4894   15.7174 H         1 51J         0.0611
     25 H4          0.0724    9.3276   15.2938 H         1 51J         0.0362
     26 H5         -1.3349   10.4368   15.1681 H         1 51J         0.0362
     27 H6         -0.5750    9.7777   13.6798 H         1 51J         0.0362
     28 H7         -3.8053    1.2323   12.2763 H         1 51J         0.0652
     29 H8         -6.2745    3.6721   15.7527 H         1 51J         0.0664
     30 H9         -4.4603    0.0814   14.2963 H         1 51J         0.0644
     31 H10        -6.0015   -1.2065   17.1380 H         1 51J         0.1635
     32 H11        -5.3364   -0.9090   15.5667 H         1 51J         0.1635
@<TRIPOS>BOND
     1    1    2 2  
     2    2    3 2  
     3    2    4 am 
     4    2    9 1  
     5    4    5 1  
     6    5    6 1  
     7    6    7 3  
     8    7    8 1  
     9    9   10 ar 
    10    9   15 ar 
    11   10   11 ar 
    12   10   12 1  
    13   11   17 ar 
    14   12   13 ar 
    15   12   14 ar 
    16   15   16 ar 
    17   16   17 ar 
    18   16   18 1  
    19   18   19 2  
    20   18   20 2  
    21   18   21 am 
    22    4   22 1  
    23    5   23 1  
    24    5   24 1  
    25    8   25 1  
    26    8   26 1  
    27    8   27 1  
    28   11   28 1  
    29   15   29 1  
    30   17   30 1  
    31   21   31 1  
    32   21   32 1  
@<TRIPOS>SUBSTRUCTURE
     1 51J         1

