### 
### Created by X-TOOL on Mon Sep 10 21:13:28 2018
### 

@<TRIPOS>MOLECULE
5amn_ligand
   37    39     1     0     0
SMALL
GAST_HUCK


@<TRIPOS>ATOM
      1 N1         71.3140  -10.3800   11.3580 N.ar      1 DTQ        -0.2606
      2 C2         71.5650   -9.2510   12.0300 C.ar      1 DTQ         0.0529
      3 N3         72.7180   -8.6500   12.2310 N.ar      1 DTQ        -0.3051
      4 C4         73.8180   -9.2790   11.6800 C.ar      1 DTQ         0.0267
      5 C5         73.7020  -10.4740   10.9600 C.ar      1 DTQ         0.0395
      6 C6         72.3650  -10.9930   10.8130 C.ar      1 DTQ         0.1507
      7 C7         75.0910   -8.6930   11.8520 C.ar      1 DTQ        -0.0167
      8 C8         76.2110   -9.2810   11.3230 C.ar      1 DTQ         0.1323
      9 C9         76.1010  -10.4830   10.5970 C.ar      1 DTQ         0.1320
     10 C10        74.8660  -11.0650   10.4190 C.ar      1 DTQ        -0.0171
     11 N12        72.1490  -12.1660   10.1630 N.pl3     1 DTQ        -0.2510
     12 C14        70.9200  -12.7360    9.7730 C.ar      1 DTQ         0.0587
     13 C15        70.7790  -14.1130    9.8440 C.ar      1 DTQ        -0.0098
     14 C16        69.5740  -14.7040    9.4840 C.ar      1 DTQ         0.0787
     15 C17        68.5210  -13.9200    9.0400 C.ar      1 DTQ        -0.0443
     16 C18        68.6780  -12.5500    8.9660 C.ar      1 DTQ        -0.0792
     17 C19        69.8660  -11.9520    9.3370 C.ar      1 DTQ        -0.0481
     18 O21        69.4610  -16.0540    9.5770 O.3       1 DTQ        -0.3359
     19 O26        77.4810   -8.7910   11.4380 O.3       1 DTQ        -0.3161
     20 C27        77.6530   -7.5710   12.1520 C.3       1 DTQ         0.0601
     21 O31        77.2850  -10.9730   10.1190 O.3       1 DTQ        -0.3198
     22 C32        77.2480  -12.1880    9.3810 C.3       1 DTQ         0.0583
     23 H1         70.7009   -8.7652   12.4686 H         1 DTQ         0.1018
     24 H2         75.1840   -7.7675   12.4087 H         1 DTQ         0.0496
     25 H3         74.7856  -11.9883    9.8567 H         1 DTQ         0.0547
     26 H4         72.9913  -12.7087    9.9244 H         1 DTQ         0.2211
     27 H5         71.6067  -14.7274   10.1795 H         1 DTQ         0.0460
     28 H6         67.5816  -14.3785    8.7531 H         1 DTQ         0.0453
     29 H7         67.8578  -11.9360    8.6120 H         1 DTQ         0.0562
     30 H8         69.9726  -10.8744    9.2871 H         1 DTQ         0.0452
     31 H9         69.2675  -16.4143    8.7195 H         1 DTQ         0.2478
     32 H10        78.7191   -7.3001   12.1635 H         1 DTQ         0.0579
     33 H11        77.2955   -7.6969   13.1846 H         1 DTQ         0.0579
     34 H12        77.0774   -6.7735   11.6594 H         1 DTQ         0.0579
     35 H13        78.2668  -12.4556    9.0640 H         1 DTQ         0.0575
     36 H14        76.6100  -12.0591    8.4942 H         1 DTQ         0.0575
     37 H15        76.8387  -12.9892   10.0139 H         1 DTQ         0.0575
@<TRIPOS>BOND
     1    1    2 ar 
     2    1    6 ar 
     3    2    3 ar 
     4    3    4 ar 
     5    4    5 ar 
     6    4    7 ar 
     7    5    6 ar 
     8    5   10 ar 
     9    6   11 1  
    10    7    8 ar 
    11    8    9 ar 
    12    8   19 1  
    13    9   10 ar 
    14    9   21 1  
    15   11   12 1  
    16   12   13 ar 
    17   12   17 ar 
    18   13   14 ar 
    19   14   15 ar 
    20   14   18 1  
    21   15   16 ar 
    22   16   17 ar 
    23   19   20 1  
    24   21   22 1  
    25    2   23 1  
    26    7   24 1  
    27   10   25 1  
    28   11   26 1  
    29   13   27 1  
    30   15   28 1  
    31   16   29 1  
    32   17   30 1  
    33   18   31 1  
    34   20   32 1  
    35   20   33 1  
    36   20   34 1  
    37   22   35 1  
    38   22   36 1  
    39   22   37 1  
@<TRIPOS>SUBSTRUCTURE
     1 DTQ         1

