### 
### Created by X-TOOL on Mon Sep 10 21:13:28 2018
### 

@<TRIPOS>MOLECULE
5anq_ligand
   35    37     1     0     0
SMALL
GAST_HUCK


@<TRIPOS>ATOM
      1 C01       143.6320   55.8470   31.7370 C.ar      1 5YQ        -0.0069
      2 C02       143.6270   54.9840   30.6550 C.ar      1 5YQ         0.0334
      3 C03       142.4930   54.2340   30.4090 C.ar      1 5YQ        -0.0173
      4 C04       141.4150   54.3830   31.2580 C.ar      1 5YQ         0.0177
      5 N05       141.4050   55.2120   32.3050 N.ar      1 5YQ        -0.2818
      6 C06       142.5060   55.9350   32.5390 C.ar      1 5YQ         0.0782
      7 C07       144.8410   54.8700   29.7670 C.2       1 5YQ         0.0727
      8 O08       145.9640   55.0180   30.2970 O.co2     1 5YQ        -0.5574
      9 O09       144.6520   54.6350   28.5530 O.co2     1 5YQ        -0.5574
     10 C10       142.4690   56.8050   33.6560 C.ar      1 5YQ         0.0721
     11 N11       141.2830   57.3080   34.0120 N.ar      1 5YQ        -0.2470
     12 C12       141.2540   58.1380   35.0790 C.ar      1 5YQ         0.1934
     13 N13       142.3210   58.5010   35.8130 N.ar      1 5YQ        -0.2537
     14 C14       143.4920   57.9820   35.4320 C.ar      1 5YQ         0.0149
     15 C15       143.6100   57.1310   34.3600 C.ar      1 5YQ        -0.0141
     16 N16       140.0670   58.6390   35.4330 N.pl3     1 5YQ        -0.2764
     17 C17       139.9020   59.7290   36.3840 C.3       1 5YQ         0.0705
     18 C18       140.6220   60.9870   35.9800 C.ar      1 5YQ         0.0073
     19 C19       141.0000   61.2010   34.6720 C.ar      1 5YQ         0.0145
     20 N20       141.6420   62.2950   34.2430 N.ar      1 5YQ        -0.3043
     21 C21       141.9270   63.2310   35.1530 C.ar      1 5YQ         0.0042
     22 C22       141.5910   63.1110   36.4820 C.ar      1 5YQ        -0.0404
     23 C23       140.9320   61.9750   36.8920 C.ar      1 5YQ        -0.0385
     24 H1        144.5078   56.4477   31.9545 H         1 5YQ         0.0781
     25 H2        142.4510   53.5469   29.5716 H         1 5YQ         0.0764
     26 H3        140.5261   53.7937   31.0639 H         1 5YQ         0.0843
     27 H4        144.3836   58.2427   35.9906 H         1 5YQ         0.0895
     28 H5        144.5743   56.7262   34.0747 H         1 5YQ         0.0681
     29 H6        139.2213   58.2312   35.0094 H         1 5YQ         0.1890
     30 H7        140.2908   59.4026   37.3598 H         1 5YQ         0.0703
     31 H8        138.8291   59.9545   36.4736 H         1 5YQ         0.0703
     32 H9        140.7623   60.4342   33.9436 H         1 5YQ         0.0766
     33 H10       142.4466   64.1257   34.8296 H         1 5YQ         0.0767
     34 H11       141.8398   63.8936   37.1896 H         1 5YQ         0.0693
     35 H12       140.6558   61.8559   37.9334 H         1 5YQ         0.0679
@<TRIPOS>BOND
     1    1    2 ar 
     2    1    6 ar 
     3    2    3 ar 
     4    2    7 1  
     5    3    4 ar 
     6    4    5 ar 
     7    5    6 ar 
     8    6   10 1  
     9    7    8 ar 
    10    7    9 ar 
    11   10   11 ar 
    12   10   15 ar 
    13   11   12 ar 
    14   12   13 ar 
    15   12   16 1  
    16   13   14 ar 
    17   14   15 ar 
    18   16   17 1  
    19   17   18 1  
    20   18   19 ar 
    21   18   23 ar 
    22   19   20 ar 
    23   20   21 ar 
    24   21   22 ar 
    25   22   23 ar 
    26    1   24 1  
    27    3   25 1  
    28    4   26 1  
    29   14   27 1  
    30   15   28 1  
    31   16   29 1  
    32   17   30 1  
    33   17   31 1  
    34   19   32 1  
    35   21   33 1  
    36   22   34 1  
    37   23   35 1  
@<TRIPOS>SUBSTRUCTURE
     1 5YQ         1

