### 
### Created by X-TOOL on Mon Sep 10 21:13:29 2018
### 

@<TRIPOS>MOLECULE
5ans_ligand
   45    47     1     0     0
SMALL
GAST_HUCK


@<TRIPOS>ATOM
      1 O1        -26.2280   -2.1330   -5.2360 O.3       1 RX8        -0.3864
      2 C10       -27.4080   -2.9360   -5.3910 C.3       1 RX8         0.0877
      3 C11       -28.4590   -2.4540   -4.3850 C.3       1 RX8        -0.0337
      4 C12       -27.9480   -2.6100   -6.7920 C.3       1 RX8        -0.0337
      5 C9        -27.1140   -4.4520   -5.1580 C.3       1 RX8         0.0884
      6 N3        -26.0460   -4.8260   -6.0950 N.pl3     1 RX8        -0.2220
      7 C5        -24.7060   -4.6220   -5.9050 C.2       1 RX8         0.1517
      8 C6        -24.0700   -4.0640   -4.6560 C.3       1 RX8         0.1285
      9 O         -24.4070   -4.9670   -3.5920 O.3       1 RX8        -0.3589
     10 C7        -24.2520   -4.4670   -2.2630 C.3       1 RX8         0.0485
     11 C8        -24.5960   -5.5790   -1.2720 C.3       1 RX8        -0.0413
     12 N2        -24.0470   -4.9910   -6.9600 N.2       1 RX8        -0.3096
     13 C4        -24.9180   -5.4510   -7.8780 C.ar      1 RX8         0.0748
     14 C         -24.7410   -5.9640   -9.1740 C.ar      1 RX8         0.1060
     15 N         -23.4510   -5.9960   -9.6760 N.pl3     1 RX8        -0.3203
     16 C3        -26.2100   -5.3530   -7.3450 C.ar      1 RX8         0.1040
     17 C2        -27.3300   -5.8140   -8.1720 C.ar      1 RX8         0.0174
     18 C13       -28.6640   -5.8120   -7.7320 C.ar      1 RX8        -0.0565
     19 C14       -29.6600   -6.2840   -8.5480 C.ar      1 RX8        -0.0663
     20 C15       -29.3660   -6.7700   -9.8250 C.ar      1 RX8        -0.0669
     21 C16       -28.0780   -6.7850  -10.2850 C.ar      1 RX8        -0.0559
     22 C1        -27.0300   -6.3240   -9.4690 C.ar      1 RX8         0.0126
     23 N1        -25.7580   -6.3460   -9.9080 N.ar      1 RX8        -0.3109
     24 H1        -26.4421   -1.2223   -5.4010 H         1 RX8         0.2103
     25 H2        -29.3715   -3.0592   -4.4898 H         1 RX8         0.0258
     26 H3        -28.6954   -1.3975   -4.5796 H         1 RX8         0.0258
     27 H4        -28.0644   -2.5594   -3.3636 H         1 RX8         0.0258
     28 H5        -28.8601   -3.1958   -6.9788 H         1 RX8         0.0258
     29 H6        -27.1884   -2.8639   -7.5460 H         1 RX8         0.0258
     30 H7        -28.1822   -1.5370   -6.8542 H         1 RX8         0.0258
     31 H8        -28.0172   -5.0478   -5.3560 H         1 RX8         0.0641
     32 H9        -26.7844   -4.6190   -4.1219 H         1 RX8         0.0641
     33 H10       -24.4663   -3.0602   -4.4430 H         1 RX8         0.0824
     34 H11       -22.9781   -4.0091   -4.7769 H         1 RX8         0.0824
     35 H12       -24.9278   -3.6129   -2.1087 H         1 RX8         0.0560
     36 H13       -23.2118   -4.1441   -2.1090 H         1 RX8         0.0560
     37 H14       -24.4796   -5.2035   -0.2447 H         1 RX8         0.0252
     38 H15       -23.9200   -6.4324   -1.4292 H         1 RX8         0.0252
     39 H16       -25.6360   -5.9012   -1.4289 H         1 RX8         0.0252
     40 H17       -23.2754   -6.3641  -10.6218 H         1 RX8         0.1804
     41 H18       -22.6669   -5.6517   -9.1036 H         1 RX8         0.1804
     42 H19       -28.9069   -5.4363   -6.7446 H         1 RX8         0.0614
     43 H20       -30.6862   -6.2801   -8.1989 H         1 RX8         0.0573
     44 H21       -30.1662   -7.1385  -10.4567 H         1 RX8         0.0603
     45 H22       -27.8646   -7.1535  -11.2819 H         1 RX8         0.0575
@<TRIPOS>BOND
     1    1    2 1  
     2    2    3 1  
     3    2    4 1  
     4    2    5 1  
     5    5    6 1  
     6    6    7 1  
     7    6   16 1  
     8    7    8 1  
     9    7   12 2  
    10    8    9 1  
    11    9   10 1  
    12   10   11 1  
    13   12   13 1  
    14   13   14 ar 
    15   13   16 ar 
    16   14   15 1  
    17   14   23 ar 
    18   16   17 ar 
    19   17   18 ar 
    20   17   22 ar 
    21   18   19 ar 
    22   19   20 ar 
    23   20   21 ar 
    24   21   22 ar 
    25   22   23 ar 
    26    1   24 1  
    27    3   25 1  
    28    3   26 1  
    29    3   27 1  
    30    4   28 1  
    31    4   29 1  
    32    4   30 1  
    33    5   31 1  
    34    5   32 1  
    35    8   33 1  
    36    8   34 1  
    37   10   35 1  
    38   10   36 1  
    39   11   37 1  
    40   11   38 1  
    41   11   39 1  
    42   15   40 1  
    43   15   41 1  
    44   18   42 1  
    45   19   43 1  
    46   20   44 1  
    47   21   45 1  
@<TRIPOS>SUBSTRUCTURE
     1 RX8         1

