### 
### Created by X-TOOL on Mon Sep 10 21:13:28 2018
### 

@<TRIPOS>MOLECULE
5anw_ligand
   41    43     1     0     0
SMALL
GAST_HUCK


@<TRIPOS>ATOM
      1 O           8.7850   20.5660    2.9970 O.2       1 9CQ        -0.3936
      2 C2          9.4420   20.6420    4.0280 C.2       1 9CQ         0.1907
      3 N           9.7910   19.5350    4.7150 N.am      1 9CQ        -0.2775
      4 C1         10.6030   19.5280    5.9320 C.3       1 9CQ         0.0224
      5 C           9.3600   18.2070    4.2830 C.3       1 9CQ         0.0224
      6 C3          9.9400   22.0040    4.4920 C.3       1 9CQ         0.0735
      7 C4         11.4320   22.1290    4.2910 C.ar      1 9CQ        -0.0179
      8 C9         12.0210   21.7810    3.0810 C.ar      1 9CQ        -0.0507
      9 C8         13.3970   21.7320    2.9480 C.ar      1 9CQ        -0.0506
     10 C7         14.2280   22.1050    4.0020 C.ar      1 9CQ         0.0058
     11 C6         13.6360   22.4030    5.2260 C.ar      1 9CQ        -0.0506
     12 C5         12.2620   22.4290    5.3630 C.ar      1 9CQ        -0.0507
     13 C10        15.6970   21.9620    3.9350 C.ar      1 9CQ         0.0663
     14 N2         16.2200   21.1370    4.8370 N.ar      1 9CQ        -0.2461
     15 C17        17.5610   20.9810    4.8420 C.ar      1 9CQ         0.1772
     16 N3         18.0570   20.1670    5.7760 N.pl3     1 9CQ        -0.3044
     17 N1         18.4170   21.5120    3.9510 N.ar      1 9CQ        -0.2733
     18 C16        17.8800   22.3460    3.0060 C.ar      1 9CQ         0.0370
     19 C11        16.4870   22.5860    2.9200 C.ar      1 9CQ         0.0251
     20 C15        18.7430   22.9700    2.0660 C.ar      1 9CQ        -0.0429
     21 C14        18.2370   23.8110    1.1070 C.ar      1 9CQ        -0.0574
     22 C13        16.8770   24.0990    1.0630 C.ar      1 9CQ        -0.0564
     23 C12        16.0140   23.5110    1.9490 C.ar      1 9CQ        -0.0449
     24 H1         10.7328   18.4927    6.2802 H         1 9CQ         0.0486
     25 H2         10.0989   20.1168    6.7125 H         1 9CQ         0.0486
     26 H3         11.5877   19.9692    5.7183 H         1 9CQ         0.0486
     27 H4          8.7578   18.2970    3.3669 H         1 9CQ         0.0486
     28 H5          8.7549   17.7421    5.0753 H         1 9CQ         0.0486
     29 H6         10.2428   17.5824    4.0816 H         1 9CQ         0.0486
     30 H7          9.7089   22.1273    5.5603 H         1 9CQ         0.0674
     31 H8          9.4316   22.7896    3.9138 H         1 9CQ         0.0674
     32 H9         11.3931   21.5447    2.2295 H         1 9CQ         0.0580
     33 H10        13.8336   21.3996    2.0131 H         1 9CQ         0.0658
     34 H11        14.2625   22.6178    6.0841 H         1 9CQ         0.0658
     35 H12        11.8253   22.6873    6.3210 H         1 9CQ         0.0580
     36 H13        17.4304   19.7424    6.4746 H         1 9CQ         0.1831
     37 H14        19.0664   19.9633    5.7983 H         1 9CQ         0.1831
     38 H15        19.8095   22.7804    2.1065 H         1 9CQ         0.0610
     39 H16        18.9037   24.2552    0.3767 H         1 9CQ         0.0668
     40 H17        16.4975   24.7936    0.3223 H         1 9CQ         0.0616
     41 H18        14.9582   23.7535    1.9097 H         1 9CQ         0.0672
@<TRIPOS>BOND
     1    1    2 2  
     2    2    3 am 
     3    2    6 1  
     4    3    4 1  
     5    3    5 1  
     6    6    7 1  
     7    7    8 ar 
     8    7   12 ar 
     9    8    9 ar 
    10    9   10 ar 
    11   10   11 ar 
    12   10   13 1  
    13   11   12 ar 
    14   13   14 ar 
    15   13   19 ar 
    16   14   15 ar 
    17   15   16 1  
    18   15   17 ar 
    19   17   18 ar 
    20   18   19 ar 
    21   18   20 ar 
    22   19   23 ar 
    23   20   21 ar 
    24   21   22 ar 
    25   22   23 ar 
    26    4   24 1  
    27    4   25 1  
    28    4   26 1  
    29    5   27 1  
    30    5   28 1  
    31    5   29 1  
    32    6   30 1  
    33    6   31 1  
    34    8   32 1  
    35    9   33 1  
    36   11   34 1  
    37   12   35 1  
    38   16   36 1  
    39   16   37 1  
    40   20   38 1  
    41   21   39 1  
    42   22   40 1  
    43   23   41 1  
@<TRIPOS>SUBSTRUCTURE
     1 9CQ         1

