### 
### Created by X-TOOL on Mon Sep 10 21:13:23 2018
### 

@<TRIPOS>MOLECULE
5aoi_ligand
   34    35     1     0     0
SMALL
GAST_HUCK


@<TRIPOS>ATOM
      1 N1        122.2150  103.4990  -46.6050 N.pl3     1 RZH        -0.2830
      2 C1        123.5600  103.4620  -44.7920 C.ar      1 RZH        -0.0349
      3 C2        123.0980  102.6770  -45.8760 C.ar      1 RZH         0.0616
      4 C3        122.9500  104.7840  -44.8850 C.2       1 RZH        -0.0447
      5 C4        122.1150  104.7670  -46.0210 C.2       1 RZH         0.0345
      6 C5        123.4910  101.3380  -46.0930 C.ar      1 RZH        -0.0264
      7 C6        124.4540  102.8920  -43.8870 C.ar      1 RZH        -0.0773
      8 C7        124.3940  100.8080  -45.1610 C.ar      1 RZH        -0.0701
      9 C8        124.8640  101.5730  -44.0780 C.ar      1 RZH        -0.0161
     10 BR        126.1170  100.8050  -42.8000 Br        1 RZH        -0.0642
     11 C9        123.1590  105.9500  -43.9160 C.3       1 RZH        -0.0018
     12 C10       121.2670  105.9140  -46.5270 C.3       1 RZH        -0.0125
     13 N2        124.5580  107.8050  -43.2790 N.4       1 RZH         0.2192
     14 C11       122.9810  100.5110  -47.2640 C.3       1 RZH        -0.0250
     15 C12       124.3040  106.8460  -44.3500 C.3       1 RZH        -0.0332
     16 C13       124.0780   99.5790  -47.7380 C.3       1 RZH        -0.0567
     17 H1        121.7108  103.2057  -47.4539 H         1 RZH         0.2211
     18 H2        124.8255  103.4664  -43.0461 H         1 RZH         0.0480
     19 H3        124.7376   99.7865  -45.2773 H         1 RZH         0.0450
     20 H4        123.3814  105.5470  -42.9169 H         1 RZH         0.0373
     21 H5        122.2362  106.5472  -43.8734 H         1 RZH         0.0373
     22 H6        121.3915  106.7825  -45.8635 H         1 RZH         0.0407
     23 H7        120.2097  105.6107  -46.5395 H         1 RZH         0.0407
     24 H8        121.5835  106.1825  -47.5457 H         1 RZH         0.0407
     25 H9        125.3168  108.4128  -43.5452 H         1 RZH         0.1995
     26 H10       124.8039  107.3100  -42.4360 H         1 RZH         0.1995
     27 H11       123.7287  108.3545  -43.1163 H         1 RZH         0.1995
     28 H12       122.6878  101.1806  -48.0860 H         1 RZH         0.0406
     29 H13       122.1102   99.9199  -46.9441 H         1 RZH         0.0406
     30 H14       124.0311  107.3800  -45.2721 H         1 RZH         0.0825
     31 H15       125.2044  106.2403  -44.5298 H         1 RZH         0.0825
     32 H16       123.7103   98.9806  -48.5846 H         1 RZH         0.0250
     33 H17       124.3711   98.9096  -46.9158 H         1 RZH         0.0250
     34 H18       124.9488  100.1702  -48.0577 H         1 RZH         0.0250
@<TRIPOS>BOND
     1    1    3 1  
     2    1    5 1  
     3    3    2 ar 
     4    2    4 1  
     5    2    7 ar 
     6    3    6 ar 
     7    4    5 2  
     8    4   11 1  
     9    5   12 1  
    10    6    8 ar 
    11    6   14 1  
    12    7    9 ar 
    13    8    9 ar 
    14    9   10 1  
    15   11   15 1  
    16   15   13 1  
    17   14   16 1  
    18    1   17 1  
    19    7   18 1  
    20    8   19 1  
    21   11   20 1  
    22   11   21 1  
    23   12   22 1  
    24   12   23 1  
    25   12   24 1  
    26   13   25 1  
    27   13   26 1  
    28   13   27 1  
    29   14   28 1  
    30   14   29 1  
    31   15   30 1  
    32   15   31 1  
    33   16   32 1  
    34   16   33 1  
    35   16   34 1  
@<TRIPOS>SUBSTRUCTURE
     1 RZH         1

