### 
### Created by X-TOOL on Mon Sep 10 21:13:20 2018
### 

@<TRIPOS>MOLECULE
5aoj_ligand
   23    24     1     0     0
SMALL
GAST_HUCK


@<TRIPOS>ATOM
      1 C1         90.9370   95.4720  -44.7510 C.ar      1 Y0V         0.0376
      2 I1         92.4310   94.3090  -40.8100 I         1 Y0V        -0.0589
      3 N1         92.5010   91.9530  -42.9970 N.pl3     1 Y0V        -0.2383
      4 O1         90.2040   97.7230  -44.6300 O.co2     1 Y0V        -0.5660
      5 C2         91.0430   94.3050  -45.5300 C.ar      1 Y0V        -0.0462
      6 I2         91.5860   91.4910  -46.4040 I         1 Y0V        -0.0599
      7 O2         91.2350   96.5930  -42.6750 O.3       1 Y0V        -0.3274
      8 C3         91.5490   93.1040  -45.0100 C.ar      1 Y0V         0.0389
      9 O3         90.1910   96.6550  -46.6390 O.co2     1 Y0V        -0.5660
     10 C4         91.9550   93.0810  -43.6520 C.ar      1 Y0V         0.1093
     11 C5         91.8570   94.2580  -42.8690 C.ar      1 Y0V         0.0771
     12 C6         91.3450   95.4450  -43.4190 C.ar      1 Y0V         0.1128
     13 C7         93.8520   91.7770  -42.7550 C.2       1 Y0V         0.0303
     14 C8         94.0310   90.5990  -42.0640 C.2       1 Y0V        -0.0833
     15 C9         92.7490   90.0330  -41.8770 C.2       1 Y0V        -0.0833
     16 C10        91.8270   90.8810  -42.4540 C.2       1 Y0V         0.0303
     17 C11        90.3940   96.7170  -45.3840 C.2       1 Y0V         0.0551
     18 H1         90.7234   94.3348  -46.5654 H         1 Y0V         0.0657
     19 H2         90.3247   96.8631  -42.6442 H         1 Y0V         0.2517
     20 H3         94.6443   92.4586  -43.0609 H         1 Y0V         0.0816
     21 H4         94.9790   90.1830  -41.7262 H         1 Y0V         0.0287
     22 H5         92.5290   89.0955  -41.3685 H         1 Y0V         0.0287
     23 H6         90.7489   90.7290  -42.4766 H         1 Y0V         0.0816
@<TRIPOS>BOND
     1    5    1 ar 
     2    1   12 ar 
     3    1   17 1  
     4   11    2 1  
     5   10    3 1  
     6    3   13 1  
     7    3   16 1  
     8   17    4 ar 
     9    8    5 ar 
    10    8    6 1  
    11   12    7 1  
    12   10    8 ar 
    13   17    9 ar 
    14   10   11 ar 
    15   11   12 ar 
    16   13   14 2  
    17   14   15 1  
    18   15   16 2  
    19    5   18 1  
    20    7   19 1  
    21   13   20 1  
    22   14   21 1  
    23   15   22 1  
    24   16   23 1  
@<TRIPOS>SUBSTRUCTURE
     1 Y0V         1

