### 
### Created by X-TOOL on Mon Sep 10 21:13:20 2018
### 

@<TRIPOS>MOLECULE
5aok_ligand
   28    31     1     0     0
SMALL
GAST_HUCK


@<TRIPOS>ATOM
      1 C1         90.8210   91.7720  -46.6050 C.2       1 GOH         0.1859
      2 N1         90.6120   92.9920  -46.1420 N.2       1 GOH        -0.3081
      3 C2         91.1420   93.0560  -44.8530 C.2       1 GOH         0.1248
      4 C3         91.6820   91.8080  -44.5500 C.2       1 GOH         0.2857
      5 O          91.4960   90.9620  -45.6680 O.3       1 GOH        -0.1775
      6 C4         91.0910   94.2040  -44.0170 C.2       1 GOH         0.1668
      7 N2         92.3290   91.2690  -43.4680 N.pl3     1 GOH        -0.2048
      8 C5         90.4880   91.1540  -47.8820 C.3       1 GOH         0.0470
      9 C6         93.6000   91.6340  -43.0180 C.2       1 GOH         0.0339
     10 C7         93.8840   90.8440  -41.9040 C.2       1 GOH        -0.0838
     11 C8         92.7620   89.9740  -41.6700 C.2       1 GOH        -0.0838
     12 C9         91.8100   90.2570  -42.6440 C.2       1 GOH         0.0339
     13 N3         91.2050   94.2020  -42.6300 N.2       1 GOH        -0.2293
     14 N4         91.0880   95.4450  -42.2910 N.2       1 GOH        -0.1525
     15 N5         90.8990   96.2110  -43.3560 N.2       1 GOH        -0.0749
     16 N6         90.8820   95.5150  -44.4460 N.pl3     1 GOH        -0.1613
     17 C10        91.4160   90.1200  -48.4670 C.3       1 GOH        -0.0306
     18 C11        90.0810   89.7030  -47.9240 C.3       1 GOH        -0.0306
     19 H1         89.9920   91.8884  -48.5336 H         1 GOH         0.0551
     20 H2         94.2476   92.3928  -43.4548 H         1 GOH         0.0810
     21 H3         94.7979   90.8796  -41.3129 H         1 GOH         0.0285
     22 H4         92.6744   89.2320  -40.8777 H         1 GOH         0.0285
     23 H5         90.8369   89.7795  -42.7488 H         1 GOH         0.0810
     24 H6         90.7455   95.8515  -45.4099 H         1 GOH         0.2656
     25 H7         92.3371   89.8434  -47.9331 H         1 GOH         0.0298
     26 H8         91.5997   90.0971  -49.5513 H         1 GOH         0.0298
     27 H9         89.2867   89.3747  -48.6105 H         1 GOH         0.0298
     28 H10        90.0242   89.1210  -46.9923 H         1 GOH         0.0298
@<TRIPOS>BOND
     1    1    2 2  
     2    1    5 1  
     3    1    8 1  
     4    2    3 1  
     5    3    4 2  
     6    3    6 1  
     7    4    5 1  
     8    4    7 1  
     9    6   13 2  
    10    6   16 1  
    11    7    9 1  
    12    7   12 1  
    13    8   17 1  
    14    8   18 1  
    15    9   10 2  
    16   10   11 1  
    17   11   12 2  
    18   13   14 1  
    19   14   15 2  
    20   15   16 1  
    21   17   18 1  
    22    8   19 1  
    23    9   20 1  
    24   10   21 1  
    25   11   22 1  
    26   12   23 1  
    27   16   24 1  
    28   17   25 1  
    29   17   26 1  
    30   18   27 1  
    31   18   28 1  
@<TRIPOS>SUBSTRUCTURE
     1 GOH         1

