### 
### Created by X-TOOL on Mon Sep 10 21:13:20 2018
### 

@<TRIPOS>MOLECULE
5aol_ligand
   19    19     1     0     0
SMALL
GAST_HUCK


@<TRIPOS>ATOM
      1 C1         90.9510   88.8590  -41.6310 C.ar      1 UFV         0.0598
      2 C2         92.1710   89.4800  -41.4430 C.ar      1 UFV        -0.0407
      3 C3         92.3710   90.7770  -41.8770 C.ar      1 UFV         0.0155
      4 C4         91.3330   91.4330  -42.5180 C.ar      1 UFV        -0.0255
      5 C5         90.1030   90.8090  -42.7180 C.ar      1 UFV         0.0923
      6 C6         89.9030   89.5050  -42.2700 C.ar      1 UFV         0.1087
      7 N1         88.6580   88.8270  -42.4760 N.pl3     1 UFV        -0.3151
      8 N2         89.0450   91.5050  -43.3760 N.pl3     1 UFV        -0.3334
      9 BR         90.6830   87.0560  -40.9760 Br        1 UFV        -0.0511
     10 C7         93.6910   91.4490  -41.6810 C.3       1 UFV         0.3519
     11 F1         94.1690   91.8110  -42.8660 F         1 UFV        -0.2403
     12 F2         94.5360   90.6090  -41.0970 F         1 UFV        -0.2403
     13 F3         93.5800   92.5200  -40.9000 F         1 UFV        -0.2403
     14 H1         92.9767   88.9464  -40.9518 H         1 UFV         0.0788
     15 H2         91.4797   92.4478  -42.8697 H         1 UFV         0.0659
     16 H3         88.5342   87.8628  -42.1355 H         1 UFV         0.1869
     17 H4         87.8867   89.3037  -42.9646 H         1 UFV         0.1869
     18 H5         89.1909   92.4691  -43.7079 H         1 UFV         0.1700
     19 H6         88.1355   91.0432  -43.5190 H         1 UFV         0.1700
@<TRIPOS>BOND
     1    1    2 ar 
     2    1    6 ar 
     3    1    9 1  
     4    2    3 ar 
     5    3    4 ar 
     6    3   10 1  
     7    4    5 ar 
     8    5    6 ar 
     9    5    8 1  
    10    6    7 1  
    11   10   11 1  
    12   10   12 1  
    13   10   13 1  
    14    2   14 1  
    15    4   15 1  
    16    7   16 1  
    17    7   17 1  
    18    8   18 1  
    19    8   19 1  
@<TRIPOS>SUBSTRUCTURE
     1 UFV         1

