### 
### Created by X-TOOL on Mon Sep 10 21:13:22 2018
### 

@<TRIPOS>MOLECULE
5aom_ligand
   33    34     1     0     0
SMALL
GAST_HUCK


@<TRIPOS>ATOM
      1 CL         91.9560   91.8700  -45.3150 Cl        1 FY8        -0.0850
      2 C1         91.5440   97.2050  -43.8860 C.2       1 FY8         0.2043
      3 N1         91.6880   96.3790  -42.7920 N.am      1 FY8        -0.2364
      4 O1         91.3770   96.8330  -45.0460 O.2       1 FY8        -0.3860
      5 C2         91.8510   94.9790  -42.8300 C.ar      1 FY8         0.0968
      6 N2         91.2040  101.4610  -44.3570 N.4       1 FY8         0.2272
      7 O2         92.0940   95.1860  -40.4780 O.3       1 FY8        -0.3390
      8 C3         91.8250   94.1930  -43.9890 C.ar      1 FY8        -0.0355
      9 C4         92.0730   94.3640  -41.5890 C.ar      1 FY8         0.1095
     10 C5         91.4930   98.6960  -43.5720 C.3       1 FY8         0.0636
     11 C6         92.2660   92.9920  -41.4830 C.ar      1 FY8        -0.0455
     12 C7         92.0140   92.8190  -43.8800 C.ar      1 FY8         0.0150
     13 C8         92.2340   92.2080  -42.6450 C.ar      1 FY8        -0.0722
     14 C9         92.5470  100.9180  -44.0080 C.3       1 FY8        -0.0313
     15 C10        90.0610  100.7620  -43.6920 C.3       1 FY8        -0.0313
     16 C11        92.5770   99.4420  -44.3620 C.3       1 FY8         0.0078
     17 C12        90.1290   99.2640  -43.9690 C.3       1 FY8         0.0078
     18 H1         91.6758   96.8115  -41.8904 H         1 FY8         0.2222
     19 H2         91.0827  101.3840  -45.3547 H         1 FY8         0.2013
     20 H3         91.1778  102.4324  -44.0893 H         1 FY8         0.2013
     21 H4         92.2509   94.6624  -39.7010 H         1 FY8         0.2436
     22 H5         91.6598   94.6493  -44.9583 H         1 FY8         0.0472
     23 H6         91.6553   98.8452  -42.4943 H         1 FY8         0.0546
     24 H7         92.4388   92.5343  -40.5157 H         1 FY8         0.0496
     25 H8         92.3791   91.1355  -42.5844 H         1 FY8         0.0467
     26 H9         92.7300  101.0449  -42.9308 H         1 FY8         0.0815
     27 H10        93.3224  101.4518  -44.5771 H         1 FY8         0.0815
     28 H11        89.1135  101.1614  -44.0828 H         1 FY8         0.0815
     29 H12        90.1115  100.9337  -42.6067 H         1 FY8         0.0815
     30 H13        92.3920   99.3211  -45.4396 H         1 FY8         0.0344
     31 H14        93.5638   99.0261  -44.1104 H         1 FY8         0.0344
     32 H15        89.3446   98.7549  -43.3898 H         1 FY8         0.0344
     33 H16        89.9645   99.0886  -45.0424 H         1 FY8         0.0344
@<TRIPOS>BOND
     1   12    1 1  
     2    2    3 am 
     3    2    4 2  
     4   10    2 1  
     5    3    5 1  
     6    5    8 ar 
     7    5    9 ar 
     8   14    6 1  
     9    6   15 1  
    10    9    7 1  
    11    8   12 ar 
    12    9   11 ar 
    13   16   10 1  
    14   10   17 1  
    15   11   13 ar 
    16   12   13 ar 
    17   14   16 1  
    18   15   17 1  
    19    3   18 1  
    20    6   19 1  
    21    6   20 1  
    22    7   21 1  
    23    8   22 1  
    24   10   23 1  
    25   11   24 1  
    26   13   25 1  
    27   14   26 1  
    28   14   27 1  
    29   15   28 1  
    30   15   29 1  
    31   16   30 1  
    32   16   31 1  
    33   17   32 1  
    34   17   33 1  
@<TRIPOS>SUBSTRUCTURE
     1 FY8         1

