### 
### Created by X-TOOL on Mon Sep 10 21:13:23 2018
### 

@<TRIPOS>MOLECULE
5ap0_ligand
   66    70     1     0     0
SMALL
GAST_HUCK


@<TRIPOS>ATOM
      1 O          -2.8270   15.9450  -18.0020 O.2       1 AU5        -0.3906
      2 C4         -2.0900   14.9910  -18.0040 C.2       1 AU5         0.3209
      3 N2         -1.7200   14.2580  -19.1490 N.am      1 AU5        -0.2028
      4 C10        -2.1870   14.5570  -20.4880 C.3       1 AU5         0.0443
      5 C2         -0.8660   13.2240  -18.7590 C.ar      1 AU5         0.1315
      6 C3         -0.2060   12.2150  -19.4200 C.ar      1 AU5         0.0183
      7 N           0.5460   11.3330  -18.7530 N.ar      1 AU5        -0.2904
      8 N3         -1.4500   14.3940  -16.8860 N.am      1 AU5        -0.1812
      9 C5         -1.5440   14.8660  -15.4980 C.3       1 AU5         0.0721
     10 C9         -0.1740   15.2540  -14.9210 C.3       1 AU5        -0.0235
     11 C8         -0.2530   14.9890  -13.4210 C.3       1 AU5        -0.0503
     12 C7         -1.4040   14.0110  -13.1970 C.3       1 AU5        -0.0503
     13 C6         -2.0660   13.7770  -14.5530 C.3       1 AU5        -0.0235
     14 C1         -0.7050   13.3030  -17.3420 C.ar      1 AU5         0.1716
     15 N1          0.0260   12.4520  -16.6030 N.ar      1 AU5        -0.2535
     16 C           0.6140   11.4810  -17.3790 C.ar      1 AU5         0.1711
     17 N4          1.3470   10.4800  -16.7780 N.pl3     1 AU5        -0.2620
     18 C11         1.6090   10.2850  -15.4100 C.ar      1 AU5         0.0819
     19 C16         1.5410    9.0290  -14.8180 C.ar      1 AU5         0.1067
     20 O1          1.1650    7.9450  -15.5570 O.3       1 AU5        -0.3278
     21 C17         2.1670    6.9660  -15.6410 C.3       1 AU5         0.0568
     22 C15         1.8240    8.8380  -13.4760 C.ar      1 AU5        -0.0136
     23 C14         2.1780    9.9320  -12.7180 C.ar      1 AU5         0.0711
     24 C13         2.2370   11.2150  -13.2730 C.ar      1 AU5        -0.0538
     25 C12         1.9560   11.3860  -14.6160 C.ar      1 AU5        -0.0550
     26 O2          2.5420    9.7890  -11.4130 O.3       1 AU5        -0.3245
     27 C18         1.8120   10.4910  -10.4350 C.3       1 AU5         0.0882
     28 C22         2.7030   10.5430   -9.1860 C.3       1 AU5         0.0180
     29 C21         1.8970   11.0810   -7.9990 C.3       1 AU5        -0.0294
     30 N5          0.6960   10.2710   -7.6980 N.4       1 AU5         0.2332
     31 C23        -0.0420   10.7960   -6.5220 C.3       1 AU5        -0.0431
     32 C20        -0.1520   10.1750   -8.9110 C.3       1 AU5        -0.0294
     33 C19         0.5810    9.6250  -10.1480 C.3       1 AU5         0.0180
     34 H1         -2.8479   15.4358  -20.4581 H         1 AU5         0.0548
     35 H2         -2.7423   13.6939  -20.8840 H         1 AU5         0.0548
     36 H3         -1.3253   14.7683  -21.1382 H         1 AU5         0.0548
     37 H4         -0.2965   12.1333  -20.4971 H         1 AU5         0.0707
     38 H5         -2.2178   15.7351  -15.4736 H         1 AU5         0.0636
     39 H6          0.0318   16.3179  -15.1098 H         1 AU5         0.0293
     40 H7          0.6184   14.6410  -15.3752 H         1 AU5         0.0293
     41 H8         -0.4457   15.9281  -12.8817 H         1 AU5         0.0266
     42 H9          0.6904   14.5489  -13.0655 H         1 AU5         0.0266
     43 H10        -2.1310   14.4394  -12.4913 H         1 AU5         0.0266
     44 H11        -1.0196   13.0615  -12.7962 H         1 AU5         0.0266
     45 H12        -1.7980   12.7820  -14.9379 H         1 AU5         0.0293
     46 H13        -3.1594   13.8511  -14.4578 H         1 AU5         0.0293
     47 H14         1.7571    9.7825  -17.4153 H         1 AU5         0.2078
     48 H15         1.8051    6.1220  -16.2465 H         1 AU5         0.0573
     49 H16         2.4186    6.6112  -14.6307 H         1 AU5         0.0573
     50 H17         3.0627    7.3974  -16.1118 H         1 AU5         0.0573
     51 H18         1.7682    7.8505  -13.0324 H         1 AU5         0.0435
     52 H19         2.5004   12.0666  -12.6562 H         1 AU5         0.0421
     53 H20         2.0043   12.3754  -15.0562 H         1 AU5         0.0475
     54 H21         1.5291   11.4999  -10.7697 H         1 AU5         0.0649
     55 H22         3.5606   11.2052   -9.3758 H         1 AU5         0.0346
     56 H23         3.0657    9.5310   -8.9531 H         1 AU5         0.0346
     57 H24         1.5777   12.1081   -8.2294 H         1 AU5         0.0815
     58 H25         2.5454   11.0891   -7.1105 H         1 AU5         0.0815
     59 H26         1.0026    9.3394   -7.4654 H         1 AU5         0.2030
     60 H27        -0.9248   10.1676   -6.3327 H         1 AU5         0.0777
     61 H28        -0.3632   11.8289   -6.7219 H         1 AU5         0.0777
     62 H29         0.6150   10.7805   -5.6399 H         1 AU5         0.0777
     63 H30        -0.5273   11.1808   -9.1507 H         1 AU5         0.0815
     64 H31        -0.9999    9.5107   -8.6881 H         1 AU5         0.0815
     65 H32         0.8972    8.5889   -9.9570 H         1 AU5         0.0346
     66 H33        -0.0947    9.6481  -11.0157 H         1 AU5         0.0346
@<TRIPOS>BOND
     1    1    2 2  
     2    2    3 am 
     3    2    8 am 
     4    3    4 1  
     5    3    5 1  
     6    5    6 ar 
     7    5   14 ar 
     8    6    7 ar 
     9    7   16 ar 
    10    8    9 1  
    11    8   14 1  
    12    9   10 1  
    13    9   13 1  
    14   10   11 1  
    15   11   12 1  
    16   12   13 1  
    17   14   15 ar 
    18   15   16 ar 
    19   16   17 1  
    20   17   18 1  
    21   18   19 ar 
    22   18   25 ar 
    23   19   20 1  
    24   19   22 ar 
    25   20   21 1  
    26   22   23 ar 
    27   23   24 ar 
    28   23   26 1  
    29   24   25 ar 
    30   26   27 1  
    31   27   28 1  
    32   27   33 1  
    33   28   29 1  
    34   29   30 1  
    35   30   31 1  
    36   30   32 1  
    37   32   33 1  
    38    4   34 1  
    39    4   35 1  
    40    4   36 1  
    41    6   37 1  
    42    9   38 1  
    43   10   39 1  
    44   10   40 1  
    45   11   41 1  
    46   11   42 1  
    47   12   43 1  
    48   12   44 1  
    49   13   45 1  
    50   13   46 1  
    51   17   47 1  
    52   21   48 1  
    53   21   49 1  
    54   21   50 1  
    55   22   51 1  
    56   24   52 1  
    57   25   53 1  
    58   27   54 1  
    59   28   55 1  
    60   28   56 1  
    61   29   57 1  
    62   29   58 1  
    63   30   59 1  
    64   31   60 1  
    65   31   61 1  
    66   31   62 1  
    67   32   63 1  
    68   32   64 1  
    69   33   65 1  
    70   33   66 1  
@<TRIPOS>SUBSTRUCTURE
     1 AU5         1

