### 
### Created by X-TOOL on Mon Sep 10 21:13:24 2018
### 

@<TRIPOS>MOLECULE
5ap1_ligand
   57    60     1     0     0
SMALL
GAST_HUCK


@<TRIPOS>ATOM
      1 N6          0.2040  -20.2980  -53.0150 N.1       1 O38        -0.3006
      2 C23        -0.9240  -20.3070  -52.8030 C.1       1 O38         0.1236
      3 C22        -2.3520  -20.3150  -52.5400 C.3       1 O38         0.1915
      4 O          -2.5940  -19.0980  -51.8330 O.3       1 O38        -0.2940
      5 C21        -2.0900  -18.9440  -50.5360 C.ar      1 O38         0.0884
      6 C4         -2.1480  -17.6760  -49.9790 C.ar      1 O38        -0.0143
      7 C2         -2.6880  -16.5540  -50.6860 C.2       1 O38        -0.0101
      8 C1         -3.4830  -16.5460  -51.8240 C.2       1 O38         0.0557
      9 C3         -2.5110  -15.1890  -50.3280 C.2       1 O38         0.0016
     10 N1         -3.1600  -14.3830  -51.1950 N.2       1 O38        -0.2165
     11 N          -3.7420  -15.2170  -52.0910 N.pl3     1 O38        -0.2104
     12 C          -4.5450  -14.7130  -53.2010 C.3       1 O38         0.0600
     13 C20        -1.5650  -20.0280  -49.8190 C.ar      1 O38        -0.0127
     14 C7         -1.0940  -19.8370  -48.5350 C.ar      1 O38         0.0519
     15 C6         -1.1520  -18.5620  -47.9610 C.ar      1 O38        -0.0523
     16 C5         -1.6700  -17.5080  -48.6790 C.ar      1 O38        -0.0774
     17 N2         -0.5240  -20.8770  -47.7820 N.pl3     1 O38        -0.2621
     18 C8          0.2760  -20.8310  -46.6580 C.ar      1 O38         0.1248
     19 N5          0.6210  -19.6370  -46.1320 N.ar      1 O38        -0.2552
     20 C13         1.4590  -19.6670  -45.0540 C.ar      1 O38         0.1342
     21 C11         1.9570  -20.8740  -44.5130 C.ar      1 O38         0.1252
     22 C12         2.8600  -20.8790  -43.4410 C.1       1 O38         0.0837
     23 N3          3.6010  -20.8750  -42.5660 N.1       1 O38        -0.3468
     24 C10         1.5570  -22.0750  -45.0770 C.ar      1 O38        -0.0303
     25 C9          0.7110  -22.0780  -46.1490 C.ar      1 O38        -0.0149
     26 N4          1.7950  -18.4750  -44.4910 N.pl3     1 O38        -0.2995
     27 C14         1.3020  -17.1980  -44.9970 C.3       1 O38         0.0405
     28 C19         2.3630  -16.1130  -44.7800 C.3       1 O38        -0.0296
     29 C18         1.8580  -14.7340  -45.1730 C.3       1 O38        -0.0509
     30 C17         0.5970  -14.3900  -44.3980 C.3       1 O38        -0.0529
     31 C16        -0.4800  -15.4270  -44.6730 C.3       1 O38        -0.0509
     32 C15         0.0090  -16.8110  -44.2690 C.3       1 O38        -0.0296
     33 H1         -2.6288  -21.1835  -51.9243 H         1 O38         0.0918
     34 H2         -2.9203  -20.3369  -53.4815 H         1 O38         0.0918
     35 H3         -3.8304  -17.4097  -52.3891 H         1 O38         0.0974
     36 H4         -1.9323  -14.8421  -49.4732 H         1 O38         0.0657
     37 H5         -4.5770  -13.6142  -53.1611 H         1 O38         0.0605
     38 H6         -5.5671  -15.1126  -53.1253 H         1 O38         0.0605
     39 H7         -4.0960  -15.0324  -54.1531 H         1 O38         0.0605
     40 H8         -1.5288  -21.0127  -50.2708 H         1 O38         0.0447
     41 H9         -0.7893  -18.4045  -46.9517 H         1 O38         0.0443
     42 H10        -1.7074  -16.5248  -48.2240 H         1 O38         0.0524
     43 H11        -0.7370  -21.8253  -48.1231 H         1 O38         0.2151
     44 H12         1.9157  -23.0122  -44.6672 H         1 O38         0.0759
     45 H13         0.3821  -23.0086  -46.5972 H         1 O38         0.0538
     46 H14         2.4228  -18.4737  -43.6745 H         1 O38         0.1852
     47 H15         1.0955  -17.2917  -46.0734 H         1 O38         0.0560
     48 H16         3.2468  -16.3540  -45.3889 H         1 O38         0.0288
     49 H17         2.6433  -16.0984  -43.7164 H         1 O38         0.0288
     50 H18         1.6355  -14.7231  -46.2502 H         1 O38         0.0266
     51 H19         2.6345  -13.9871  -44.9514 H         1 O38         0.0266
     52 H20         0.2365  -13.3987  -44.7099 H         1 O38         0.0265
     53 H21         0.8231  -14.3760  -43.3216 H         1 O38         0.0265
     54 H22        -0.7206  -15.4255  -45.7463 H         1 O38         0.0266
     55 H23        -1.3817  -15.1769  -44.0947 H         1 O38         0.0266
     56 H24         0.1955  -16.8194  -43.1850 H         1 O38         0.0288
     57 H25        -0.7702  -17.5482  -44.5127 H         1 O38         0.0288
@<TRIPOS>BOND
     1    1    2 3  
     2    2    3 1  
     3    3    4 1  
     4    4    5 1  
     5    5    6 ar 
     6    5   13 ar 
     7    6    7 1  
     8    6   16 ar 
     9    7    8 2  
    10    7    9 1  
    11    8   11 1  
    12    9   10 2  
    13   10   11 1  
    14   11   12 1  
    15   13   14 ar 
    16   14   15 ar 
    17   14   17 1  
    18   15   16 ar 
    19   17   18 1  
    20   18   19 ar 
    21   18   25 ar 
    22   19   20 ar 
    23   20   21 ar 
    24   20   26 1  
    25   21   22 1  
    26   21   24 ar 
    27   22   23 3  
    28   24   25 ar 
    29   26   27 1  
    30   27   28 1  
    31   27   32 1  
    32   28   29 1  
    33   29   30 1  
    34   30   31 1  
    35   31   32 1  
    36    3   33 1  
    37    3   34 1  
    38    8   35 1  
    39    9   36 1  
    40   12   37 1  
    41   12   38 1  
    42   12   39 1  
    43   13   40 1  
    44   15   41 1  
    45   16   42 1  
    46   17   43 1  
    47   24   44 1  
    48   25   45 1  
    49   26   46 1  
    50   27   47 1  
    51   28   48 1  
    52   28   49 1  
    53   29   50 1  
    54   29   51 1  
    55   30   52 1  
    56   30   53 1  
    57   31   54 1  
    58   31   55 1  
    59   32   56 1  
    60   32   57 1  
@<TRIPOS>SUBSTRUCTURE
     1 O38         1

