### 
### Created by X-TOOL on Mon Sep 10 21:13:24 2018
### 

@<TRIPOS>MOLECULE
5ap2_ligand
   62    66     1     0     0
SMALL
GAST_HUCK


@<TRIPOS>ATOM
      1 O           3.0720  -36.1370  -14.3070 O.2       1 PWU        -0.3462
      2 C11         2.3700  -35.7780  -13.3960 C.2       1 PWU         0.3956
      3 O1          1.7360  -36.6060  -12.5560 O.3       1 PWU        -0.2476
      4 C12         1.8740  -38.0450  -12.8120 C.3       1 PWU         0.0842
      5 C14         0.5630  -38.5350  -13.3300 C.3       1 PWU        -0.0345
      6 C13         2.2760  -38.6900  -11.5280 C.3       1 PWU        -0.0345
      7 N1          2.1360  -34.4280  -13.1010 N.am      1 PWU        -0.1468
      8 C5          2.6600  -33.3440  -13.8010 C.2       1 PWU         0.0817
      9 C7          3.4900  -33.3980  -14.9660 C.2       1 PWU         0.0284
     10 C9          4.6380  -34.1480  -15.2710 C.2       1 PWU         0.0086
     11 N3          5.0690  -33.8820  -16.4910 N.2       1 PWU        -0.2134
     12 N2          4.1890  -32.9460  -16.9860 N.pl3     1 PWU        -0.2061
     13 C10         4.3480  -32.4130  -18.3330 C.3       1 PWU         0.0613
     14 C8          3.2400  -32.6400  -16.0940 C.2       1 PWU         0.0656
     15 C6          2.2360  -32.1900  -13.2170 C.2       1 PWU        -0.0636
     16 C           1.4010  -32.5310  -12.1020 C.ar      1 PWU        -0.0145
     17 C4          1.3420  -33.9350  -12.0380 C.ar      1 PWU         0.1014
     18 C3          0.5940  -34.5820  -11.0630 C.ar      1 PWU         0.0037
     19 C2         -0.0960  -33.7830  -10.1530 C.ar      1 PWU         0.1104
     20 N          -0.0590  -32.4480  -10.1820 N.ar      1 PWU        -0.3032
     21 C1          0.6730  -31.8640  -11.1360 C.ar      1 PWU        -0.0170
     22 N4         -0.8800  -34.3300   -9.1580 N.pl3     1 PWU        -0.2702
     23 C15        -1.1340  -35.6850   -8.8770 C.ar      1 PWU         0.0572
     24 C20        -1.4790  -36.0850   -7.5940 C.ar      1 PWU        -0.0412
     25 C19        -1.7260  -37.4170   -7.3220 C.ar      1 PWU        -0.0658
     26 C18        -1.6340  -38.3750   -8.3240 C.ar      1 PWU        -0.0144
     27 C17        -1.2900  -37.9670   -9.6070 C.ar      1 PWU        -0.0658
     28 C16        -1.0420  -36.6360   -9.8820 C.ar      1 PWU        -0.0412
     29 C21        -1.8910  -39.7990   -8.0330 C.2       1 PWU         0.0656
     30 C23        -1.2590  -40.9210   -8.5960 C.2       1 PWU        -0.0259
     31 N6         -1.7960  -42.0630   -8.0640 N.2       1 PWU        -0.3335
     32 C22        -2.7200  -41.6670   -7.2100 C.2       1 PWU         0.1125
     33 C24        -3.5670  -42.5800   -6.4040 C.3       1 PWU         0.0127
     34 N5         -2.8400  -40.2950   -7.1300 N.pl3     1 PWU        -0.2473
     35 C25        -3.7630  -39.5430   -6.2760 C.3       1 PWU         0.0455
     36 H1          2.6524  -38.2267  -13.5676 H         1 PWU         0.0643
     37 H2          0.6294  -39.6139  -13.5337 H         1 PWU         0.0258
     38 H3          0.3131  -38.0012  -14.2588 H         1 PWU         0.0258
     39 H4         -0.2197  -38.3511  -12.5794 H         1 PWU         0.0258
     40 H5          2.3894  -39.7733  -11.6816 H         1 PWU         0.0258
     41 H6          1.5026  -38.5065  -10.7676 H         1 PWU         0.0258
     42 H7          3.2323  -38.2658  -11.1882 H         1 PWU         0.0258
     43 H8          5.1104  -34.8555  -14.5912 H         1 PWU         0.0675
     44 H9          3.5494  -31.6842  -18.5355 H         1 PWU         0.0607
     45 H10         4.2880  -33.2346  -19.0619 H         1 PWU         0.0607
     46 H11         5.3265  -31.9178  -18.4183 H         1 PWU         0.0607
     47 H12         2.4262  -31.9294  -16.2307 H         1 PWU         0.1030
     48 H13         2.4876  -31.1811  -13.5408 H         1 PWU         0.0201
     49 H14         0.5487  -35.6638  -11.0118 H         1 PWU         0.0509
     50 H15         0.6972  -30.7804  -11.1529 H         1 PWU         0.0706
     51 H16        -1.3432  -33.6530   -8.5351 H         1 PWU         0.2089
     52 H17        -1.5551  -35.3493   -6.8015 H         1 PWU         0.0528
     53 H18        -1.9945  -37.7178   -6.3158 H         1 PWU         0.0567
     54 H19        -1.2154  -38.7013  -10.4010 H         1 PWU         0.0567
     55 H20        -0.7743  -36.3337  -10.8880 H         1 PWU         0.0528
     56 H21        -0.4648  -40.8875   -9.3404 H         1 PWU         0.0441
     57 H22        -3.2989  -43.6229   -6.6288 H         1 PWU         0.0468
     58 H23        -4.6256  -42.4121   -6.6514 H         1 PWU         0.0468
     59 H24        -3.4045  -42.3821   -5.3342 H         1 PWU         0.0468
     60 H25        -3.6179  -38.4649   -6.4394 H         1 PWU         0.0575
     61 H26        -3.5652  -39.7838   -5.2211 H         1 PWU         0.0575
     62 H27        -4.7988  -39.8156   -6.5264 H         1 PWU         0.0575
@<TRIPOS>BOND
     1    1    2 2  
     2    2    3 1  
     3    2    7 am 
     4    3    4 1  
     5    4    5 1  
     6    4    6 1  
     7    7    8 1  
     8    7   17 1  
     9    8    9 1  
    10    8   15 2  
    11    9   10 1  
    12    9   14 2  
    13   10   11 2  
    14   11   12 1  
    15   12   13 1  
    16   12   14 1  
    17   15   16 1  
    18   16   17 ar 
    19   16   21 ar 
    20   17   18 ar 
    21   18   19 ar 
    22   19   20 ar 
    23   19   22 1  
    24   20   21 ar 
    25   22   23 1  
    26   23   24 ar 
    27   23   28 ar 
    28   24   25 ar 
    29   25   26 ar 
    30   26   27 ar 
    31   26   29 1  
    32   27   28 ar 
    33   29   30 2  
    34   29   34 1  
    35   30   31 1  
    36   31   32 2  
    37   32   33 1  
    38   32   34 1  
    39   34   35 1  
    40    4   36 1  
    41    5   37 1  
    42    5   38 1  
    43    5   39 1  
    44    6   40 1  
    45    6   41 1  
    46    6   42 1  
    47   10   43 1  
    48   13   44 1  
    49   13   45 1  
    50   13   46 1  
    51   14   47 1  
    52   15   48 1  
    53   18   49 1  
    54   21   50 1  
    55   22   51 1  
    56   24   52 1  
    57   25   53 1  
    58   27   54 1  
    59   28   55 1  
    60   30   56 1  
    61   33   57 1  
    62   33   58 1  
    63   33   59 1  
    64   35   60 1  
    65   35   61 1  
    66   35   62 1  
@<TRIPOS>SUBSTRUCTURE
     1 PWU         1

