### 
### Created by X-TOOL on Mon Sep 10 21:13:24 2018
### 

@<TRIPOS>MOLECULE
5ap3_ligand
   66    70     1     0     0
SMALL
GAST_HUCK


@<TRIPOS>ATOM
      1 O          -3.0650   39.5220  129.3510 O.2       1 AU5        -0.3906
      2 C4         -2.3080   40.4660  129.3470 C.2       1 AU5         0.3209
      3 N2         -1.9110   41.1870  130.4890 N.am      1 AU5        -0.2028
      4 C10        -2.3620   40.8790  131.8320 C.3       1 AU5         0.0443
      5 C2         -1.0480   42.2130  130.0950 C.ar      1 AU5         0.1315
      6 C3         -0.3680   43.2140  130.7560 C.ar      1 AU5         0.0183
      7 N           0.3900   44.0940  130.0840 N.ar      1 AU5        -0.2904
      8 N3         -1.6750   41.0600  128.2250 N.am      1 AU5        -0.1812
      9 C5         -1.8050   40.6070  126.8370 C.3       1 AU5         0.0721
     10 C9         -0.4420   40.2700  126.2100 C.3       1 AU5        -0.0235
     11 C8         -0.5470   40.6250  124.7280 C.3       1 AU5        -0.0503
     12 C7         -1.8160   41.4540  124.5440 C.3       1 AU5        -0.0503
     13 C6         -2.3780   41.7050  125.9370 C.3       1 AU5        -0.0235
     14 C1         -0.9050   42.1370  128.6760 C.ar      1 AU5         0.1716
     15 N1         -0.1650   42.9830  127.9300 N.ar      1 AU5        -0.2535
     16 C           0.4470   43.9480  128.7050 C.ar      1 AU5         0.1711
     17 N4          1.1940   44.9380  128.0890 N.pl3     1 AU5        -0.2620
     18 C11         1.4340   45.0940  126.7110 C.ar      1 AU5         0.0819
     19 C16         1.5440   46.3340  126.0930 C.ar      1 AU5         0.1067
     20 O1          1.4370   47.4750  126.8380 O.3       1 AU5        -0.3278
     21 C17         0.4280   48.3440  126.3790 C.3       1 AU5         0.0568
     22 C15         1.7750   46.4480  124.7240 C.ar      1 AU5        -0.0136
     23 C14         1.9010   45.2920  123.9800 C.ar      1 AU5         0.0711
     24 C13         1.7910   44.0340  124.5710 C.ar      1 AU5        -0.0538
     25 C12         1.5600   43.9410  125.9290 C.ar      1 AU5        -0.0550
     26 O2          2.1600   45.3210  122.6400 O.3       1 AU5        -0.3245
     27 C18         1.0310   45.2430  121.8000 C.3       1 AU5         0.0882
     28 C22         1.3950   44.4680  120.5290 C.3       1 AU5         0.0180
     29 C21         0.1780   44.4750  119.5900 C.3       1 AU5        -0.0294
     30 N5         -0.3210   45.8340  119.2440 N.4       1 AU5         0.2332
     31 C23        -1.5510   45.7720  118.4160 C.3       1 AU5        -0.0431
     32 C20        -0.5220   46.6500  120.4690 C.3       1 AU5        -0.0294
     33 C19         0.6840   46.6840  121.4230 C.3       1 AU5         0.0180
     34 H1         -3.0359   40.0101  131.8022 H         1 AU5         0.0548
     35 H2         -2.8987   41.7452  132.2463 H         1 AU5         0.0548
     36 H3         -1.4937   40.6479  132.4665 H         1 AU5         0.0548
     37 H4         -0.4469   43.2912  131.8344 H         1 AU5         0.0707
     38 H5         -2.4581   39.7221  126.8163 H         1 AU5         0.0636
     39 H6         -0.2231   39.1987  126.3295 H         1 AU5         0.0293
     40 H7          0.3527   40.8621  126.6872 H         1 AU5         0.0293
     41 H8         -0.6074   39.7069  124.1251 H         1 AU5         0.0266
     42 H9          0.3318   41.2097  124.4186 H         1 AU5         0.0266
     43 H10        -2.5457   40.9008  123.9345 H         1 AU5         0.0266
     44 H11        -1.5775   42.4092  124.0533 H         1 AU5         0.0266
     45 H12        -2.0671   42.6957  126.3001 H         1 AU5         0.0293
     46 H13        -3.4764   41.6488  125.9201 H         1 AU5         0.0293
     47 H14         1.6225   45.6396  128.7095 H         1 AU5         0.2078
     48 H15         0.3950   49.2380  127.0190 H         1 AU5         0.0573
     49 H16        -0.5438   47.8300  126.4168 H         1 AU5         0.0573
     50 H17         0.6448   48.6427  125.3428 H         1 AU5         0.0573
     51 H18         1.8540   47.4216  124.2539 H         1 AU5         0.0435
     52 H19         1.8860   43.1371  123.9697 H         1 AU5         0.0421
     53 H20         1.4755   42.9653  126.3936 H         1 AU5         0.0475
     54 H21         0.1899   44.7571  122.3163 H         1 AU5         0.0649
     55 H22         1.6579   43.4319  120.7883 H         1 AU5         0.0346
     56 H23         2.2500   44.9499  120.0323 H         1 AU5         0.0346
     57 H24        -0.6378   43.9228  120.0793 H         1 AU5         0.0815
     58 H25         0.4593   43.9637  118.6576 H         1 AU5         0.0815
     59 H26         0.3902   46.2868  118.6916 H         1 AU5         0.2030
     60 H27        -1.8873   46.7929  118.1820 H         1 AU5         0.0777
     61 H28        -2.3404   45.2441  118.9710 H         1 AU5         0.0777
     62 H29        -1.3370   45.2332  117.4812 H         1 AU5         0.0777
     63 H30        -1.3817   46.2382  121.0179 H         1 AU5         0.0815
     64 H31        -0.7442   47.6822  120.1606 H         1 AU5         0.0815
     65 H32         1.5424   47.1557  120.9224 H         1 AU5         0.0346
     66 H33         0.4280   47.2550  122.3277 H         1 AU5         0.0346
@<TRIPOS>BOND
     1    1    2 2  
     2    2    3 am 
     3    2    8 am 
     4    3    4 1  
     5    3    5 1  
     6    5    6 ar 
     7    5   14 ar 
     8    6    7 ar 
     9    7   16 ar 
    10    8    9 1  
    11    8   14 1  
    12    9   10 1  
    13    9   13 1  
    14   10   11 1  
    15   11   12 1  
    16   12   13 1  
    17   14   15 ar 
    18   15   16 ar 
    19   16   17 1  
    20   17   18 1  
    21   18   19 ar 
    22   18   25 ar 
    23   19   20 1  
    24   19   22 ar 
    25   20   21 1  
    26   22   23 ar 
    27   23   24 ar 
    28   23   26 1  
    29   24   25 ar 
    30   26   27 1  
    31   27   28 1  
    32   27   33 1  
    33   28   29 1  
    34   29   30 1  
    35   30   31 1  
    36   30   32 1  
    37   32   33 1  
    38    4   34 1  
    39    4   35 1  
    40    4   36 1  
    41    6   37 1  
    42    9   38 1  
    43   10   39 1  
    44   10   40 1  
    45   11   41 1  
    46   11   42 1  
    47   12   43 1  
    48   12   44 1  
    49   13   45 1  
    50   13   46 1  
    51   17   47 1  
    52   21   48 1  
    53   21   49 1  
    54   21   50 1  
    55   22   51 1  
    56   24   52 1  
    57   25   53 1  
    58   27   54 1  
    59   28   55 1  
    60   28   56 1  
    61   29   57 1  
    62   29   58 1  
    63   30   59 1  
    64   31   60 1  
    65   31   61 1  
    66   31   62 1  
    67   32   63 1  
    68   32   64 1  
    69   33   65 1  
    70   33   66 1  
@<TRIPOS>SUBSTRUCTURE
     1 AU5         1

