### 
### Created by X-TOOL on Mon Sep 10 21:13:24 2018
### 

@<TRIPOS>MOLECULE
5ap4_ligand
   57    60     1     0     0
SMALL
GAST_HUCK


@<TRIPOS>ATOM
      1 N6         -0.0580   -6.9250  -16.0290 N.1       1 O38        -0.3006
      2 C23        -1.1370   -7.2330  -15.8770 C.1       1 O38         0.1236
      3 C22        -2.5080   -7.6070  -15.6570 C.3       1 O38         0.1915
      4 O          -2.6000   -8.5050  -14.5640 O.3       1 O38        -0.2940
      5 C21        -2.2240   -9.8390  -14.7090 C.ar      1 O38         0.0884
      6 C4         -2.3430  -10.6520  -13.5880 C.ar      1 O38        -0.0143
      7 C2         -2.8600  -10.1930  -12.3280 C.2       1 O38        -0.0101
      8 C1         -3.5510   -9.0170  -12.0460 C.2       1 O38         0.0557
      9 C3         -2.7770  -10.8900  -11.0800 C.2       1 O38         0.0016
     10 N1         -3.3820  -10.1880  -10.0920 N.2       1 O38        -0.2165
     11 N          -3.8460   -9.0590  -10.6900 N.pl3     1 O38        -0.2104
     12 C          -4.5730   -8.0360   -9.9350 C.3       1 O38         0.0600
     13 C20        -1.7460  -10.3380  -15.9310 C.ar      1 O38        -0.0127
     14 C7         -1.3800  -11.6720  -16.0240 C.ar      1 O38         0.0519
     15 C6         -1.4840  -12.4950  -14.9130 C.ar      1 O38        -0.0523
     16 C5         -1.9570  -11.9850  -13.7250 C.ar      1 O38        -0.0774
     17 N2         -0.9130  -12.1340  -17.2650 N.pl3     1 O38        -0.2621
     18 C8         -0.0470  -13.1930  -17.4730 C.ar      1 O38         0.1248
     19 N5          0.2420  -14.0200  -16.4360 N.ar      1 O38        -0.2552
     20 C13         1.1140  -15.0390  -16.7050 C.ar      1 O38         0.1342
     21 C11         1.6840  -15.2360  -17.9770 C.ar      1 O38         0.1252
     22 C12         2.5770  -16.2870  -18.2280 C.1       1 O38         0.0837
     23 N3          3.3130  -17.1490  -18.4410 N.1       1 O38        -0.3468
     24 C10         1.3540  -14.3650  -19.0060 C.ar      1 O38        -0.0303
     25 C9          0.4890  -13.3320  -18.7770 C.ar      1 O38        -0.0149
     26 N4          1.4500  -15.8940  -15.6930 N.pl3     1 O38        -0.2995
     27 C14         1.0050  -15.7310  -14.3160 C.3       1 O38         0.0405
     28 C19        -0.2550  -16.5380  -14.0750 C.3       1 O38        -0.0296
     29 C18        -0.7080  -16.4360  -12.6250 C.3       1 O38        -0.0509
     30 C17         0.3880  -16.8610  -11.6750 C.3       1 O38        -0.0529
     31 C16         1.6430  -16.0510  -11.9110 C.3       1 O38        -0.0509
     32 C15         2.1030  -16.1520  -13.3590 C.3       1 O38        -0.0296
     33 H1         -2.9017   -8.0937  -16.5615 H         1 O38         0.0918
     34 H2         -3.1000   -6.7061  -15.4381 H         1 O38         0.0918
     35 H3         -3.8080   -8.2246  -12.7475 H         1 O38         0.0974
     36 H4         -2.2922  -11.8555  -10.9433 H         1 O38         0.0657
     37 H5         -4.6533   -8.3451   -8.8824 H         1 O38         0.0605
     38 H6         -5.5805   -7.9140  -10.3592 H         1 O38         0.0605
     39 H7         -4.0311   -7.0807   -9.9963 H         1 O38         0.0605
     40 H8         -1.6639   -9.6866  -16.7935 H         1 O38         0.0447
     41 H9         -1.1936  -13.5373  -14.9797 H         1 O38         0.0443
     42 H10        -2.0320  -12.6424  -12.8663 H         1 O38         0.0524
     43 H11        -1.2477  -11.6360  -18.1022 H         1 O38         0.2151
     44 H12         1.7826  -14.5042  -19.9919 H         1 O38         0.0759
     45 H13         0.2215  -12.6409  -19.5681 H         1 O38         0.0538
     46 H14         2.0520  -16.6992  -15.9170 H         1 O38         0.1852
     47 H15         0.7784  -14.6686  -14.1428 H         1 O38         0.0560
     48 H16        -0.0563  -17.5929  -14.3150 H         1 O38         0.0288
     49 H17        -1.0545  -16.1577  -14.7278 H         1 O38         0.0288
     50 H18        -1.5827  -17.0862  -12.4765 H         1 O38         0.0266
     51 H19        -0.9850  -15.3936  -12.4088 H         1 O38         0.0266
     52 H20         0.6106  -17.9264  -11.8338 H         1 O38         0.0265
     53 H21         0.0485  -16.7076  -10.6400 H         1 O38         0.0265
     54 H22         2.4412  -16.4276  -11.2545 H         1 O38         0.0266
     55 H23         1.4390  -14.9967  -11.6727 H         1 O38         0.0266
     56 H24         2.9754  -15.4979  -13.5043 H         1 O38         0.0288
     57 H25         2.3856  -17.1932  -13.5734 H         1 O38         0.0288
@<TRIPOS>BOND
     1    1    2 3  
     2    2    3 1  
     3    3    4 1  
     4    4    5 1  
     5    5    6 ar 
     6    5   13 ar 
     7    6    7 1  
     8    6   16 ar 
     9    7    8 2  
    10    7    9 1  
    11    8   11 1  
    12    9   10 2  
    13   10   11 1  
    14   11   12 1  
    15   13   14 ar 
    16   14   15 ar 
    17   14   17 1  
    18   15   16 ar 
    19   17   18 1  
    20   18   19 ar 
    21   18   25 ar 
    22   19   20 ar 
    23   20   21 ar 
    24   20   26 1  
    25   21   22 1  
    26   21   24 ar 
    27   22   23 3  
    28   24   25 ar 
    29   26   27 1  
    30   27   28 1  
    31   27   32 1  
    32   28   29 1  
    33   29   30 1  
    34   30   31 1  
    35   31   32 1  
    36    3   33 1  
    37    3   34 1  
    38    8   35 1  
    39    9   36 1  
    40   12   37 1  
    41   12   38 1  
    42   12   39 1  
    43   13   40 1  
    44   15   41 1  
    45   16   42 1  
    46   17   43 1  
    47   24   44 1  
    48   25   45 1  
    49   26   46 1  
    50   27   47 1  
    51   28   48 1  
    52   28   49 1  
    53   29   50 1  
    54   29   51 1  
    55   30   52 1  
    56   30   53 1  
    57   31   54 1  
    58   31   55 1  
    59   32   56 1  
    60   32   57 1  
@<TRIPOS>SUBSTRUCTURE
     1 O38         1

