### 
### Created by X-TOOL on Mon Sep 10 21:13:24 2018
### 

@<TRIPOS>MOLECULE
5ap5_ligand
   62    65     1     0     0
SMALL
GAST_HUCK


@<TRIPOS>ATOM
      1 O2          2.8730  -16.1390  -16.1980 O.2       1 7RO        -0.3462
      2 C20         2.2630  -15.1190  -16.3880 C.2       1 7RO         0.3959
      3 O1          1.6950  -14.4020  -15.3850 O.3       1 7RO        -0.2445
      4 C21         1.8140  -14.9320  -14.0240 C.3       1 7RO         0.0921
      5 C24         1.2960  -16.3520  -14.0030 C.3       1 7RO        -0.0319
      6 C23         3.2770  -14.8760  -13.6520 C.3       1 7RO        -0.0319
      7 C22         0.9860  -14.0330  -13.1370 C.3       1 7RO        -0.0319
      8 N5          2.0580  -14.5520  -17.6770 N.am      1 7RO        -0.1467
      9 C4          2.5530  -14.9960  -18.9450 C.2       1 7RO         0.0818
     10 C3          3.3540  -16.1560  -19.1300 C.2       1 7RO         0.0284
     11 C1          4.4380  -16.6360  -18.3410 C.2       1 7RO         0.0087
     12 N1          4.9330  -17.7760  -18.8730 N.2       1 7RO        -0.2134
     13 C2          3.2130  -17.0600  -20.1730 C.2       1 7RO         0.0656
     14 N           4.1830  -18.0180  -19.9800 N.pl3     1 7RO        -0.2060
     15 C           4.4250  -19.1800  -20.8350 C.3       1 7RO         0.0613
     16 C19         1.2830  -13.3980  -17.9040 C.ar      1 7RO         0.1016
     17 C6          1.3130  -13.1500  -19.2980 C.ar      1 7RO        -0.0143
     18 C5          2.1080  -14.1520  -19.9160 C.2       1 7RO        -0.0635
     19 C18         0.5660  -12.5820  -17.0340 C.ar      1 7RO         0.0042
     20 C8         -0.1160  -11.5130  -17.6430 C.ar      1 7RO         0.1119
     21 N2         -0.0960  -11.2560  -18.9940 N.ar      1 7RO        -0.3028
     22 C7          0.6080  -12.0650  -19.7810 C.ar      1 7RO        -0.0168
     23 N3         -0.8820  -10.6460  -16.8570 N.pl3     1 7RO        -0.2660
     24 C9         -0.9970  -10.5910  -15.4680 C.ar      1 7RO         0.0779
     25 C17        -1.1930  -11.7060  -14.6480 C.ar      1 7RO        -0.0331
     26 C16        -1.3500  -11.5350  -13.2860 C.ar      1 7RO        -0.0520
     27 C12        -1.3140  -10.2640  -12.7240 C.ar      1 7RO         0.0378
     28 C11        -1.1090   -9.1520  -13.5100 C.ar      1 7RO        -0.0382
     29 C10        -0.9540   -9.3350  -14.8650 C.ar      1 7RO         0.0671
     30 CL         -0.6960   -7.9340  -15.8220 Cl        1 7RO        -0.0787
     31 C13        -1.5170  -10.0940  -11.2700 C.2       1 7RO         0.1978
     32 O          -2.0610   -9.1100  -10.7940 O.2       1 7RO        -0.3903
     33 N4         -1.0550  -11.1240  -10.4590 N.am      1 7RO        -0.2803
     34 C15         0.0340  -10.8930   -9.4960 C.3       1 7RO         0.0215
     35 C14        -1.9410  -12.2480  -10.1130 C.3       1 7RO         0.0215
     36 H1          1.3815  -16.7584  -12.9844 H         1 7RO         0.0260
     37 H2          1.8885  -16.9688  -14.6947 H         1 7RO         0.0260
     38 H3          0.2411  -16.3622  -14.3145 H         1 7RO         0.0260
     39 H4          3.4113  -15.2667  -12.6325 H         1 7RO         0.0260
     40 H5          3.6265  -13.8339  -13.6943 H         1 7RO         0.0260
     41 H6          3.8586  -15.4867  -14.3582 H         1 7RO         0.0260
     42 H7          1.0424  -14.3902  -12.0981 H         1 7RO         0.0260
     43 H8         -0.0610  -14.0490  -13.4739 H         1 7RO         0.0260
     44 H9          1.3735  -13.0051  -13.1928 H         1 7RO         0.0260
     45 H10         4.8139  -16.1544  -17.4395 H         1 7RO         0.0675
     46 H11         2.4833  -17.0200  -20.9804 H         1 7RO         0.1031
     47 H12         3.7063  -19.1785  -21.6677 H         1 7RO         0.0607
     48 H13         4.3017  -20.1007  -20.2459 H         1 7RO         0.0607
     49 H14         5.4489  -19.1345  -21.2344 H         1 7RO         0.0607
     50 H15         2.3238  -14.2311  -20.9805 H         1 7RO         0.0201
     51 H16         0.5353  -12.7575  -15.9647 H         1 7RO         0.0511
     52 H17         0.6293  -11.8643  -20.8460 H         1 7RO         0.0707
     53 H18        -1.4384   -9.9517  -17.3759 H         1 7RO         0.2109
     54 H19        -1.2217  -12.7003  -15.0788 H         1 7RO         0.0543
     55 H20        -1.5026  -12.3995  -12.6501 H         1 7RO         0.0639
     56 H21        -1.0708   -8.1605  -13.0736 H         1 7RO         0.0644
     57 H22         0.2498  -11.8266   -8.9557 H         1 7RO         0.0485
     58 H23        -0.2694  -10.1161   -8.7788 H         1 7RO         0.0485
     59 H24         0.9354  -10.5638  -10.0338 H         1 7RO         0.0485
     60 H25        -2.7218  -12.3493  -10.8812 H         1 7RO         0.0485
     61 H26        -2.4100  -12.0580   -9.1363 H         1 7RO         0.0485
     62 H27        -1.3532  -13.1764  -10.0632 H         1 7RO         0.0485
@<TRIPOS>BOND
     1    1    2 2  
     2    2    3 1  
     3    2    8 am 
     4    3    4 1  
     5    4    5 1  
     6    4    6 1  
     7    4    7 1  
     8    8    9 1  
     9    8   16 1  
    10    9   10 1  
    11    9   18 2  
    12   10   11 1  
    13   10   13 2  
    14   11   12 2  
    15   12   14 1  
    16   13   14 1  
    17   14   15 1  
    18   16   17 ar 
    19   16   19 ar 
    20   17   18 1  
    21   17   22 ar 
    22   19   20 ar 
    23   20   21 ar 
    24   20   23 1  
    25   21   22 ar 
    26   23   24 1  
    27   24   25 ar 
    28   24   29 ar 
    29   25   26 ar 
    30   26   27 ar 
    31   27   28 ar 
    32   27   31 1  
    33   28   29 ar 
    34   29   30 1  
    35   31   32 2  
    36   31   33 am 
    37   33   34 1  
    38   33   35 1  
    39    5   36 1  
    40    5   37 1  
    41    5   38 1  
    42    6   39 1  
    43    6   40 1  
    44    6   41 1  
    45    7   42 1  
    46    7   43 1  
    47    7   44 1  
    48   11   45 1  
    49   13   46 1  
    50   15   47 1  
    51   15   48 1  
    52   15   49 1  
    53   18   50 1  
    54   19   51 1  
    55   22   52 1  
    56   23   53 1  
    57   25   54 1  
    58   26   55 1  
    59   28   56 1  
    60   34   57 1  
    61   34   58 1  
    62   34   59 1  
    63   35   60 1  
    64   35   61 1  
    65   35   62 1  
@<TRIPOS>SUBSTRUCTURE
     1 7RO         1

