### 
### Created by X-TOOL on Mon Sep 10 21:13:23 2018
### 

@<TRIPOS>MOLECULE
5ap6_ligand
   62    66     1     0     0
SMALL
GAST_HUCK


@<TRIPOS>ATOM
      1 O         -37.8880  -15.4070  -14.7730 O.2       1 PWU        -0.3462
      2 C11       -37.1970  -15.6690  -13.8230 C.2       1 PWU         0.3956
      3 O1        -36.5730  -14.7580  -13.0670 O.3       1 PWU        -0.2476
      4 C12       -36.6910  -13.3560  -13.4840 C.3       1 PWU         0.0842
      5 C14       -35.3090  -12.8280  -13.6650 C.3       1 PWU        -0.0345
      6 C13       -37.4590  -12.6400  -12.4310 C.3       1 PWU        -0.0345
      7 N1        -36.9610  -16.9810  -13.3920 N.am      1 PWU        -0.1468
      8 C5        -37.4620  -18.1350  -13.9860 C.2       1 PWU         0.0817
      9 C7        -38.3000  -18.2310  -15.1390 C.2       1 PWU         0.0284
     10 C9        -39.4160  -17.4930  -15.5640 C.2       1 PWU         0.0086
     11 N3        -39.8810  -17.9570  -16.7100 N.2       1 PWU        -0.2134
     12 N2        -39.0580  -19.0090  -17.0350 N.pl3     1 PWU        -0.2061
     13 C10       -39.2720  -19.7760  -18.2550 C.3       1 PWU         0.0613
     14 C8        -38.1060  -19.1910  -16.1130 C.2       1 PWU         0.0656
     15 C6        -37.0110  -19.2220  -13.3030 C.2       1 PWU        -0.0636
     16 C         -36.1870  -18.7650  -12.2270 C.ar      1 PWU        -0.0145
     17 C4        -36.1630  -17.3600  -12.2860 C.ar      1 PWU         0.1014
     18 C3        -35.4360  -16.6160  -11.3650 C.ar      1 PWU         0.0037
     19 C2        -34.7280  -17.3210  -10.3920 C.ar      1 PWU         0.1104
     20 N         -34.7310  -18.6520  -10.3130 N.ar      1 PWU        -0.3032
     21 C1        -35.4460  -19.3290  -11.2140 C.ar      1 PWU        -0.0170
     22 N4        -33.9460  -16.6950   -9.4430 N.pl3     1 PWU        -0.2702
     23 C15       -33.6880  -15.3260   -9.2550 C.ar      1 PWU         0.0572
     24 C20       -33.7010  -14.4530  -10.3320 C.ar      1 PWU        -0.0412
     25 C19       -33.4420  -13.1100  -10.1440 C.ar      1 PWU        -0.0658
     26 C18       -33.1630  -12.6100   -8.8780 C.ar      1 PWU        -0.0144
     27 C17       -33.1520  -13.4900   -7.8030 C.ar      1 PWU        -0.0658
     28 C16       -33.4110  -14.8340   -7.9870 C.ar      1 PWU        -0.0412
     29 C21       -32.8770  -11.1750   -8.6860 C.2       1 PWU         0.0656
     30 C23       -33.5470  -10.0890   -9.2570 C.2       1 PWU        -0.0259
     31 N6        -32.9530   -8.9230   -8.8560 N.2       1 PWU        -0.3335
     32 C22       -31.9580   -9.2750   -8.0680 C.2       1 PWU         0.1125
     33 C24       -31.0260   -8.3240   -7.4130 C.3       1 PWU         0.0127
     34 N5        -31.8460  -10.6380   -7.9060 N.pl3     1 PWU        -0.2473
     35 C25       -30.8650  -11.3450   -7.0800 C.3       1 PWU         0.0455
     36 H1        -37.2334  -13.2847  -14.4383 H         1 PWU         0.0643
     37 H2        -35.3571  -11.7748  -13.9789 H         1 PWU         0.0258
     38 H3        -34.7894  -13.4168  -14.4353 H         1 PWU         0.0258
     39 H4        -34.7605  -12.9025  -12.7144 H         1 PWU         0.0258
     40 H5        -37.5671  -11.5819  -12.7116 H         1 PWU         0.0258
     41 H6        -36.9231  -12.7124  -11.4731 H         1 PWU         0.0258
     42 H7        -38.4549  -13.0960  -12.3294 H         1 PWU         0.0258
     43 H8        -39.8416  -16.6503  -15.0212 H         1 PWU         0.0675
     44 H9        -38.5115  -20.5673  -18.3287 H         1 PWU         0.0607
     45 H10       -39.1927  -19.1090  -19.1261 H         1 PWU         0.0607
     46 H11       -40.2733  -20.2308  -18.2313 H         1 PWU         0.0607
     47 H12       -37.3265  -19.9513  -16.1276 H         1 PWU         0.1030
     48 H13       -37.2384  -20.2613  -13.5357 H         1 PWU         0.0201
     49 H14       -35.4198  -15.5327  -11.4012 H         1 PWU         0.0509
     50 H15       -35.4427  -20.4106  -11.1419 H         1 PWU         0.0706
     51 H16       -33.4823  -17.3245   -8.7725 H         1 PWU         0.2089
     52 H17       -33.9156  -14.8268  -11.3266 H         1 PWU         0.0528
     53 H18       -33.4565  -12.4376  -10.9942 H         1 PWU         0.0567
     54 H19       -32.9376  -13.1172   -6.8079 H         1 PWU         0.0567
     55 H20       -33.3979  -15.5075   -7.1377 H         1 PWU         0.0528
     56 H21       -34.4088  -10.1599   -9.9189 H         1 PWU         0.0441
     57 H22       -31.3038   -7.2943   -7.6822 H         1 PWU         0.0468
     58 H23       -29.9987   -8.5266   -7.7499 H         1 PWU         0.0468
     59 H24       -31.0848   -8.4461   -6.3214 H         1 PWU         0.0468
     60 H25       -31.0333  -12.4292   -7.1581 H         1 PWU         0.0575
     61 H26       -30.9747  -11.0316   -6.0313 H         1 PWU         0.0575
     62 H27       -29.8501  -11.1054   -7.4301 H         1 PWU         0.0575
@<TRIPOS>BOND
     1    1    2 2  
     2    2    3 1  
     3    2    7 am 
     4    3    4 1  
     5    4    5 1  
     6    4    6 1  
     7    7    8 1  
     8    7   17 1  
     9    8    9 1  
    10    8   15 2  
    11    9   10 1  
    12    9   14 2  
    13   10   11 2  
    14   11   12 1  
    15   12   13 1  
    16   12   14 1  
    17   15   16 1  
    18   16   17 ar 
    19   16   21 ar 
    20   17   18 ar 
    21   18   19 ar 
    22   19   20 ar 
    23   19   22 1  
    24   20   21 ar 
    25   22   23 1  
    26   23   24 ar 
    27   23   28 ar 
    28   24   25 ar 
    29   25   26 ar 
    30   26   27 ar 
    31   26   29 1  
    32   27   28 ar 
    33   29   30 2  
    34   29   34 1  
    35   30   31 1  
    36   31   32 2  
    37   32   33 1  
    38   32   34 1  
    39   34   35 1  
    40    4   36 1  
    41    5   37 1  
    42    5   38 1  
    43    5   39 1  
    44    6   40 1  
    45    6   41 1  
    46    6   42 1  
    47   10   43 1  
    48   13   44 1  
    49   13   45 1  
    50   13   46 1  
    51   14   47 1  
    52   15   48 1  
    53   18   49 1  
    54   21   50 1  
    55   22   51 1  
    56   24   52 1  
    57   25   53 1  
    58   27   54 1  
    59   28   55 1  
    60   30   56 1  
    61   33   57 1  
    62   33   58 1  
    63   33   59 1  
    64   35   60 1  
    65   35   61 1  
    66   35   62 1  
@<TRIPOS>SUBSTRUCTURE
     1 PWU         1

