### 
### Created by X-TOOL on Mon Sep 10 21:13:23 2018
### 

@<TRIPOS>MOLECULE
5ap7_ligand
   87    92     1     0     0
SMALL
GAST_HUCK


@<TRIPOS>ATOM
      1 C1          2.0090  -14.5080  -19.5950 C.ar      1 SVE        -0.0607
      2 C2          1.1350  -13.4770  -20.3200 C.ar      1 SVE        -0.0571
      3 C3          1.8610  -14.5080  -18.0950 C.ar      1 SVE         0.0321
      4 C4          1.2230  -13.4970  -17.4090 C.ar      1 SVE         0.1223
      5 N5          1.3090  -13.8160  -16.0350 N.pl3     1 SVE        -0.1884
      6 N6          1.9560  -14.9920  -15.8590 N.2       1 SVE        -0.1708
      7 C7          2.3060  -15.4420  -17.0640 C.2       1 SVE         0.1414
      8 C8          2.9880  -16.7590  -17.2100 C.2       1 SVE         0.2384
      9 N9          3.0640  -17.4730  -16.0560 N.am      1 SVE        -0.2393
     10 O10         3.4090  -17.1590  -18.2960 O.2       1 SVE        -0.3761
     11 C11         0.8410  -13.1000  -14.8550 C.3       1 SVE         0.0611
     12 C12         0.5510  -12.3980  -18.0750 C.ar      1 SVE         0.0778
     13 C13         0.5700  -12.3610  -19.4740 C.ar      1 SVE         0.0151
     14 C14        -0.0350  -11.2450  -20.0140 C.ar      1 SVE         0.0267
     15 N15        -0.6140  -10.2650  -19.2990 N.ar      1 SVE        -0.2447
     16 C16        -0.5900  -10.4240  -17.9670 C.ar      1 SVE         0.2058
     17 N17        -0.0390  -11.4600  -17.3210 N.ar      1 SVE        -0.2597
     18 N18        -1.1620   -9.5090  -17.1320 N.pl3     1 SVE        -0.2426
     19 C19        -1.5690   -9.5700  -15.7660 C.ar      1 SVE         0.1015
     20 C20        -1.9110   -8.3710  -15.0870 C.ar      1 SVE         0.1304
     21 C21        -2.2920   -8.4000  -13.7500 C.ar      1 SVE        -0.0221
     22 C22        -2.3820   -9.6180  -13.0790 C.ar      1 SVE         0.0290
     23 C23        -2.1440  -10.8020  -13.7750 C.ar      1 SVE        -0.0623
     24 C24        -1.7350  -10.7830  -15.0970 C.ar      1 SVE        -0.0396
     25 O25        -1.9590   -7.1570  -15.7640 O.3       1 SVE        -0.2290
     26 C26        -2.6040   -9.6750  -11.5970 C.2       1 SVE         0.1940
     27 N27        -3.3160   -8.6800  -11.0460 N.am      1 SVE        -0.2846
     28 O28        -2.1370  -10.5920  -10.9220 O.2       1 SVE        -0.3901
     29 C29        -3.6380   -8.6470   -9.6190 C.3       1 SVE         0.0509
     30 C30        -2.4920   -8.0510   -8.8110 C.3       1 SVE         0.0106
     31 C31        -2.8800   -7.9420   -7.3290 C.3       1 SVE        -0.0300
     32 N32        -4.0940   -7.1450   -7.1590 N.4       1 SVE         0.2332
     33 C33        -5.2080   -7.7860   -7.8580 C.3       1 SVE        -0.0300
     34 C34        -4.9320   -7.8840   -9.3640 C.3       1 SVE         0.0106
     35 C35        -4.4050   -6.9750   -5.7390 C.3       1 SVE        -0.0431
     36 C36        -1.1190   -6.1580  -15.5060 C.3       1 SVE         0.5444
     37 F37        -1.8500   -5.0800  -15.4070 F         1 SVE        -0.1403
     38 F38        -0.3220   -5.9900  -16.5300 F         1 SVE        -0.1403
     39 F39        -0.3800   -6.2200  -14.4220 F         1 SVE        -0.1403
     40 C40         3.6480  -18.7670  -15.9300 C.ar      1 SVE         0.0707
     41 C41         2.9540  -19.9300  -16.3040 C.ar      1 SVE        -0.0275
     42 C42         3.6630  -21.1290  -16.3120 C.ar      1 SVE        -0.0801
     43 C43         5.0000  -21.1680  -15.9470 C.ar      1 SVE        -0.0903
     44 C44         5.6500  -20.0130  -15.5370 C.ar      1 SVE        -0.0801
     45 C45         4.9780  -18.7920  -15.4870 C.ar      1 SVE        -0.0275
     46 C46         5.6230  -17.6160  -14.7740 C.3       1 SVE        -0.0276
     47 C47         6.4400  -16.7020  -15.6160 C.3       1 SVE        -0.0576
     48 C48         1.4700  -19.9650  -16.6170 C.3       1 SVE        -0.0276
     49 C49         0.5500  -19.8460  -15.4220 C.3       1 SVE        -0.0576
     50 H1          2.6782  -15.1813  -20.1184 H         1 SVE         0.0590
     51 H2          0.9336  -13.5458  -21.3829 H         1 SVE         0.0557
     52 H3          2.6802  -17.0581  -15.2310 H         1 SVE         0.2207
     53 H4          1.0970  -13.6741  -13.9523 H         1 SVE         0.0596
     54 H5         -0.2502  -12.9733  -14.9117 H         1 SVE         0.0596
     55 H6          1.3230  -12.1122  -14.8103 H         1 SVE         0.0596
     56 H7         -0.0441  -11.1515  -21.0939 H         1 SVE         0.0962
     57 H8         -1.3336   -8.5950  -17.5747 H         1 SVE         0.2168
     58 H9         -2.5188   -7.4761  -13.2303 H         1 SVE         0.0555
     59 H10        -2.2815  -11.7528  -13.2728 H         1 SVE         0.0550
     60 H11        -1.5426  -11.7154  -15.6154 H         1 SVE         0.0518
     61 H12        -3.6377   -7.9353  -11.6308 H         1 SVE         0.1844
     62 H13        -3.7853   -9.6840   -9.2830 H         1 SVE         0.0559
     63 H14        -2.2583   -7.0485   -9.1989 H         1 SVE         0.0339
     64 H15        -1.6068   -8.6969   -8.9070 H         1 SVE         0.0339
     65 H16        -2.0571   -7.4650   -6.7765 H         1 SVE         0.0815
     66 H17        -3.0542   -8.9515   -6.9282 H         1 SVE         0.0815
     67 H18        -3.9410   -6.2345   -7.5635 H         1 SVE         0.2030
     68 H19        -6.1210   -7.1938   -7.6979 H         1 SVE         0.0815
     69 H20        -5.3517   -8.7984   -7.4525 H         1 SVE         0.0815
     70 H21        -5.7654   -8.4110   -9.8515 H         1 SVE         0.0339
     71 H22        -4.8437   -6.8707   -9.7828 H         1 SVE         0.0339
     72 H23        -3.5560   -6.4922   -5.2330 H         1 SVE         0.0777
     73 H24        -4.5916   -7.9590   -5.2841 H         1 SVE         0.0777
     74 H25        -5.3011   -6.3460   -5.6326 H         1 SVE         0.0777
     75 H26         3.1626  -22.0440  -16.6076 H         1 SVE         0.0460
     76 H27         5.5408  -22.1068  -15.9822 H         1 SVE         0.0455
     77 H28         6.6947  -20.0602  -15.2516 H         1 SVE         0.0460
     78 H29         6.2762  -18.0191  -13.9861 H         1 SVE         0.0392
     79 H30         4.8197  -17.0206  -14.3154 H         1 SVE         0.0392
     80 H31         6.8509  -15.8962  -14.9901 H         1 SVE         0.0248
     81 H32         5.8085  -16.2676  -16.4050 H         1 SVE         0.0248
     82 H33         7.2649  -17.2661  -16.0756 H         1 SVE         0.0248
     83 H34         1.2518  -20.9191  -17.1191 H         1 SVE         0.0392
     84 H35         1.2478  -19.1319  -17.3001 H         1 SVE         0.0392
     85 H36        -0.4962  -19.8825  -15.7597 H         1 SVE         0.0248
     86 H37         0.7366  -18.8909  -14.9092 H         1 SVE         0.0248
     87 H38         0.7406  -20.6780  -14.7282 H         1 SVE         0.0248
@<TRIPOS>BOND
     1    1    2 ar 
     2    1    3 ar 
     3    2   13 ar 
     4    3    4 ar 
     5    3    7 1  
     6    4    5 1  
     7    4   12 ar 
     8    5    6 1  
     9    5   11 1  
    10    6    7 2  
    11    7    8 1  
    12    8    9 am 
    13    8   10 2  
    14    9   40 1  
    15   12   13 ar 
    16   12   17 ar 
    17   13   14 ar 
    18   14   15 ar 
    19   15   16 ar 
    20   16   17 ar 
    21   16   18 1  
    22   18   19 1  
    23   19   20 ar 
    24   19   24 ar 
    25   20   21 ar 
    26   20   25 1  
    27   21   22 ar 
    28   22   23 ar 
    29   22   26 1  
    30   23   24 ar 
    31   25   36 1  
    32   26   27 am 
    33   26   28 2  
    34   27   29 1  
    35   29   30 1  
    36   29   34 1  
    37   30   31 1  
    38   31   32 1  
    39   32   33 1  
    40   32   35 1  
    41   33   34 1  
    42   36   37 1  
    43   36   38 1  
    44   36   39 1  
    45   40   41 ar 
    46   40   45 ar 
    47   41   42 ar 
    48   41   48 1  
    49   42   43 ar 
    50   43   44 ar 
    51   44   45 ar 
    52   45   46 1  
    53   46   47 1  
    54   48   49 1  
    55    1   50 1  
    56    2   51 1  
    57    9   52 1  
    58   11   53 1  
    59   11   54 1  
    60   11   55 1  
    61   14   56 1  
    62   18   57 1  
    63   21   58 1  
    64   23   59 1  
    65   24   60 1  
    66   27   61 1  
    67   29   62 1  
    68   30   63 1  
    69   30   64 1  
    70   31   65 1  
    71   31   66 1  
    72   32   67 1  
    73   33   68 1  
    74   33   69 1  
    75   34   70 1  
    76   34   71 1  
    77   35   72 1  
    78   35   73 1  
    79   35   74 1  
    80   42   75 1  
    81   43   76 1  
    82   44   77 1  
    83   46   78 1  
    84   46   79 1  
    85   47   80 1  
    86   47   81 1  
    87   47   82 1  
    88   48   83 1  
    89   48   84 1  
    90   49   85 1  
    91   49   86 1  
    92   49   87 1  
@<TRIPOS>SUBSTRUCTURE
     1 SVE         1

