### 
### Created by X-TOOL on Mon Sep 10 21:13:25 2018
### 

@<TRIPOS>MOLECULE
5aph_ligand
   47    50     1     0     0
SMALL
GAST_HUCK


@<TRIPOS>ATOM
      1 C1        -25.6650   12.5950  -15.7010 C.ar      1 VYI        -0.0765
      2 C2        -24.7230   13.3370  -15.0190 C.ar      1 VYI        -0.0761
      3 C3        -24.3830    7.8940  -18.3070 C.ar      1 VYI        -0.0873
      4 C4        -25.6380   11.2180  -15.6400 C.ar      1 VYI        -0.0417
      5 C5        -24.3980    8.7450  -17.2240 C.ar      1 VYI        -0.0571
      6 C6        -24.5420    6.5410  -18.1160 C.ar      1 VYI        -0.0516
      7 C7        -23.7470   12.7160  -14.2740 C.ar      1 VYI        -0.0387
      8 C8        -29.6720    6.7630  -16.7530 C.ar      1 VYI        -0.0263
      9 C9        -28.5850    8.8530  -16.2500 C.ar      1 VYI        -0.0263
     10 C10       -29.0680    6.1880  -15.6540 C.ar      1 VYI        -0.0370
     11 C11       -27.9750    8.2820  -15.1500 C.ar      1 VYI        -0.0370
     12 C12       -24.7480    6.8980  -15.7370 C.ar      1 VYI         0.0263
     13 C13       -24.5780    8.2690  -15.9390 C.ar      1 VYI         0.0524
     14 C14       -24.6460   10.5780  -14.9190 C.ar      1 VYI         0.0908
     15 C15       -24.7250    6.0530  -16.8390 C.ar      1 VYI         0.0843
     16 C16       -29.4250    8.0880  -17.0390 C.ar      1 VYI         0.1325
     17 C17       -23.7210   11.3430  -14.2330 C.ar      1 VYI         0.1526
     18 C18       -28.2100    6.9470  -14.8800 C.ar      1 VYI         0.1044
     19 C19       -24.9240    6.3630  -14.3410 C.3       1 VYI         0.0585
     20 C20       -26.0460    4.1800  -14.7900 C.3       1 VYI         0.0587
     21 C21       -26.1730    4.4030  -16.2810 C.3       1 VYI         0.0855
     22 N22       -25.9760    5.3790  -13.9060 N.am      1 VYI        -0.2245
     23 N23       -24.6000    9.1680  -14.8470 N.pl3     1 VYI        -0.2806
     24 O24       -27.1080    7.2700  -12.5390 O.2       1 VYI        -0.1505
     25 O25       -28.3590    5.1530  -13.0420 O.2       1 VYI        -0.1505
     26 O26       -24.8550    4.6740  -16.7310 O.3       1 VYI        -0.3235
     27 F27       -30.0210    8.6450  -18.1050 F         1 VYI        -0.1834
     28 F28       -22.7400   10.7660  -13.5270 F         1 VYI        -0.1915
     29 S29       -27.4370    6.1910  -13.4590 S.o2      1 VYI         0.0701
     30 H1        -26.4280   13.0957  -16.2860 H         1 VYI         0.0551
     31 H2        -24.7520   14.4194  -15.0705 H         1 VYI         0.0502
     32 H3        -24.2463    8.2894  -19.3070 H         1 VYI         0.0503
     33 H4        -26.3936   10.6372  -16.1566 H         1 VYI         0.0515
     34 H5        -24.2660    9.8092  -17.3827 H         1 VYI         0.0420
     35 H6        -24.5236    5.8638  -18.9623 H         1 VYI         0.0424
     36 H7        -23.0127   13.2989  -13.7299 H         1 VYI         0.0570
     37 H8        -30.3328    6.1795  -17.3838 H         1 VYI         0.0604
     38 H9        -28.4065    9.8941  -16.4934 H         1 VYI         0.0604
     39 H10       -29.2640    5.1525  -15.4002 H         1 VYI         0.0627
     40 H11       -27.3250    8.8692  -14.5114 H         1 VYI         0.0627
     41 H12       -25.0760    7.2493  -13.7075 H         1 VYI         0.0591
     42 H13       -23.9631    5.8915  -14.0875 H         1 VYI         0.0591
     43 H14       -25.1282    3.5969  -14.6235 H         1 VYI         0.0506
     44 H15       -26.9181    3.5898  -14.4721 H         1 VYI         0.0506
     45 H16       -26.8344    5.2572  -16.4882 H         1 VYI         0.0627
     46 H17       -26.5710    3.5032  -16.7730 H         1 VYI         0.0627
     47 H18       -24.5805    8.7527  -13.9046 H         1 VYI         0.2048
@<TRIPOS>BOND
     1    1    2 ar 
     2    4    1 ar 
     3    7    2 ar 
     4    5    3 ar 
     5    6    3 ar 
     6   14    4 ar 
     7   13    5 ar 
     8   15    6 ar 
     9   17    7 ar 
    10   10    8 ar 
    11    8   16 ar 
    12   11    9 ar 
    13    9   16 ar 
    14   18   10 ar 
    15   18   11 ar 
    16   12   13 ar 
    17   12   15 ar 
    18   19   12 1  
    19   13   23 1  
    20   14   17 ar 
    21   23   14 1  
    22   26   15 1  
    23   16   27 1  
    24   17   28 1  
    25   29   18 1  
    26   22   19 1  
    27   20   21 1  
    28   22   20 1  
    29   21   26 1  
    30   22   29 am 
    31   29   24 2  
    32   29   25 2  
    33    1   30 1  
    34    2   31 1  
    35    3   32 1  
    36    4   33 1  
    37    5   34 1  
    38    6   35 1  
    39    7   36 1  
    40    8   37 1  
    41    9   38 1  
    42   10   39 1  
    43   11   40 1  
    44   19   41 1  
    45   19   42 1  
    46   20   43 1  
    47   20   44 1  
    48   21   45 1  
    49   21   46 1  
    50   23   47 1  
@<TRIPOS>SUBSTRUCTURE
     1 VYI         1

