### 
### Created by X-TOOL on Mon Sep 10 21:13:24 2018
### 

@<TRIPOS>MOLECULE
5apj_ligand
   52    55     1     0     0
SMALL
GAST_HUCK


@<TRIPOS>ATOM
      1 C1        -29.9910    5.0520  -15.8440 C.ar      1 76E        -0.0302
      2 C2        -25.0690   14.2790  -15.7220 C.ar      1 76E        -0.0589
      3 C3        -29.8880    6.2750  -16.4760 C.ar      1 76E        -0.0314
      4 C4        -24.5600    7.3800  -17.5880 C.ar      1 76E        -0.0561
      5 C5        -24.6960    6.0070  -17.5900 C.ar      1 76E        -0.0521
      6 C6        -25.8930   13.6180  -16.6070 C.ar      1 76E        -0.0222
      7 C7        -29.2240    4.7560  -14.7440 C.ar      1 76E        -0.0071
      8 C8        -24.3050   13.5810  -14.8100 C.ar      1 76E        -0.0463
      9 C9        -24.4940    7.3520  -15.1920 C.ar      1 76E        -0.0460
     10 C10       -28.2040    6.9490  -14.9200 C.ar      1 76E        -0.0046
     11 C11       -25.1780   11.5600  -15.6680 C.ar      1 76E         0.1024
     12 C12       -24.6210    5.9870  -15.2020 C.ar      1 76E        -0.0076
     13 C13       -29.0040    7.2310  -16.0130 C.ar      1 76E         0.0501
     14 C14       -24.4610    8.0440  -16.3840 C.ar      1 76E         0.0485
     15 C15       -24.7650    5.3050  -16.4030 C.ar      1 76E         0.0792
     16 C16       -25.9470   12.2460  -16.5760 C.ar      1 76E         0.1541
     17 C17       -28.3450    5.7220  -14.3010 C.ar      1 76E         0.1374
     18 C18       -24.3660   12.2090  -14.7700 C.ar      1 76E         0.0593
     19 C19       -25.2950   10.1150  -15.6110 C.2       1 76E         0.2290
     20 C20       -24.7390    5.3050  -13.8940 C.3       1 76E         0.0586
     21 C21       -26.0430    3.3220  -14.3970 C.3       1 76E         0.0586
     22 C22       -26.1240    3.4100  -15.9180 C.3       1 76E         0.0828
     23 C23       -28.8950    8.5420  -16.7080 C.3       1 76E         0.3771
     24 N24       -26.0810    4.7370  -13.9930 N.am      1 76E        -0.2218
     25 N25       -24.3400    9.4320  -16.3360 N.am      1 76E        -0.2415
     26 O26       -26.2150    9.6780  -14.9220 O.2       1 76E        -0.3769
     27 O27       -27.9150    4.2090  -12.2130 O.2       1 76E        -0.1494
     28 O28       -26.9640    6.5800  -12.2740 O.2       1 76E        -0.1494
     29 O29       -24.8920    3.9090  -16.4660 O.3       1 76E        -0.3296
     30 F30       -26.7240   11.5760  -17.4340 F         1 76E        -0.1774
     31 F31       -28.7130    9.5970  -15.8670 F         1 76E        -0.2199
     32 F32       -27.8270    8.5440  -17.5440 F         1 76E        -0.2199
     33 F33       -29.9820    8.8570  -17.4690 F         1 76E        -0.2199
     34 S34       -27.3010    5.3220  -12.9240 S.o2      1 76E         0.0786
     35 CL35      -23.4120   11.3360  -13.6400 Cl        1 76E        -0.0658
     36 H1        -30.6886    4.3134  -16.2221 H         1 76E         0.0699
     37 H2        -25.0206   15.3617  -15.7428 H         1 76E         0.0642
     38 H3        -30.5050    6.4870  -17.3417 H         1 76E         0.0853
     39 H4        -24.5313    7.9298  -18.5218 H         1 76E         0.0422
     40 H5        -24.7492    5.4742  -18.5326 H         1 76E         0.0487
     41 H6        -26.4915   14.1744  -17.3192 H         1 76E         0.0617
     42 H7        -29.3064    3.7985  -14.2425 H         1 76E         0.0876
     43 H8        -23.6565   14.1149  -14.1249 H         1 76E         0.0600
     44 H9        -24.4198    7.8849  -14.2510 H         1 76E         0.0416
     45 H10       -27.4837    7.6736  -14.5579 H         1 76E         0.0873
     46 H11       -24.6629    6.0173  -13.0592 H         1 76E         0.0616
     47 H12       -23.9765    4.5208  -13.7776 H         1 76E         0.0616
     48 H13       -25.1067    2.8421  -14.0760 H         1 76E         0.0506
     49 H14       -26.8992    2.7679  -13.9848 H         1 76E         0.0506
     50 H15       -26.9438    4.0882  -16.1970 H         1 76E         0.0621
     51 H16       -26.3214    2.4083  -16.3274 H         1 76E         0.0621
     52 H17       -23.5968    9.9097  -16.8045 H         1 76E         0.2214
@<TRIPOS>BOND
     1    1    3 ar 
     2    7    1 ar 
     3    6    2 ar 
     4    8    2 ar 
     5   13    3 ar 
     6    5    4 ar 
     7   14    4 ar 
     8   15    5 ar 
     9   16    6 ar 
    10   17    7 ar 
    11   18    8 ar 
    12   12    9 ar 
    13    9   14 ar 
    14   10   13 ar 
    15   17   10 ar 
    16   11   16 ar 
    17   11   18 ar 
    18   19   11 1  
    19   12   15 ar 
    20   20   12 1  
    21   13   23 1  
    22   14   25 1  
    23   29   15 1  
    24   16   30 1  
    25   34   17 1  
    26   18   35 1  
    27   25   19 am 
    28   19   26 2  
    29   24   20 1  
    30   21   22 1  
    31   24   21 1  
    32   22   29 1  
    33   23   31 1  
    34   23   32 1  
    35   23   33 1  
    36   24   34 am 
    37   34   27 2  
    38   34   28 2  
    39    1   36 1  
    40    2   37 1  
    41    3   38 1  
    42    4   39 1  
    43    5   40 1  
    44    6   41 1  
    45    7   42 1  
    46    8   43 1  
    47    9   44 1  
    48   10   45 1  
    49   20   46 1  
    50   20   47 1  
    51   21   48 1  
    52   21   49 1  
    53   22   50 1  
    54   22   51 1  
    55   25   52 1  
@<TRIPOS>SUBSTRUCTURE
     1 76E         1

