### 
### Created by X-TOOL on Mon Sep 10 21:12:44 2018
### 

@<TRIPOS>MOLECULE
5apr_ligand
  107   109     1     0     0
SMALL
GAST_HUCK


@<TRIPOS>ATOM
      1 N          37.2540   72.3440  102.0190 N.4       1 PRO         0.2461
      2 CA         37.5550   71.0520  101.3940 C.3       1 PRO         0.0670
      3 C          38.7290   70.3720  102.0830 C.2       1 PRO         0.2269
      4 O          39.6710   71.0540  102.5440 O.2       1 PRO        -0.3907
      5 CB         37.7740   71.4190   99.9290 C.3       1 PRO         0.0127
      6 CG         37.5010   72.8660   99.7250 C.3       1 PRO        -0.0053
      7 CD         37.4700   73.4840  101.1120 C.3       1 PRO        -0.0313
      8 N          38.7150   69.0470  102.1650 N.am      1 PHE        -0.2592
      9 CA         39.7790   68.2350  102.7810 C.3       1 PHE         0.1406
     10 C          40.6510   67.5130  101.7640 C.2       1 PHE         0.2060
     11 O          40.2240   67.1610  100.6570 O.2       1 PHE        -0.3942
     12 CB         39.1980   67.2010  103.7730 C.3       1 PHE         0.0214
     13 CG         38.8180   67.8360  105.0840 C.ar      1 PHE        -0.0386
     14 CD1        39.8080   68.1680  106.0170 C.ar      1 PHE        -0.0601
     15 CD2        37.4950   68.1180  105.3750 C.ar      1 PHE        -0.0601
     16 CE1        39.4720   68.7740  107.2250 C.ar      1 PHE        -0.0686
     17 CE2        37.1310   68.7290  106.5770 C.ar      1 PHE        -0.0686
     18 CZ         38.1290   69.0560  107.5070 C.ar      1 PHE        -0.0687
     19 N          41.9030   67.2330  102.1020 N.am      1 CYS        -0.2627
     20 CA         42.7440   66.4800  101.1350 C.3       1 CYS         0.1405
     21 C          43.7870   65.7310  101.9890 C.2       1 CYS         0.2028
     22 O          44.8680   66.2540  102.2690 O.2       1 CYS        -0.3945
     23 CB         43.2690   67.2700   99.9670 C.3       1 CYS         0.0443
     24 SG         43.9200   66.2070   98.6290 S.3       1 CYS        -0.0883
     25 N          43.3300   64.5490  102.3590 N.am      1 STA        -0.2793
     26 CA         43.9210   63.5140  103.1770 C.3       1 STA         0.0703
     27 CB         43.3850   63.5540  104.5890 C.3       1 STA        -0.0250
     28 CG         42.8780   64.9380  105.0710 C.3       1 STA        -0.0446
     29 CD1        41.7430   64.8700  106.1190 C.3       1 STA        -0.0626
     30 CD2        44.0440   65.7060  105.7490 C.3       1 STA        -0.0626
     31 CH         44.2940   62.2080  102.4780 C.3       1 STA         0.0947
     32 OH         43.1140   61.5250  102.0020 O.3       1 STA        -0.3872
     33 CM         45.2250   62.3060  101.2740 C.3       1 STA         0.0655
     34 C          46.6270   62.6440  101.7960 C.2       1 STA         0.1808
     35 O          46.8870   63.8050  102.0020 O.2       1 STA        -0.3968
     36 N          47.4500   61.6020  101.7350 N.am      1 LEU        -0.2655
     37 CA         48.9070   61.5880  101.8500 C.3       1 LEU         0.1311
     38 C          49.5850   62.4250  100.7520 C.2       1 LEU         0.2037
     39 O          50.3880   63.3290  101.0150 O.2       1 LEU        -0.3944
     40 CB         49.4180   60.1510  101.8840 C.3       1 LEU        -0.0101
     41 CG         50.0260   59.5220  103.1130 C.3       1 LEU        -0.0425
     42 CD1        51.1000   58.5090  102.6790 C.3       1 LEU        -0.0625
     43 CD2        50.7010   60.5300  104.0440 C.3       1 LEU        -0.0625
     44 N          49.2030   62.0860   99.5390 N.am      1 PHE        -0.2664
     45 CA         49.7080   62.7550   98.3260 C.3       1 PHE         0.1200
     46 C          48.4720   63.1830   97.5260 C.2       1 PHE         0.1985
     47 O          47.7280   62.3670   96.9700 O.2       1 PHE        -0.3949
     48 N          48.3130   64.4940   97.5350 N.am      1 DHL        -0.2845
     49 CA         47.1800   65.1100   96.8420 C.3       1 DHL         0.0407
     50 CB         46.7380   66.3670   97.5730 C.3       1 DHL         0.0241
     51 SG         45.9000   66.0760   99.1280 S.3       1 DHL        -0.0909
     52 H1         37.8483   72.4575  102.8252 H         1 PRO         0.2035
     53 H2         36.2890   72.3433  102.3103 H         1 PRO         0.2035
     54 H3         36.6868   70.3812  101.4732 H         1 PRO         0.1099
     55 H4         37.0940   70.8270   99.2988 H         1 PRO         0.0347
     56 H5         38.8155   71.2012   99.6499 H         1 PRO         0.0347
     57 H6         36.5325   73.0054   99.2225 H         1 PRO         0.0320
     58 H7         38.2974   73.3239   99.1200 H         1 PRO         0.0320
     59 H8         36.6472   74.2091  101.1963 H         1 PRO         0.0814
     60 H9         38.4238   73.9839  101.3363 H         1 PRO         0.0814
     61 H10        37.9265   68.5660  101.7816 H         1 PHE         0.1886
     62 H11        40.4258   68.9222  103.3462 H         1 PHE         0.0823
     63 H12        39.9533   66.4234  103.9598 H         1 PHE         0.0474
     64 H13        38.3030   66.7432  103.3266 H         1 PHE         0.0474
     65 H14        40.8469   67.9510  105.7966 H         1 PHE         0.0557
     66 H15        36.7260   67.8596  104.6560 H         1 PHE         0.0557
     67 H16        40.2446   69.0259  107.9424 H         1 PHE         0.0599
     68 H17        36.0906   68.9477  106.7886 H         1 PHE         0.0599
     69 H18        37.8606   69.5277  108.4454 H         1 PHE         0.0559
     70 H19        42.2718   67.5215  102.9856 H         1 CYS         0.1884
     71 H20        42.0981   65.7126  100.6835 H         1 CYS         0.0808
     72 H21        44.0787   67.9250  100.3210 H         1 CYS         0.0432
     73 H22        42.4512   67.8840   99.5618 H         1 CYS         0.0432
     74 H23        42.4169   64.3321  102.0136 H         1 STA         0.1856
     75 H24        44.9304   63.9192  103.3407 H         1 STA         0.0583
     76 H25        44.1900   63.2332  105.2665 H         1 STA         0.0291
     77 H26        42.5468   62.8446  104.6537 H         1 STA         0.0291
     78 H27        42.5203   65.4983  104.1946 H         1 STA         0.0296
     79 H28        41.4455   65.8899  106.4039 H         1 STA         0.0232
     80 H29        42.0975   64.3294  107.0090 H         1 STA         0.0232
     81 H30        40.8786   64.3424  105.6896 H         1 STA         0.0232
     82 H31        44.8870   65.7869  105.0470 H         1 STA         0.0232
     83 H32        44.3672   65.1621  106.6488 H         1 STA         0.0232
     84 H33        43.7043   66.7133  106.0316 H         1 STA         0.0232
     85 H34        44.7899   61.5786  103.2316 H         1 STA         0.0642
     86 H35        42.7200   62.0283  101.2992 H         1 STA         0.2101
     87 H36        44.8770   63.0981  100.5946 H         1 STA         0.0529
     88 H37        45.2463   61.3459  100.7375 H         1 STA         0.0529
     89 H38        47.0161   60.7125  101.5919 H         1 LEU         0.1883
     90 H39        49.1657   62.0517  102.8133 H         1 LEU         0.0800
     91 H40        50.1853   60.0840  101.0987 H         1 LEU         0.0315
     92 H41        48.5600   59.5182  101.6132 H         1 LEU         0.0315
     93 H42        49.2306   59.0038  103.6688 H         1 LEU         0.0298
     94 H43        51.5484   58.0457  103.5702 H         1 LEU         0.0232
     95 H44        51.8809   59.0268  102.1027 H         1 LEU         0.0232
     96 H45        50.6384   57.7304  102.0539 H         1 LEU         0.0232
     97 H46        49.9620   61.2737  104.3768 H         1 LEU         0.0232
     98 H47        51.5154   61.0376  103.5063 H         1 LEU         0.0232
     99 H48        51.1111   60.0039  104.9186 H         1 LEU         0.0232
    100 H49        48.5419   61.3428   99.4356 H         1 PHE         0.1881
    101 H50        50.3092   63.6350   98.5984 H         1 PHE         0.0763
    102 H51        50.3224   62.0598   97.7352 H         1 PHE         0.0763
    103 H52        48.9715   65.0704   98.0189 H         1 DHL         0.1851
    104 H53        46.3435   64.3965   96.8078 H         1 DHL         0.0528
    105 H54        47.4802   65.3725   95.8169 H         1 DHL         0.0528
    106 H55        46.0543   66.9231   96.9148 H         1 DHL         0.0404
    107 H56        47.6306   66.9775   97.7744 H         1 DHL         0.0404
@<TRIPOS>BOND
     1    2    1 1  
     2    2    5 1  
     3    3    2 1  
     4    3    4 2  
     5    5    6 1  
     6    6    7 1  
     7    1    7 1  
     8   10    9 1  
     9    9   12 1  
    10    9    8 1  
    11   12   13 1  
    12   13   15 ar 
    13   13   14 ar 
    14   14   16 ar 
    15   16   18 ar 
    16   17   18 ar 
    17   15   17 ar 
    18   10   11 2  
    19   20   21 1  
    20   23   20 1  
    21   20   19 1  
    22   24   23 1  
    23   21   22 2  
    24   25   26 1  
    25   26   31 1  
    26   26   27 1  
    27   27   28 1  
    28   28   30 1  
    29   28   29 1  
    30   31   33 1  
    31   31   32 1  
    32   33   34 1  
    33   34   35 2  
    34   37   38 1  
    35   37   40 1  
    36   36   37 1  
    37   40   41 1  
    38   41   43 1  
    39   41   42 1  
    40   38   39 2  
    41   45   46 1  
    42   44   45 1  
    43   46   47 2  
    44   49   48 1  
    45   50   49 1  
    46   51   50 1  
    47    8    3 am 
    48   19   10 am 
    49   38   44 am 
    50   21   25 am 
    51   34   36 am 
    52   51   24 1  
    53   46   48 am 
    54    1   52 1  
    55    1   53 1  
    56    2   54 1  
    57    5   55 1  
    58    5   56 1  
    59    6   57 1  
    60    6   58 1  
    61    7   59 1  
    62    7   60 1  
    63    8   61 1  
    64    9   62 1  
    65   12   63 1  
    66   12   64 1  
    67   14   65 1  
    68   15   66 1  
    69   16   67 1  
    70   17   68 1  
    71   18   69 1  
    72   19   70 1  
    73   20   71 1  
    74   23   72 1  
    75   23   73 1  
    76   25   74 1  
    77   26   75 1  
    78   27   76 1  
    79   27   77 1  
    80   28   78 1  
    81   29   79 1  
    82   29   80 1  
    83   29   81 1  
    84   30   82 1  
    85   30   83 1  
    86   30   84 1  
    87   31   85 1  
    88   32   86 1  
    89   33   87 1  
    90   33   88 1  
    91   36   89 1  
    92   37   90 1  
    93   40   91 1  
    94   40   92 1  
    95   41   93 1  
    96   42   94 1  
    97   42   95 1  
    98   42   96 1  
    99   43   97 1  
   100   43   98 1  
   101   43   99 1  
   102   44  100 1  
   103   45  101 1  
   104   45  102 1  
   105   48  103 1  
   106   49  104 1  
   107   49  105 1  
   108   50  106 1  
   109   50  107 1  
@<TRIPOS>SUBSTRUCTURE
     1 PRO         1

