### 
### Created by X-TOOL on Mon Sep 10 21:13:27 2018
### 

@<TRIPOS>MOLECULE
5aqf_ligand
   32    34     1     0     0
SMALL
GAST_HUCK


@<TRIPOS>ATOM
      1 O5'       -27.7500  -16.2170   34.9850 O.3       1 ADN        -0.3924
      2 C5'       -27.8330  -17.5610   34.5160 C.3       1 ADN         0.0730
      3 C4'       -26.5550  -18.0230   33.8430 C.3       1 ADN         0.1135
      4 O4'       -26.3690  -17.3200   32.5930 O.3       1 ADN        -0.3368
      5 C3'       -25.2550  -17.8450   34.6440 C.3       1 ADN         0.1146
      6 O3'       -24.4610  -19.0240   34.5540 O.3       1 ADN        -0.3864
      7 C2'       -24.5810  -16.6610   33.9420 C.3       1 ADN         0.1385
      8 O2'       -23.1650  -16.6880   34.0060 O.3       1 ADN        -0.3836
      9 C1'       -25.0220  -16.9010   32.5050 C.3       1 ADN         0.2010
     10 N9        -24.9240  -15.7270   31.6400 N.pl3     1 ADN        -0.1919
     11 C8        -25.5320  -14.5090   31.7990 C.2       1 ADN         0.1123
     12 N7        -25.1610  -13.6060   30.9240 N.2       1 ADN        -0.2958
     13 C5        -24.2420  -14.2770   30.1330 C.ar      1 ADN         0.1045
     14 C6        -23.4520  -13.8670   29.0450 C.ar      1 ADN         0.1298
     15 N6        -23.4380  -12.6200   28.5670 N.pl3     1 ADN        -0.3152
     16 N1        -22.6470  -14.7880   28.4710 N.ar      1 ADN        -0.2698
     17 C2        -22.6250  -16.0310   28.9700 C.ar      1 ADN         0.0533
     18 N3        -23.3000  -16.5260   30.0120 N.ar      1 ADN        -0.2714
     19 C4        -24.0990  -15.5920   30.5520 C.ar      1 ADN         0.1613
     20 H1        -27.5792  -15.6371   34.2522 H         1 ADN         0.2095
     21 H2        -28.6579  -17.6313   33.7918 H         1 ADN         0.0584
     22 H3        -28.0391  -18.2208   35.3717 H         1 ADN         0.0584
     23 H4        -26.6728  -19.0965   33.6342 H         1 ADN         0.0647
     24 H5        -25.4612  -17.6155   35.6998 H         1 ADN         0.0648
     25 H6        -23.6607  -18.9042   35.0517 H         1 ADN         0.2100
     26 H7        -24.9494  -15.7022   34.3356 H         1 ADN         0.0676
     27 H8        -22.8898  -16.6712   34.9151 H         1 ADN         0.2101
     28 H9        -24.4064  -17.7015   32.0689 H         1 ADN         0.0996
     29 H10       -26.2599  -14.3088   32.5839 H         1 ADN         0.1349
     30 H11       -22.8361  -12.3824   27.7657 H         1 ADN         0.1820
     31 H12       -24.0291  -11.8959   28.9997 H         1 ADN         0.1820
     32 H13       -21.9716  -16.7296   28.4599 H         1 ADN         0.0996
@<TRIPOS>BOND
     1    1    2 1  
     2    2    3 1  
     3    3    4 1  
     4    3    5 1  
     5    4    9 1  
     6    5    6 1  
     7    5    7 1  
     8    7    8 1  
     9    7    9 1  
    10    9   10 1  
    11   10   11 1  
    12   10   19 1  
    13   11   12 2  
    14   12   13 1  
    15   13   14 ar 
    16   13   19 ar 
    17   14   15 1  
    18   14   16 ar 
    19   16   17 ar 
    20   17   18 ar 
    21   18   19 ar 
    22    1   20 1  
    23    2   21 1  
    24    2   22 1  
    25    3   23 1  
    26    5   24 1  
    27    6   25 1  
    28    7   26 1  
    29    8   27 1  
    30    9   28 1  
    31   11   29 1  
    32   15   30 1  
    33   15   31 1  
    34   17   32 1  
@<TRIPOS>SUBSTRUCTURE
     1 ADN         1

