### 
### Created by X-TOOL on Mon Sep 10 21:13:28 2018
### 

@<TRIPOS>MOLECULE
5aqg_ligand
   40    43     1     0     0
SMALL
GAST_HUCK


@<TRIPOS>ATOM
      1 C          32.4920   -1.6760   52.0320 C.3       1 ZJB         0.0730
      2 N          35.2180   -3.4980   54.9030 N.pl3     1 ZJB        -0.2236
      3 O          33.9070   -1.8080   53.9820 O.3       1 ZJB        -0.3372
      4 C1         33.7350   -1.1470   52.7100 C.3       1 ZJB         0.1135
      5 N1         33.7640   -7.7470   54.9260 N.pl3     1 ZJB        -0.2743
      6 O1         37.1180   -2.5000   52.5470 O.3       1 ZJB        -0.3836
      7 C2         35.2320   -2.2920   54.0860 C.3       1 ZJB         0.1958
      8 N2         35.2520   -7.7170   56.7940 N.pl3     1 ZJB        -0.1400
      9 O2         35.8530   -0.1750   51.9940 O.3       1 ZJB        -0.3864
     10 C3         35.6990   -2.5250   52.6490 C.3       1 ZJB         0.1381
     11 N3         36.1550   -6.9870   57.6340 N.pl3     1 ZJB        -0.1291
     12 O3         31.5450   -0.6370   51.8200 O.3       1 ZJB        -0.3924
     13 C4         35.0410   -1.3420   51.9340 C.3       1 ZJB         0.1145
     14 N4         36.8500   -2.9490   56.7950 N.ar      1 ZJB        -0.2771
     15 C5         34.5080   -4.6880   54.5770 C.2       1 ZJB         0.0355
     16 N5         37.2570   -4.8280   58.2320 N.ar      1 ZJB        -0.2697
     17 C6         34.8490   -5.6550   55.4770 C.2       1 ZJB         0.0348
     18 C7         34.6260   -7.0670   55.7610 C.cat     1 ZJB         0.2453
     19 C8         36.4220   -5.6310   57.4790 C.ar      1 ZJB         0.1649
     20 C9         35.7580   -5.0540   56.3870 C.ar      1 ZJB         0.0530
     21 C10        35.9840   -3.7150   56.0470 C.ar      1 ZJB         0.1401
     22 C11        37.4120   -3.5670   57.8370 C.ar      1 ZJB         0.0501
     23 C12        36.8600   -7.7970   58.6670 C.3       1 ZJB         0.0668
     24 H1         32.0387   -2.4516   52.6667 H         1 ZJB         0.0584
     25 H2         32.7700   -2.1126   51.0614 H         1 ZJB         0.0584
     26 H3         33.5916   -0.0689   52.8749 H         1 ZJB         0.0647
     27 H4         33.2980   -7.2513   54.1526 H         1 ZJB         0.3177
     28 H5         33.5863   -8.7504   55.0758 H         1 ZJB         0.3177
     29 H6         37.3721   -2.6477   51.6436 H         1 ZJB         0.2101
     30 H7         35.8805   -1.5438   54.5653 H         1 ZJB         0.0991
     31 H8         35.0753   -8.7174   56.9639 H         1 ZJB         0.3587
     32 H9         36.6545   -0.3228   51.5059 H         1 ZJB         0.2100
     33 H10        35.3269   -3.4832   52.2573 H         1 ZJB         0.0676
     34 H11        31.2989   -0.2589   52.6561 H         1 ZJB         0.2095
     35 H12        34.8379   -1.5872   50.8811 H         1 ZJB         0.0648
     36 H13        33.8105   -4.8065   53.7491 H         1 ZJB         0.0924
     37 H14        38.0812   -2.9629   58.4390 H         1 ZJB         0.0975
     38 H15        37.5242   -7.1453   59.2535 H         1 ZJB         0.0537
     39 H16        37.4556   -8.5803   58.1753 H         1 ZJB         0.0537
     40 H17        36.1207   -8.2633   59.3348 H         1 ZJB         0.0537
@<TRIPOS>BOND
     1    4    1 1  
     2    1   12 1  
     3    2    7 1  
     4    2   15 1  
     5   21    2 1  
     6    3    4 1  
     7    7    3 1  
     8   13    4 1  
     9   18    5 ar 
    10   10    6 1  
    11    7   10 1  
    12   11    8 1  
    13    8   18 ar 
    14   13    9 1  
    15   10   13 1  
    16   19   11 1  
    17   11   23 1  
    18   14   21 ar 
    19   22   14 ar 
    20   15   17 2  
    21   16   19 ar 
    22   16   22 ar 
    23   17   18 1  
    24   17   20 1  
    25   19   20 ar 
    26   20   21 ar 
    27    1   24 1  
    28    1   25 1  
    29    4   26 1  
    30    5   27 1  
    31    5   28 1  
    32    6   29 1  
    33    7   30 1  
    34    8   31 1  
    35    9   32 1  
    36   10   33 1  
    37   12   34 1  
    38   13   35 1  
    39   15   36 1  
    40   22   37 1  
    41   23   38 1  
    42   23   39 1  
    43   23   40 1  
@<TRIPOS>SUBSTRUCTURE
     1 ZJB         1

