### 
### Created by X-TOOL on Mon Sep 10 21:13:28 2018
### 

@<TRIPOS>MOLECULE
5aqh_ligand
   22    24     1     0     0
SMALL
GAST_HUCK


@<TRIPOS>ATOM
      1 C           0.9930    8.6380   33.6350 C.3       1 ZVO         0.0489
      2 N          -0.0710    7.7980   33.0480 N.pl3     1 ZVO        -0.2058
      3 C1         -0.0390    6.4250   33.1840 C.ar      1 ZVO         0.1511
      4 N1         -0.2760    3.6570   33.3060 N.ar      1 ZVO        -0.2831
      5 C2         -1.1120    5.7660   32.5910 C.ar      1 ZVO         0.0684
      6 N2          0.8990    5.6660   33.8330 N.ar      1 ZVO        -0.2753
      7 C3         -1.2080    4.3660   32.6690 C.ar      1 ZVO         0.1373
      8 N3         -2.3860    4.0390   32.0010 N.pl3     1 ZVO        -0.2691
      9 C4          0.7160    4.3650   33.8470 C.ar      1 ZVO         0.0434
     10 N4         -1.0860    8.4700   32.3750 N.2       1 ZVO        -0.2100
     11 C5         -2.9910    5.2350   31.5230 C.2       1 ZVO         0.0368
     12 N5         -3.1020    8.4720   31.2020 N.pl3     1 ZVO        -0.3238
     13 C6         -2.2070    6.3120   31.8850 C.2       1 ZVO         0.0353
     14 C7         -2.1080    7.7630   31.8240 C.2       1 ZVO         0.1118
     15 H1          0.7864    9.6963   33.4176 H         1 ZVO         0.0555
     16 H2          1.9636    8.3571   33.2003 H         1 ZVO         0.0555
     17 H3          1.0212    8.4861   34.7241 H         1 ZVO         0.0555
     18 H4         -2.7582    3.0871   31.8739 H         1 ZVO         0.2320
     19 H5          1.4729    3.7901   34.3682 H         1 ZVO         0.0970
     20 H6         -3.9226    5.2916   30.9619 H         1 ZVO         0.0870
     21 H7         -3.8955    7.9766   30.7709 H         1 ZVO         0.1758
     22 H8         -3.0557    9.5003   31.1656 H         1 ZVO         0.1758
@<TRIPOS>BOND
     1    2    1 1  
     2    3    2 1  
     3    2   10 1  
     4    5    3 ar 
     5    3    6 ar 
     6    7    4 ar 
     7    4    9 ar 
     8    5    7 ar 
     9    5   13 1  
    10    6    9 ar 
    11    7    8 1  
    12    8   11 1  
    13   10   14 2  
    14   11   13 2  
    15   14   12 1  
    16   13   14 1  
    17    1   15 1  
    18    1   16 1  
    19    1   17 1  
    20    8   18 1  
    21    9   19 1  
    22   11   20 1  
    23   12   21 1  
    24   12   22 1  
@<TRIPOS>SUBSTRUCTURE
     1 ZVO         1

