### 
### Created by X-TOOL on Mon Sep 10 21:13:28 2018
### 

@<TRIPOS>MOLECULE
5aqj_ligand
   17    18     1     0     0
SMALL
GAST_HUCK


@<TRIPOS>ATOM
      1 N1        153.3650   -4.7480   57.0840 N.ar      1 Q88        -0.2751
      2 C2        153.4020   -3.4580   56.7270 C.ar      1 Q88         0.0450
      3 N3        152.6730   -2.8260   55.8040 N.ar      1 Q88        -0.3032
      4 C4        151.8060   -3.6660   55.2060 C.ar      1 Q88         0.0802
      5 C5        151.6600   -5.0200   55.4690 C.ar      1 Q88         0.1437
      6 C6        152.4950   -5.5750   56.4560 C.ar      1 Q88         0.1446
      7 N6        152.5380   -6.8770   56.7430 N.pl3     1 Q88        -0.3175
      8 N7        150.6610   -5.5720   54.6800 N.pl3     1 Q88        -0.2214
      9 C8        150.2060   -4.5310   53.9710 C.2       1 Q88         0.2186
     10 N8        149.1560   -4.5830   53.1460 N.pl3     1 Q88        -0.2857
     11 N9        150.8710   -3.3620   54.2370 N.2       1 Q88        -0.2917
     12 H1        154.1202   -2.8444   57.2587 H         1 Q88         0.0958
     13 H2        151.8879   -7.5281   56.2801 H         1 Q88         0.1792
     14 H3        153.2213   -7.2312   57.4275 H         1 Q88         0.1792
     15 H4        150.3441   -6.5515   54.6473 H         1 Q88         0.2333
     16 H5        148.8626   -3.7400   52.6321 H         1 Q88         0.1875
     17 H6        148.6401   -5.4661   53.0241 H         1 Q88         0.1875
@<TRIPOS>BOND
     1    1    2 ar 
     2    1    6 ar 
     3    2    3 ar 
     4    3    4 ar 
     5    4    5 ar 
     6    4   11 1  
     7    5    6 ar 
     8    5    8 1  
     9    6    7 1  
    10    8    9 1  
    11    9   10 1  
    12    9   11 2  
    13    2   12 1  
    14    7   13 1  
    15    7   14 1  
    16    8   15 1  
    17   10   16 1  
    18   10   17 1  
@<TRIPOS>SUBSTRUCTURE
     1 Q88         1

