### 
### Created by X-TOOL on Mon Sep 10 21:13:28 2018
### 

@<TRIPOS>MOLECULE
5aqn_ligand
   20    22     1     0     0
SMALL
GAST_HUCK


@<TRIPOS>ATOM
      1 O1        -28.1910   18.3280   63.6880 O.2       1 JG8        -0.3976
      2 C9        -28.7610   17.8340   62.7220 C.2       1 JG8         0.2594
      3 N1        -29.4780   18.6130   61.8590 N.am      1 JG8        -0.2028
      4 C8        -30.1410   18.1420   60.7920 C.2       1 JG8         0.1191
      5 N         -30.1890   16.9020   60.4350 N.2       1 JG8        -0.3080
      6 C1        -29.4770   16.1030   61.2820 C.2       1 JG8         0.0492
      7 C         -28.7660   16.4520   62.3910 C.2       1 JG8         0.2016
      8 O         -28.1850   15.3770   63.0310 O.3       1 JG8        -0.2489
      9 C7        -28.5560   14.2770   62.2890 C.ar      1 JG8         0.1263
     10 C2        -29.3360   14.6600   61.2080 C.ar      1 JG8         0.0147
     11 C6        -28.2320   12.9650   62.5560 C.ar      1 JG8        -0.0282
     12 C5        -28.7090   11.9950   61.6930 C.ar      1 JG8        -0.0705
     13 C4        -29.4820   12.3450   60.5960 C.ar      1 JG8        -0.0731
     14 C3        -29.7990   13.6710   60.3460 C.ar      1 JG8        -0.0648
     15 H1        -29.5108   19.5971   62.0336 H         1 JG8         0.2543
     16 H2        -30.6811   18.8619   60.1789 H         1 JG8         0.1444
     17 H3        -27.6236   12.7016   63.4137 H         1 JG8         0.0566
     18 H4        -28.4766   10.9521   61.8757 H         1 JG8         0.0570
     19 H5        -29.8425   11.5726   59.9263 H         1 JG8         0.0533
     20 H6        -30.4030   13.9354   59.4855 H         1 JG8         0.0580
@<TRIPOS>BOND
     1    1    2 2  
     2    2    3 am 
     3    2    7 1  
     4    3    4 1  
     5    4    5 2  
     6    5    6 1  
     7    6    7 2  
     8    6   10 1  
     9    7    8 1  
    10    8    9 1  
    11    9   10 ar 
    12    9   11 ar 
    13   10   14 ar 
    14   11   12 ar 
    15   12   13 ar 
    16   13   14 ar 
    17    3   15 1  
    18    4   16 1  
    19   11   17 1  
    20   12   18 1  
    21   13   19 1  
    22   14   20 1  
@<TRIPOS>SUBSTRUCTURE
     1 JG8         1

