### 
### Created by X-TOOL on Mon Sep 10 21:13:27 2018
### 

@<TRIPOS>MOLECULE
5aqo_ligand
   21    22     1     0     0
SMALL
GAST_HUCK


@<TRIPOS>ATOM
      1 N1        200.2780   -5.9990    0.8700 N.ar      1 CWS        -0.2970
      2 C2        200.3990   -4.7440    1.2580 C.ar      1 CWS         0.0580
      3 N3        201.1620   -4.2520    2.2380 N.ar      1 CWS        -0.2571
      4 C4        201.9090   -5.1050    2.9340 C.ar      1 CWS         0.1378
      5 C5        202.6290   -7.5180    3.2970 C.ar      1 CWS        -0.0405
      6 C6        202.5420   -8.8430    2.9410 C.ar      1 CWS        -0.0385
      7 C7        201.6960   -9.1920    1.8920 C.ar      1 CWS        -0.0514
      8 C8        200.9630   -8.2620    1.2190 C.ar      1 CWS        -0.0432
      9 C4A       201.8890   -6.5190    2.6300 C.ar      1 CWS         0.0473
     10 C8A       201.0360   -6.8990    1.5680 C.ar      1 CWS         0.0398
     11 C11       203.3440   -9.8980    3.6630 C.3       1 CWS        -0.0298
     12 NA4       202.6730   -4.6230    3.9240 N.pl3     1 CWS        -0.3074
     13 H1        199.8040   -4.0204    0.7126 H         1 CWS         0.1041
     14 H2        203.2840   -7.2330    4.1124 H         1 CWS         0.0599
     15 H3        201.6184  -10.2337    1.6025 H         1 CWS         0.0639
     16 H4        200.3168   -8.5738    0.4064 H         1 CWS         0.0622
     17 H5        203.9454   -9.4246    4.4530 H         1 CWS         0.0392
     18 H6        204.0100  -10.4048    2.9492 H         1 CWS         0.0392
     19 H7        202.6612  -10.6336    4.1131 H         1 CWS         0.0392
     20 H8        203.2609   -5.2617    4.4784 H         1 CWS         0.1872
     21 H9        202.6723   -3.6139    4.1304 H         1 CWS         0.1872
@<TRIPOS>BOND
     1    2    1 ar 
     2    1   10 ar 
     3    3    2 ar 
     4    4    3 ar 
     5    9    4 ar 
     6    4   12 1  
     7    5    6 ar 
     8    5    9 ar 
     9    6    7 ar 
    10    6   11 1  
    11    7    8 ar 
    12    8   10 ar 
    13    9   10 ar 
    14    2   13 1  
    15    5   14 1  
    16    7   15 1  
    17    8   16 1  
    18   11   17 1  
    19   11   18 1  
    20   11   19 1  
    21   12   20 1  
    22   12   21 1  
@<TRIPOS>SUBSTRUCTURE
     1 CWS         1

