### 
### Created by X-TOOL on Mon Sep 10 21:13:27 2018
### 

@<TRIPOS>MOLECULE
5aqp_ligand
   18    19     1     0     0
SMALL
GAST_HUCK


@<TRIPOS>ATOM
      1 CAE       203.1730   -8.0970   60.8860 C.ar      1 1LQ        -0.0401
      2 CAB       203.7980   -9.0470   61.6490 C.ar      1 1LQ        -0.0555
      3 CAC       204.4470   -8.7000   62.8230 C.ar      1 1LQ        -0.0545
      4 CAF       204.4770   -7.3990   63.2430 C.ar      1 1LQ        -0.0400
      5 C5        203.8380   -6.3730   62.4930 C.ar      1 1LQ         0.0548
      6 C4        203.1780   -6.7360   61.2840 C.ar      1 1LQ         0.0444
      7 N3        202.5340   -5.8260   60.4800 N.ar      1 1LQ        -0.2938
      8 C2        202.5470   -4.5640   60.9050 C.ar      1 1LQ         0.0604
      9 N1        203.1080   -4.0640   62.0080 N.ar      1 1LQ        -0.2542
     10 C6        203.7630   -4.9640   62.8170 C.ar      1 1LQ         0.1414
     11 NAA       204.3230   -4.4700   63.9400 N.pl3     1 1LQ        -0.3062
     12 H1        202.6705   -8.3877   59.9706 H         1 1LQ         0.0627
     13 H2        203.7848  -10.0831   61.3306 H         1 1LQ         0.0674
     14 H3        204.9353   -9.4666   63.4137 H         1 1LQ         0.0626
     15 H4        204.9953   -7.1458   64.1608 H         1 1LQ         0.0687
     16 H5        202.0345   -3.8488   60.2718 H         1 1LQ         0.1061
     17 H6        204.2564   -3.4636   64.1490 H         1 1LQ         0.1878
     18 H7        204.8173   -5.0991   64.5887 H         1 1LQ         0.1878
@<TRIPOS>BOND
     1    1    2 ar 
     2    1    6 ar 
     3    2    3 ar 
     4    3    4 ar 
     5    4    5 ar 
     6    5    6 ar 
     7    5   10 ar 
     8    6    7 ar 
     9    7    8 ar 
    10    8    9 ar 
    11    9   10 ar 
    12   10   11 1  
    13    1   12 1  
    14    2   13 1  
    15    3   14 1  
    16    4   15 1  
    17    8   16 1  
    18   11   17 1  
    19   11   18 1  
@<TRIPOS>SUBSTRUCTURE
     1 1LQ         1

