### 
### Created by X-TOOL on Mon Sep 10 21:13:28 2018
### 

@<TRIPOS>MOLECULE
5aqq_ligand
   21    22     1     0     0
SMALL
GAST_HUCK


@<TRIPOS>ATOM
      1 N1        326.4110    7.6160  252.0170 N.pl3     1 BBW        -0.3070
      2 C1        327.1560    7.3360  253.0990 C.ar      1 BBW         0.1377
      3 C2        327.2760    5.9810  253.5900 C.ar      1 BBW         0.0496
      4 C3        326.6910    4.8170  253.0430 C.ar      1 BBW        -0.0434
      5 N2        327.7850    8.3670  253.7200 N.ar      1 BBW        -0.2572
      6 C4        328.5080    8.0660  254.8010 C.ar      1 BBW         0.0576
      7 N3        328.7030    6.8900  255.3570 N.ar      1 BBW        -0.2981
      8 C5        328.0830    5.8350  254.7440 C.ar      1 BBW         0.0362
      9 C6        328.2700    4.5480  255.2930 C.ar      1 BBW        -0.0411
     10 C7        327.6910    3.4330  254.7380 C.ar      1 BBW        -0.0395
     11 C8        327.9030    2.0640  255.3350 C.3       1 BBW        -0.0278
     12 C9        326.9010    3.5940  253.6060 C.ar      1 BBW        -0.0506
     13 H1        326.3361    8.5866  251.6804 H         1 BBW         0.1876
     14 H2        325.9146    6.8601  251.5239 H         1 BBW         0.1876
     15 H3        326.0653    4.8982  252.1616 H         1 BBW         0.0680
     16 H4        328.9999    8.9020  255.2850 H         1 BBW         0.1054
     17 H5        328.8875    4.4366  256.1769 H         1 BBW         0.0539
     18 H6        327.3554    1.3166  254.7420 H         1 BBW         0.0407
     19 H7        327.5319    2.0540  256.3704 H         1 BBW         0.0407
     20 H8        328.9762    1.8230  255.3278 H         1 BBW         0.0407
     21 H9        326.4387    2.7218  253.1582 H         1 BBW         0.0591
@<TRIPOS>BOND
     1    1    2 1  
     2    2    3 ar 
     3    2    5 ar 
     4    3    4 ar 
     5    3    8 ar 
     6    4   12 ar 
     7    5    6 ar 
     8    6    7 ar 
     9    7    8 ar 
    10    8    9 ar 
    11    9   10 ar 
    12   10   11 1  
    13   10   12 ar 
    14    1   13 1  
    15    1   14 1  
    16    4   15 1  
    17    6   16 1  
    18    9   17 1  
    19   11   18 1  
    20   11   19 1  
    21   11   20 1  
    22   12   21 1  
@<TRIPOS>SUBSTRUCTURE
     1 BBW         1

