### 
### Created by X-TOOL on Mon Sep 10 21:13:29 2018
### 

@<TRIPOS>MOLECULE
5aqr_ligand
   22    23     1     0     0
SMALL
GAST_HUCK


@<TRIPOS>ATOM
      1 N1        204.1680   -4.4850   64.4350 N.pl3     1 N8Y        -0.3081
      2 C1        203.5160   -4.9800   63.3700 C.ar      1 N8Y         0.1356
      3 N2        202.8490   -4.1140   62.5600 N.ar      1 N8Y        -0.2589
      4 C2        202.2290   -4.6330   61.4990 C.ar      1 N8Y         0.0564
      5 N3        202.1650   -5.8880   61.1180 N.ar      1 N8Y        -0.2991
      6 C3        202.8210   -6.7840   61.9210 C.ar      1 N8Y         0.0372
      7 C4        203.5340   -6.3970   63.0850 C.ar      1 N8Y         0.0448
      8 C5        204.1700   -7.3950   63.8540 C.ar      1 N8Y        -0.0141
      9 C6        204.0890   -8.7090   63.4820 C.ar      1 N8Y         0.0985
     10 O1        204.6490   -9.7640   64.1550 O.3       1 N8Y        -0.3196
     11 C7        205.3870   -9.4920   65.3420 C.3       1 N8Y         0.0596
     12 C8        203.3940   -9.0870   62.3440 C.ar      1 N8Y        -0.0221
     13 C9        202.7730   -8.1520   61.5770 C.ar      1 N8Y        -0.0429
     14 H1        204.6811   -5.1183   65.0648 H         1 N8Y         0.1868
     15 H2        204.1549   -3.4722   64.6219 H         1 N8Y         0.1868
     16 H3        201.7081   -3.9234   60.8664 H         1 N8Y         0.1029
     17 H4        204.7251   -7.1191   64.7433 H         1 N8Y         0.0568
     18 H5        205.7688  -10.4349   65.7605 H         1 N8Y         0.0578
     19 H6        204.7312   -9.0033   66.0776 H         1 N8Y         0.0578
     20 H7        206.2311   -8.8277   65.1049 H         1 N8Y         0.0578
     21 H8        203.3454  -10.1331   62.0642 H         1 N8Y         0.0641
     22 H9        202.2336   -8.4614   60.6891 H         1 N8Y         0.0620
@<TRIPOS>BOND
     1    1    2 1  
     2    2    3 ar 
     3    2    7 ar 
     4    3    4 ar 
     5    4    5 ar 
     6    5    6 ar 
     7    6    7 ar 
     8    6   13 ar 
     9    7    8 ar 
    10    8    9 ar 
    11    9   10 1  
    12    9   12 ar 
    13   10   11 1  
    14   12   13 ar 
    15    1   14 1  
    16    1   15 1  
    17    4   16 1  
    18    8   17 1  
    19   11   18 1  
    20   11   19 1  
    21   11   20 1  
    22   12   21 1  
    23   13   22 1  
@<TRIPOS>SUBSTRUCTURE
     1 N8Y         1

