### 
### Created by X-TOOL on Mon Sep 10 21:13:27 2018
### 

@<TRIPOS>MOLECULE
5aqt_ligand
   37    39     1     0     0
SMALL
GAST_HUCK


@<TRIPOS>ATOM
      1 O2         58.9830   -3.4860  149.9030 O.3       1 5P7        -0.3868
      2 C1         59.0540   -3.3860  148.4880 C.3       1 5P7         0.1052
      3 C2         59.8430   -2.1500  148.0720 C.3       1 5P7         0.0883
      4 O1         59.7590   -1.1170  149.0420 O.3       1 5P7        -0.3888
      5 C3         59.2980   -1.6840  146.7220 C.3       1 5P7         0.0130
      6 C5         60.3660   -1.6890  145.6520 C.3       1 5P7         0.0495
      7 O          61.0190   -2.9480  145.5820 O.3       1 5P7        -0.3946
      8 C4         58.1460   -2.6500  146.4510 C.3       1 5P7        -0.0190
      9 C          57.6960   -3.1420  147.8270 C.3       1 5P7         0.0729
     10 N          56.8810   -4.3290  147.6740 N.pl3     1 5P7        -0.2866
     11 C6         55.6470   -4.4980  148.2480 C.ar      1 5P7         0.1442
     12 C9         55.0070   -5.7870  148.1900 C.ar      1 5P7         0.0550
     13 C10        55.5160   -6.9510  147.5660 C.ar      1 5P7        -0.0400
     14 C11        54.8290   -8.1250  147.6120 C.ar      1 5P7        -0.0545
     15 C12        53.6190   -8.2050  148.2660 C.ar      1 5P7        -0.0555
     16 C13        53.0820   -7.1100  148.8750 C.ar      1 5P7        -0.0401
     17 C8         53.7630   -5.8730  148.8550 C.ar      1 5P7         0.0444
     18 N2         53.2030   -4.8070  149.5030 N.ar      1 5P7        -0.2938
     19 C7         53.9030   -3.6960  149.4680 C.ar      1 5P7         0.0604
     20 N1         55.0830   -3.4690  148.8840 N.ar      1 5P7        -0.2541
     21 H1         59.8614   -3.5483  150.2594 H         1 5P7         0.2100
     22 H2         59.5163   -4.3015  148.0904 H         1 5P7         0.0643
     23 H3         60.9013   -2.4262  147.9553 H         1 5P7         0.0623
     24 H4         60.1093   -1.4302  149.8677 H         1 5P7         0.2099
     25 H5         58.9076   -0.6591  146.8070 H         1 5P7         0.0349
     26 H6         61.1094   -0.9120  145.8838 H         1 5P7         0.0561
     27 H7         59.9001   -1.4723  144.6794 H         1 5P7         0.0561
     28 H8         61.6830   -2.9218  144.9031 H         1 5P7         0.2094
     29 H9         58.4884   -3.4937  145.8338 H         1 5P7         0.0294
     30 H10        57.3217   -2.1319  145.9391 H         1 5P7         0.0294
     31 H11        57.1236   -2.3773  148.3725 H         1 5P7         0.0596
     32 H12        57.2523   -5.0966  147.0963 H         1 5P7         0.1918
     33 H13        56.4654   -6.9068  147.0447 H         1 5P7         0.0687
     34 H14        55.2377   -9.0055  147.1295 H         1 5P7         0.0626
     35 H15        53.0879   -9.1495  148.2966 H         1 5P7         0.0674
     36 H16        52.1252   -7.1894  149.3783 H         1 5P7         0.0627
     37 H17        53.4639   -2.8489  149.9825 H         1 5P7         0.1061
@<TRIPOS>BOND
     1    1    2 1  
     2    2    3 1  
     3    2    9 1  
     4    3    4 1  
     5    3    5 1  
     6    5    6 1  
     7    5    8 1  
     8    6    7 1  
     9    8    9 1  
    10    9   10 1  
    11   10   11 1  
    12   11   12 ar 
    13   11   20 ar 
    14   12   13 ar 
    15   12   17 ar 
    16   13   14 ar 
    17   14   15 ar 
    18   15   16 ar 
    19   16   17 ar 
    20   17   18 ar 
    21   18   19 ar 
    22   19   20 ar 
    23    1   21 1  
    24    2   22 1  
    25    3   23 1  
    26    4   24 1  
    27    5   25 1  
    28    6   26 1  
    29    6   27 1  
    30    7   28 1  
    31    8   29 1  
    32    8   30 1  
    33    9   31 1  
    34   10   32 1  
    35   13   33 1  
    36   14   34 1  
    37   15   35 1  
    38   16   36 1  
    39   19   37 1  
@<TRIPOS>SUBSTRUCTURE
     1 5P7         1

