### 
### Created by X-TOOL on Mon Sep 10 21:13:27 2018
### 

@<TRIPOS>MOLECULE
5aqu_ligand
   41    43     1     0     0
SMALL
GAST_HUCK


@<TRIPOS>ATOM
      1 O2        -20.6030  -16.0020   24.8600 O.3       1 UX0        -0.3868
      2 C1        -20.5650  -16.0830   26.2790 C.3       1 UX0         0.1051
      3 C2        -19.8010  -17.3150   26.7660 C.3       1 UX0         0.0883
      4 O1        -19.7930  -18.3440   25.7860 O.3       1 UX0        -0.3888
      5 C3        -20.4350  -17.7820   28.0820 C.3       1 UX0         0.0130
      6 C5        -19.4320  -17.7850   29.2150 C.3       1 UX0         0.0495
      7 O         -18.3230  -18.6190   28.9180 O.3       1 UX0        -0.3946
      8 C4        -21.5950  -16.8030   28.2810 C.3       1 UX0        -0.0190
      9 C         -21.9520  -16.2440   26.9020 C.3       1 UX0         0.0727
     10 N         -22.6470  -14.9760   26.9510 N.pl3     1 UX0        -0.2874
     11 C6        -23.8820  -14.8210   26.4050 C.ar      1 UX0         0.1430
     12 C9        -24.5420  -13.5460   26.4420 C.ar      1 UX0         0.0885
     13 C10       -24.0270  -12.3480   26.9970 C.ar      1 UX0         0.1178
     14 O3        -22.7870  -12.4690   27.5570 O.3       1 UX0        -0.3116
     15 C14       -22.1280  -11.2950   28.0310 C.3       1 UX0         0.0629
     16 C11       -24.7500  -11.1730   26.9510 C.ar      1 UX0        -0.0269
     17 C12       -26.0020  -11.1470   26.3570 C.ar      1 UX0        -0.0680
     18 C13       -26.5450  -12.2670   25.8100 C.ar      1 UX0        -0.0542
     19 C8        -25.8320  -13.4830   25.8390 C.ar      1 UX0         0.0358
     20 N2        -26.4030  -14.5880   25.2640 N.ar      1 UX0        -0.2989
     21 C7        -25.6850  -15.6870   25.3080 C.ar      1 UX0         0.0573
     22 N1        -24.4750  -15.8710   25.8370 N.ar      1 UX0        -0.2575
     23 H1        -21.0850  -15.2254   24.6010 H         1 UX0         0.2100
     24 H2        -20.0877  -15.1692   26.6625 H         1 UX0         0.0643
     25 H3        -18.7578  -17.0270   26.9627 H         1 UX0         0.0623
     26 H4        -19.3751  -18.0235   24.9954 H         1 UX0         0.2099
     27 H5        -20.8277  -18.8036   27.9718 H         1 UX0         0.0349
     28 H6        -19.9232  -18.1532   30.1278 H         1 UX0         0.0561
     29 H7        -19.0742  -16.7580   29.3799 H         1 UX0         0.0561
     30 H8        -17.7115  -18.6015   29.6448 H         1 UX0         0.2094
     31 H9        -21.2891  -15.9865   28.9517 H         1 UX0         0.0294
     32 H10       -22.4612  -17.3265   28.7119 H         1 UX0         0.0294
     33 H11       -22.5634  -16.9627   26.3367 H         1 UX0         0.0596
     34 H12       -22.1955  -14.1722   27.4103 H         1 UX0         0.1916
     35 H13       -21.1476  -11.5681   28.4485 H         1 UX0         0.0585
     36 H14       -22.7401  -10.8211   28.8125 H         1 UX0         0.0585
     37 H15       -21.9883  -10.5910   27.1974 H         1 UX0         0.0585
     38 H16       -24.3372  -10.2676   27.3809 H         1 UX0         0.0517
     39 H17       -26.5582  -10.2170   26.3280 H         1 UX0         0.0638
     40 H18       -27.5264  -12.2251   25.3515 H         1 UX0         0.0503
     41 H19       -26.1366  -16.5614   24.8534 H         1 UX0         0.1057
@<TRIPOS>BOND
     1    1    2 1  
     2    2    3 1  
     3    2    9 1  
     4    3    4 1  
     5    3    5 1  
     6    5    6 1  
     7    5    8 1  
     8    6    7 1  
     9    8    9 1  
    10    9   10 1  
    11   10   11 1  
    12   11   12 ar 
    13   11   22 ar 
    14   12   13 ar 
    15   12   19 ar 
    16   13   14 1  
    17   13   16 ar 
    18   14   15 1  
    19   16   17 ar 
    20   17   18 ar 
    21   18   19 ar 
    22   19   20 ar 
    23   20   21 ar 
    24   21   22 ar 
    25    1   23 1  
    26    2   24 1  
    27    3   25 1  
    28    4   26 1  
    29    5   27 1  
    30    6   28 1  
    31    6   29 1  
    32    7   30 1  
    33    8   31 1  
    34    8   32 1  
    35    9   33 1  
    36   10   34 1  
    37   15   35 1  
    38   15   36 1  
    39   15   37 1  
    40   16   38 1  
    41   17   39 1  
    42   18   40 1  
    43   21   41 1  
@<TRIPOS>SUBSTRUCTURE
     1 UX0         1

