### 
### Created by X-TOOL on Mon Sep 10 21:13:27 2018
### 

@<TRIPOS>MOLECULE
5aqv_ligand
   51    54     1     0     0
SMALL
GAST_HUCK


@<TRIPOS>ATOM
      1 O2        -20.9150   -0.1160   24.8370 O.3       1 KC7        -0.3868
      2 C1        -20.7750   -0.2210   26.2480 C.3       1 KC7         0.1051
      3 C2        -19.9610   -1.4480   26.6680 C.3       1 KC7         0.0883
      4 O1        -20.1460   -2.5500   25.7910 O.3       1 KC7        -0.3888
      5 C3        -20.4160   -1.7600   28.1070 C.3       1 KC7         0.0130
      6 C5        -19.3230   -1.5870   29.1400 C.3       1 KC7         0.0495
      7 O         -18.2020   -2.4060   28.8440 O.3       1 KC7        -0.3946
      8 C4        -21.6520   -0.8890   28.3450 C.3       1 KC7        -0.0190
      9 C         -22.1100   -0.4280   26.9630 C.3       1 KC7         0.0727
     10 N         -22.8620    0.8080   27.0090 N.pl3     1 KC7        -0.2874
     11 C6        -24.1020    0.9880   26.4750 C.ar      1 KC7         0.1430
     12 N2        -24.7150   -0.0490   25.8520 N.ar      1 KC7        -0.2575
     13 C13       -25.9300    0.2280   25.3030 C.ar      1 KC7         0.0573
     14 N1        -26.5890    1.3750   25.2960 N.ar      1 KC7        -0.2989
     15 C12       -25.9590    2.4190   25.9410 C.ar      1 KC7         0.0359
     16 C7        -24.7090    2.2890   26.5640 C.ar      1 KC7         0.0887
     17 C11       -26.6210    3.6710   25.9360 C.ar      1 KC7        -0.0542
     18 C10       -26.0510    4.7490   26.5310 C.ar      1 KC7        -0.0680
     19 C9        -24.8010    4.6450   27.1710 C.ar      1 KC7        -0.0266
     20 C8        -24.1570    3.4370   27.1880 C.ar      1 KC7         0.1210
     21 O3        -22.9660    3.2560   27.8320 O.3       1 KC7        -0.2959
     22 C14       -22.0280    4.3140   27.7580 C.3       1 KC7         0.1078
     23 C15       -20.8160    3.7980   28.4660 C.ar      1 KC7        -0.0122
     24 C20       -20.8870    3.4380   29.8020 C.ar      1 KC7        -0.0577
     25 C19       -19.7620    2.9540   30.4530 C.ar      1 KC7        -0.0685
     26 C18       -18.5670    2.8270   29.7710 C.ar      1 KC7        -0.0687
     27 C17       -18.5010    3.1870   28.4330 C.ar      1 KC7        -0.0685
     28 C16       -19.6220    3.6730   27.7780 C.ar      1 KC7        -0.0577
     29 H1        -20.0553   -0.0471   24.4389 H         1 KC7         0.2100
     30 H2        -20.2906    0.6964   26.6138 H         1 KC7         0.0643
     31 H3        -18.8911   -1.1926   26.6705 H         1 KC7         0.0623
     32 H4        -19.8747   -2.3046   24.9143 H         1 KC7         0.2099
     33 H5        -20.7259   -2.8145   28.1506 H         1 KC7         0.0349
     34 H6        -19.7174   -1.8627   30.1292 H         1 KC7         0.0561
     35 H7        -19.0047   -0.5342   29.1525 H         1 KC7         0.0561
     36 H8        -17.5336   -2.2775   29.5066 H         1 KC7         0.2094
     37 H9        -21.3948   -0.0224   28.9718 H         1 KC7         0.0294
     38 H10       -22.4440   -1.4741   28.8353 H         1 KC7         0.0294
     39 H11       -22.7149   -1.2026   26.4690 H         1 KC7         0.0596
     40 H12       -22.4261    1.6127   27.4816 H         1 KC7         0.1916
     41 H13       -26.4219   -0.6005   24.8063 H         1 KC7         0.1057
     42 H14       -27.5874    3.7685   25.4547 H         1 KC7         0.0503
     43 H15       -26.5649    5.7033   26.5134 H         1 KC7         0.0638
     44 H16       -24.3538    5.5114   27.6447 H         1 KC7         0.0517
     45 H17       -22.4167    5.2126   28.2593 H         1 KC7         0.0786
     46 H18       -21.7931    4.5514   26.7099 H         1 KC7         0.0786
     47 H19       -21.8234    3.5348   30.3394 H         1 KC7         0.0557
     48 H20       -19.8203    2.6748   31.4988 H         1 KC7         0.0599
     49 H21       -17.6869    2.4485   30.2782 H         1 KC7         0.0559
     50 H22       -17.5651    3.0875   27.8951 H         1 KC7         0.0599
     51 H23       -19.5635    3.9536   26.7326 H         1 KC7         0.0557
@<TRIPOS>BOND
     1    1    2 1  
     2    2    3 1  
     3    2    9 1  
     4    3    4 1  
     5    3    5 1  
     6    5    6 1  
     7    5    8 1  
     8    6    7 1  
     9    8    9 1  
    10    9   10 1  
    11   10   11 1  
    12   11   12 ar 
    13   11   16 ar 
    14   12   13 ar 
    15   13   14 ar 
    16   14   15 ar 
    17   15   16 ar 
    18   15   17 ar 
    19   16   20 ar 
    20   17   18 ar 
    21   18   19 ar 
    22   19   20 ar 
    23   20   21 1  
    24   21   22 1  
    25   22   23 1  
    26   23   24 ar 
    27   23   28 ar 
    28   24   25 ar 
    29   25   26 ar 
    30   26   27 ar 
    31   27   28 ar 
    32    1   29 1  
    33    2   30 1  
    34    3   31 1  
    35    4   32 1  
    36    5   33 1  
    37    6   34 1  
    38    6   35 1  
    39    7   36 1  
    40    8   37 1  
    41    8   38 1  
    42    9   39 1  
    43   10   40 1  
    44   13   41 1  
    45   17   42 1  
    46   18   43 1  
    47   19   44 1  
    48   22   45 1  
    49   22   46 1  
    50   24   47 1  
    51   25   48 1  
    52   26   49 1  
    53   27   50 1  
    54   28   51 1  
@<TRIPOS>SUBSTRUCTURE
     1 KC7         1

