### 
### Created by X-TOOL on Mon Sep 10 21:13:28 2018
### 

@<TRIPOS>MOLECULE
5aqz_ligand
   37    39     1     0     0
SMALL
GAST_HUCK


@<TRIPOS>ATOM
      1 N1         18.2670  -10.6920  -12.7620 N.ar      1 SGV        -0.2725
      2 C2         17.1500  -10.0380  -13.0820 C.ar      1 SGV         0.0509
      3 N3         16.0480   -9.8580  -12.3540 N.ar      1 SGV        -0.2753
      4 C4         16.1410  -10.4260  -11.1470 C.ar      1 SGV         0.1457
      5 C5         17.2510  -11.1430  -10.6680 C.ar      1 SGV         0.0626
      6 C6         18.3500  -11.2730  -11.5470 C.ar      1 SGV         0.1181
      7 N6         19.4530  -11.9620  -11.2530 N.pl3     1 SGV        -0.3158
      8 C7         16.9540  -11.5680   -9.3220 C.2       1 SGV         0.0597
      9 C8         15.6960  -11.1100   -9.0370 C.2       1 SGV         0.0581
     10 N9         15.1930  -10.4070  -10.1530 N.pl3     1 SGV        -0.2133
     11 C1'        13.8800   -9.7770  -10.2240 C.3       1 SGV         0.1986
     12 C10        17.8460  -12.3090   -8.4320 C.2       1 SGV         0.1783
     13 N11        17.4420  -12.3720   -7.1730 N.am      1 SGV        -0.3053
     14 O12        18.8950  -12.8260   -8.8250 O.2       1 SGV        -0.4013
     15 C2'        12.7080  -10.7400  -10.1030 C.3       1 SGV         0.1386
     16 O2'        12.4150  -11.3450  -11.3540 O.3       1 SGV        -0.3836
     17 C3'        11.6000   -9.7840   -9.6590 C.3       1 SGV         0.1146
     18 O3'        10.9770   -9.1460  -10.7630 O.3       1 SGV        -0.3864
     19 C4'        12.3460   -8.7730   -8.7880 C.3       1 SGV         0.1136
     20 O4'        13.7430   -8.8790   -9.1440 O.3       1 SGV        -0.3368
     21 C5'        12.1930   -8.9800   -7.3000 C.3       1 SGV         0.0730
     22 O5'        12.6090  -10.2830   -6.9230 O.3       1 SGV        -0.3924
     23 H1         17.1362   -9.5914  -14.0696 H         1 SGV         0.0979
     24 H2         19.5463  -12.4170  -10.3337 H         1 SGV         0.1823
     25 H3         20.2118  -12.0392  -11.9452 H         1 SGV         0.1823
     26 H4         15.1668  -11.2637   -8.0977 H         1 SGV         0.1055
     27 H5         13.8048   -9.2373  -11.1795 H         1 SGV         0.0998
     28 H6         17.9921  -12.8599   -6.4952 H         1 SGV         0.1797
     29 H7         16.5867  -11.9317   -6.8997 H         1 SGV         0.1797
     30 H8         12.8959  -11.5202   -9.3507 H         1 SGV         0.0676
     31 H9         11.6816  -11.9403  -11.2526 H         1 SGV         0.2101
     32 H10        10.8369  -10.3179   -9.0737 H         1 SGV         0.0648
     33 H11        10.5933   -9.8031  -11.3318 H         1 SGV         0.2100
     34 H12        11.9780   -7.7650   -9.0298 H         1 SGV         0.0647
     35 H13        11.1365   -8.8460   -7.0248 H         1 SGV         0.0584
     36 H14        12.8073   -8.2383   -6.7685 H         1 SGV         0.0584
     37 H15        13.5223  -10.4023   -7.1556 H         1 SGV         0.2095
@<TRIPOS>BOND
     1    1    2 ar 
     2    1    6 ar 
     3    2    3 ar 
     4    3    4 ar 
     5    4    5 ar 
     6    4   10 1  
     7    5    6 ar 
     8    5    8 1  
     9    6    7 1  
    10    8    9 2  
    11    8   12 1  
    12    9   10 1  
    13   10   11 1  
    14   11   15 1  
    15   11   20 1  
    16   12   13 am 
    17   12   14 2  
    18   15   16 1  
    19   15   17 1  
    20   17   18 1  
    21   17   19 1  
    22   19   20 1  
    23   19   21 1  
    24   21   22 1  
    25    2   23 1  
    26    7   24 1  
    27    7   25 1  
    28    9   26 1  
    29   11   27 1  
    30   13   28 1  
    31   13   29 1  
    32   15   30 1  
    33   16   31 1  
    34   17   32 1  
    35   18   33 1  
    36   19   34 1  
    37   21   35 1  
    38   21   36 1  
    39   22   37 1  
@<TRIPOS>SUBSTRUCTURE
     1 SGV         1

