### 
### Created by X-TOOL on Mon Sep 10 21:13:27 2018
### 

@<TRIPOS>MOLECULE
5ar0_ligand
   52    56     1     0     0
SMALL
GAST_HUCK


@<TRIPOS>ATOM
      1 C           6.3380    7.6980   -8.3630 C.3       1 GB8         0.2010
      2 N           5.0520    8.3400   -8.1620 N.pl3     1 GB8        -0.1701
      3 O           6.4190    6.5840   -7.5030 O.3       1 GB8        -0.3375
      4 C1          7.5460    8.5570   -8.0210 C.3       1 GB8         0.1377
      5 N1          3.4380    9.5670   -7.1790 N.2       1 GB8        -0.3032
      6 O1          7.5460    7.4230   -5.0440 O.3       1 GB8        -0.3924
      7 C2          8.6040    7.4720   -7.8370 C.3       1 GB8         0.1145
      8 N2          4.1880    8.3130  -10.4430 N.ar      1 GB8        -0.2770
      9 O2          9.1480    7.0770   -9.0880 O.3       1 GB8        -0.3864
     10 C3          7.8080    6.3390   -7.1840 C.3       1 GB8         0.1134
     11 N3          2.1620    9.5910  -10.6590 N.ar      1 GB8        -0.2757
     12 O3          7.8580    9.4660   -9.0680 O.3       1 GB8        -0.3837
     13 C4          7.9650    6.2340   -5.6860 C.3       1 GB8         0.0730
     14 N4          1.1820   10.7380   -8.9180 N.pl3     1 GB8        -0.3182
     15 C5          4.5610    8.9250   -6.9540 C.2       1 GB8         0.2238
     16 N5          5.1610    8.8220   -5.7620 N.pl3     1 GB8        -0.2629
     17 C6          3.1680    9.4150   -8.5320 C.ar      1 GB8         0.0820
     18 N6          7.3020   14.4030   -3.6410 N.ar      1 GB8        -0.2983
     19 C7          4.1390    8.6490   -9.1490 C.ar      1 GB8         0.1531
     20 C8          3.1560    8.8270  -11.1120 C.ar      1 GB8         0.0488
     21 C9          2.1380    9.9190   -9.3500 C.ar      1 GB8         0.1208
     22 C10         4.6120    9.4910   -4.5950 C.3       1 GB8         0.0687
     23 C11         5.3100   10.8000   -4.3260 C.ar      1 GB8        -0.0143
     24 C12         4.5980   11.8940   -3.9070 C.ar      1 GB8        -0.0448
     25 C13         5.2290   13.1350   -3.6610 C.ar      1 GB8        -0.0006
     26 C14         6.6200   13.2340   -3.8640 C.ar      1 GB8         0.0424
     27 C15         7.3270   12.0930   -4.2960 C.ar      1 GB8        -0.0417
     28 C16         6.6790   10.9190   -4.5150 C.ar      1 GB8        -0.0492
     29 C17         6.6020   15.4440   -3.2180 C.ar      1 GB8         0.0084
     30 C18         5.2380   15.4300   -2.9900 C.ar      1 GB8        -0.0341
     31 C19         4.5500   14.2810   -3.2110 C.ar      1 GB8        -0.0381
     32 H1          6.4087    7.3791   -9.4134 H         1 GB8         0.0985
     33 H2          7.3889    9.1226   -7.0907 H         1 GB8         0.0675
     34 H3          7.6552    7.3299   -4.1048 H         1 GB8         0.2095
     35 H4          9.4152    7.8152   -7.1781 H         1 GB8         0.0648
     36 H5          9.5500    7.8280   -9.5086 H         1 GB8         0.2100
     37 H6          8.1282    5.3845   -7.6272 H         1 GB8         0.0647
     38 H7          8.6830    9.8965   -8.8768 H         1 GB8         0.2101
     39 H8          7.3563    5.3943   -5.3193 H         1 GB8         0.0584
     40 H9          9.0233    6.0512   -5.4480 H         1 GB8         0.0584
     41 H10         1.1419   11.0036   -7.9236 H         1 GB8         0.1803
     42 H11         0.4823   11.1063   -9.5780 H         1 GB8         0.1803
     43 H12         6.0210    8.2625   -5.6711 H         1 GB8         0.1920
     44 H13         3.1201    8.5914  -12.1695 H         1 GB8         0.0961
     45 H14         4.7313    8.8363   -3.7191 H         1 GB8         0.0696
     46 H15         3.5427    9.6850   -4.7649 H         1 GB8         0.0696
     47 H16         3.5275   11.8056   -3.7611 H         1 GB8         0.0562
     48 H17         8.3976   12.1531   -4.4549 H         1 GB8         0.0640
     49 H18         7.2450   10.0554   -4.8451 H         1 GB8         0.0622
     50 H19         7.1344   16.3709   -3.0380 H         1 GB8         0.0846
     51 H20         4.7276   16.3204   -2.6411 H         1 GB8         0.0687
     52 H21         3.4799   14.2470   -3.0410 H         1 GB8         0.0752
@<TRIPOS>BOND
     1    2    1 1  
     2    1    3 1  
     3    1    4 1  
     4   15    2 1  
     5    2   19 1  
     6    3   10 1  
     7    4    7 1  
     8    4   12 1  
     9   15    5 2  
    10    5   17 1  
    11   13    6 1  
    12    7    9 1  
    13    7   10 1  
    14   19    8 ar 
    15    8   20 ar 
    16   10   13 1  
    17   11   20 ar 
    18   21   11 ar 
    19   21   14 1  
    20   16   15 1  
    21   22   16 1  
    22   17   19 ar 
    23   17   21 ar 
    24   26   18 ar 
    25   18   29 ar 
    26   23   22 1  
    27   24   23 ar 
    28   23   28 ar 
    29   25   24 ar 
    30   25   26 ar 
    31   25   31 ar 
    32   26   27 ar 
    33   27   28 ar 
    34   29   30 ar 
    35   30   31 ar 
    36    1   32 1  
    37    4   33 1  
    38    6   34 1  
    39    7   35 1  
    40    9   36 1  
    41   10   37 1  
    42   12   38 1  
    43   13   39 1  
    44   13   40 1  
    45   14   41 1  
    46   14   42 1  
    47   16   43 1  
    48   20   44 1  
    49   22   45 1  
    50   22   46 1  
    51   24   47 1  
    52   27   48 1  
    53   28   49 1  
    54   29   50 1  
    55   30   51 1  
    56   31   52 1  
@<TRIPOS>SUBSTRUCTURE
     1 GB8         1

