### 
### Created by X-TOOL on Mon Sep 10 21:13:23 2018
### 

@<TRIPOS>MOLECULE
5ar4_ligand
   44    47     1     0     0
SMALL
GAST_HUCK


@<TRIPOS>ATOM
      1 O2         84.8910   57.0010   12.9270 O.3       1 SB2        -0.3207
      2 C1         85.6550   56.7030   15.5000 C.3       1 SB2         0.0133
      3 S1         85.1040   57.8130   14.1720 S.3       1 SB2        -0.0255
      4 CA1        81.3670   59.4350   14.4970 C.ar      1 SB2        -0.0322
      5 CA2        82.5480   58.8640   13.9930 C.ar      1 SB2        -0.0280
      6 CA3        83.5980   58.5370   14.8640 C.ar      1 SB2         0.0502
      7 CA4        83.4830   58.7780   16.2370 C.ar      1 SB2        -0.0280
      8 CA5        82.3100   59.3480   16.7560 C.ar      1 SB2        -0.0322
      9 CA6        81.2440   59.6720   15.8880 C.ar      1 SB2         0.0596
     10 NB1        75.9990   60.8930   21.3640 N.ar      1 SB2        -0.2874
     11 CB2        75.4040   61.0990   20.1720 C.ar      1 SB2         0.0212
     12 CB3        76.1480   61.1020   18.9920 C.ar      1 SB2        -0.0126
     13 CB4        77.5380   60.8900   19.0400 C.ar      1 SB2         0.0437
     14 CB5        78.1530   60.6740   20.2860 C.ar      1 SB2        -0.0126
     15 CB6        77.3280   60.6860   21.4210 C.ar      1 SB2         0.0212
     16 NC1        79.4970   60.0880   17.6870 N.2       1 SB2        -0.2365
     17 CC2        80.0200   60.2940   16.4420 C.2       1 SB2         0.1882
     18 NC3        79.2940   61.1820   15.7780 N.pl3     1 SB2        -0.1979
     19 CC4        78.2380   61.5620   16.6080 C.2       1 SB2         0.1755
     20 CC5        78.3650   60.8790   17.8130 C.2       1 SB2         0.1305
     21 CD1        76.7120   63.5870   16.8680 C.ar      1 SB2        -0.0226
     22 CD2        75.8020   64.5080   16.2850 C.ar      1 SB2        -0.0023
     23 CD3        75.4910   64.3800   14.9430 C.ar      1 SB2         0.1600
     24 CD4        76.0320   63.3890   14.1580 C.ar      1 SB2        -0.0023
     25 CD5        76.9310   62.4670   14.7140 C.ar      1 SB2        -0.0226
     26 CD6        77.2690   62.5610   16.0790 C.ar      1 SB2         0.0663
     27 FD3        74.6290   65.2360   14.3420 F         1 SB2        -0.1609
     28 H1         85.7068   56.5810   12.6807 H         1 SB2         0.2320
     29 H2         85.8156   57.2838   16.4203 H         1 SB2         0.0387
     30 H3         86.5963   56.2166   15.2044 H         1 SB2         0.0387
     31 H4         84.8868   55.9365   15.6796 H         1 SB2         0.0387
     32 H5         80.5556   59.6923   13.8258 H         1 SB2         0.0738
     33 H6         82.6478   58.6760   12.9301 H         1 SB2         0.0626
     34 H7         84.3011   58.5242   16.9013 H         1 SB2         0.0626
     35 H8         82.2226   59.5389   17.8195 H         1 SB2         0.0738
     36 H9         74.3335   61.2645   20.1299 H         1 SB2         0.0846
     37 H10        75.6563   61.2673   18.0402 H         1 SB2         0.0794
     38 H11        79.2207   60.5051   20.3664 H         1 SB2         0.0794
     39 H12        77.7829   60.5205   22.3909 H         1 SB2         0.0846
     40 H13        79.4756   61.5280   14.8250 H         1 SB2         0.2536
     41 H14        76.9771   63.6728   17.9156 H         1 SB2         0.0781
     42 H15        75.3587   65.2976   16.8810 H         1 SB2         0.0679
     43 H16        75.7638   63.3204   13.1099 H         1 SB2         0.0679
     44 H17        77.3631   61.6870   14.0976 H         1 SB2         0.0781
@<TRIPOS>BOND
     1    3    1 1  
     2    3    2 1  
     3    6    3 1  
     4    4    5 ar 
     5    9    4 ar 
     6    5    6 ar 
     7    7    6 ar 
     8    8    7 ar 
     9    9    8 ar 
    10   17    9 1  
    11   11   10 ar 
    12   15   10 ar 
    13   12   11 ar 
    14   13   12 ar 
    15   13   14 ar 
    16   20   13 1  
    17   14   15 ar 
    18   16   17 2  
    19   20   16 1  
    20   18   17 1  
    21   19   18 1  
    22   19   20 2  
    23   26   19 1  
    24   21   22 ar 
    25   21   26 ar 
    26   22   23 ar 
    27   23   24 ar 
    28   23   27 1  
    29   24   25 ar 
    30   25   26 ar 
    31    1   28 1  
    32    2   29 1  
    33    2   30 1  
    34    2   31 1  
    35    4   32 1  
    36    5   33 1  
    37    7   34 1  
    38    8   35 1  
    39   11   36 1  
    40   12   37 1  
    41   14   38 1  
    42   15   39 1  
    43   18   40 1  
    44   21   41 1  
    45   22   42 1  
    46   24   43 1  
    47   25   44 1  
@<TRIPOS>SUBSTRUCTURE
     1 SB2         1

