### 
### Created by X-TOOL on Mon Sep 10 21:13:22 2018
### 

@<TRIPOS>MOLECULE
5ar5_ligand
   56    59     1     0     0
SMALL
GAST_HUCK


@<TRIPOS>ATOM
      1 C1        -73.4100   19.5310   -6.1820 C.3       1 IQ7         0.0365
      2 O2        -72.6800   19.3180   -7.3840 O.3       1 IQ7        -0.3810
      3 C3        -72.0090   20.5260   -7.7270 C.3       1 IQ7         0.0673
      4 C4        -71.3340   20.3400   -9.0710 C.3       1 IQ7         0.0536
      5 N5        -69.9490   19.9570   -8.9200 N.am      1 IQ7        -0.2854
      6 C6        -68.9560   20.7460   -9.3490 C.2       1 IQ7         0.1966
      7 O7        -69.1170   21.6810  -10.1200 O.2       1 IQ7        -0.3890
      8 C8        -67.5950   20.4030   -8.8040 C.ar      1 IQ7         0.0339
      9 C9        -66.7570   21.4180   -8.3880 C.ar      1 IQ7        -0.0563
     10 C10       -65.5070   21.1220   -7.8890 C.ar      1 IQ7        -0.0358
     11 C11       -65.1200   19.8020   -7.8170 C.ar      1 IQ7         0.0856
     12 N12       -63.9710   19.1980   -7.3770 N.pl3     1 IQ7        -0.2345
     13 C13       -62.8370   19.9190   -6.8390 C.3       1 IQ7         0.0788
     14 C14       -62.8540   19.9140   -5.3260 C.3       1 IQ7         0.0736
     15 O15       -61.7120   20.5810   -4.8000 O.3       1 IQ7        -0.3804
     16 C16       -60.6660   19.6320   -4.5870 C.3       1 IQ7         0.0366
     17 C17       -64.1800   17.8410   -7.5540 C.2       1 IQ7         0.1348
     18 N18       -65.3590   17.5630   -8.0630 N.2       1 IQ7        -0.3159
     19 C19       -65.9580   18.7810   -8.2300 C.ar      1 IQ7         0.0312
     20 C20       -67.2090   19.0830   -8.7330 C.ar      1 IQ7        -0.0430
     21 C21       -63.2190   16.7950   -7.2590 C.2       1 IQ7         0.0830
     22 C22       -62.9470   15.6360   -7.9440 C.2       1 IQ7         0.0666
     23 N23       -61.9680   14.9400   -7.2800 N.pl3     1 IQ7        -0.2489
     24 C24       -61.6550   15.6660   -6.2240 C.2       1 IQ7         0.1425
     25 N25       -62.3940   16.8150   -6.1710 N.2       1 IQ7        -0.3045
     26 C26       -60.6670   15.2620   -5.2010 C.ar      1 IQ7         0.0279
     27 C27       -59.8490   14.1730   -5.4280 C.ar      1 IQ7        -0.0477
     28 C28       -58.9560   13.7620   -4.4640 C.ar      1 IQ7        -0.0458
     29 C29       -58.8800   14.4360   -3.2610 C.ar      1 IQ7         0.0418
     30 CL30      -57.7580   13.8900   -2.0500 Cl        1 IQ7        -0.0692
     31 C31       -59.6870   15.5310   -3.0270 C.ar      1 IQ7        -0.0458
     32 C32       -60.5810   15.9390   -3.9960 C.ar      1 IQ7        -0.0477
     33 H1        -73.9350   18.6055   -5.9030 H         1 IQ7         0.0523
     34 H2        -74.1433   20.3363   -6.3361 H         1 IQ7         0.0523
     35 H3        -72.7163   19.8159   -5.3773 H         1 IQ7         0.0523
     36 H4        -71.2537   20.7602   -6.9624 H         1 IQ7         0.0580
     37 H5        -72.7361   21.3491   -7.7884 H         1 IQ7         0.0580
     38 H6        -71.3842   21.2860   -9.6301 H         1 IQ7         0.0542
     39 H7        -71.8629   19.5546   -9.6309 H         1 IQ7         0.0542
     40 H8        -69.7274   19.0839   -8.4858 H         1 IQ7         0.1843
     41 H9        -67.0828   22.4498   -8.4540 H         1 IQ7         0.0580
     42 H10       -64.8417   21.9120   -7.5598 H         1 IQ7         0.0552
     43 H11       -62.8714   20.9593   -7.1948 H         1 IQ7         0.0622
     44 H12       -61.9096   19.4422   -7.1890 H         1 IQ7         0.0622
     45 H13       -62.8582   18.8733   -4.9699 H         1 IQ7         0.0586
     46 H14       -63.7624   20.4254   -4.9749 H         1 IQ7         0.0586
     47 H15       -59.7823   20.1455   -4.1804 H         1 IQ7         0.0524
     48 H16       -60.4048   19.1536   -5.5424 H         1 IQ7         0.0524
     49 H17       -61.0053   18.8661   -3.8741 H         1 IQ7         0.0524
     50 H18       -67.8747   18.2949   -9.0658 H         1 IQ7         0.0601
     51 H19       -63.4310   15.3197   -8.8669 H         1 IQ7         0.1055
     52 H20       -61.5601   14.0340   -7.5514 H         1 IQ7         0.2442
     53 H21       -59.9102   13.6392   -6.3695 H         1 IQ7         0.0638
     54 H22       -58.3126   12.9095   -4.6493 H         1 IQ7         0.0626
     55 H23       -59.6190   16.0675   -2.0875 H         1 IQ7         0.0626
     56 H24       -61.2201   16.7951   -3.8126 H         1 IQ7         0.0638
@<TRIPOS>BOND
     1    1    2 1  
     2    2    3 1  
     3    3    4 1  
     4    4    5 1  
     5    5    6 am 
     6    6    7 2  
     7    6    8 1  
     8    8    9 ar 
     9    8   20 ar 
    10    9   10 ar 
    11   10   11 ar 
    12   11   12 1  
    13   11   19 ar 
    14   12   13 1  
    15   12   17 1  
    16   13   14 1  
    17   14   15 1  
    18   15   16 1  
    19   17   18 2  
    20   17   21 1  
    21   18   19 1  
    22   19   20 ar 
    23   21   22 2  
    24   21   25 1  
    25   22   23 1  
    26   23   24 1  
    27   24   25 2  
    28   24   26 1  
    29   26   27 ar 
    30   26   32 ar 
    31   27   28 ar 
    32   28   29 ar 
    33   29   30 1  
    34   29   31 ar 
    35   31   32 ar 
    36    1   33 1  
    37    1   34 1  
    38    1   35 1  
    39    3   36 1  
    40    3   37 1  
    41    4   38 1  
    42    4   39 1  
    43    5   40 1  
    44    9   41 1  
    45   10   42 1  
    46   13   43 1  
    47   13   44 1  
    48   14   45 1  
    49   14   46 1  
    50   16   47 1  
    51   16   48 1  
    52   16   49 1  
    53   20   50 1  
    54   22   51 1  
    55   23   52 1  
    56   27   53 1  
    57   28   54 1  
    58   31   55 1  
    59   32   56 1  
@<TRIPOS>SUBSTRUCTURE
     1 IQ7         1

