### 
### Created by X-TOOL on Mon Sep 10 21:13:23 2018
### 

@<TRIPOS>MOLECULE
5ar7_ligand
   46    48     1     0     0
SMALL
GAST_HUCK


@<TRIPOS>ATOM
      1 O1         56.2320  -61.6840   12.8020 O.2       1 SR8        -0.3831
      2 C9         56.0770  -62.8150   12.3500 C.2       1 SR8         0.3115
      3 N3         56.5590  -63.1960   11.0770 N.am      1 SR8        -0.1998
      4 C8         57.2520  -62.3420   10.1980 C.2       1 SR8         0.2033
      5 C7         57.5850  -60.9840   10.3320 C.2       1 SR8         0.0382
      6 C2         58.2430  -60.6420    9.2130 C.2       1 SR8         0.1216
      7 C3         58.8850  -59.3850    8.6720 C.3       1 SR8        -0.0260
      8 C6         58.7230  -58.2280    9.6470 C.3       1 SR8        -0.0921
      9 C5         60.3730  -59.6430    8.4280 C.3       1 SR8        -0.0921
     10 C4         58.1970  -58.9810    7.3770 C.3       1 SR8        -0.0921
     11 N1         57.6750  -62.8200    9.0640 N.2       1 SR8        -0.0662
     12 N4         55.4160  -63.7680   13.0900 N.am      1 SR8        -0.2207
     13 C10        54.8600  -63.5870   14.3730 C.ar      1 SR8         0.0576
     14 C20        53.9890  -62.5050   14.5790 C.ar      1 SR8        -0.0478
     15 C19        53.4310  -62.3110   15.8420 C.ar      1 SR8        -0.0404
     16 C13        53.7330  -63.1900   16.8920 C.ar      1 SR8         0.1047
     17 C12        54.5980  -64.2740   16.6930 C.ar      1 SR8        -0.0404
     18 C11        55.1630  -64.4680   15.4210 C.ar      1 SR8        -0.0478
     19 O2         53.1650  -62.9730   18.1220 O.3       1 SR8        -0.2573
     20 C14        53.8620  -62.3520   19.1450 C.ar      1 SR8         0.1329
     21 C18        55.2600  -62.1420   19.0980 C.ar      1 SR8        -0.0015
     22 C17        55.8700  -61.5090   20.1770 C.ar      1 SR8         0.0004
     23 N5         55.1690  -61.0980   21.2540 N.ar      1 SR8        -0.3127
     24 C16        53.8330  -61.2990   21.3000 C.ar      1 SR8         0.0004
     25 C15        53.1320  -61.9230   20.2680 C.ar      1 SR8        -0.0015
     26 O3         58.3250  -61.7250    8.4090 O.3       1 SR8        -0.1532
     27 H1         56.3966  -64.1370   10.7803 H         1 SR8         0.2224
     28 H2         57.3548  -60.3365   11.1768 H         1 SR8         0.0827
     29 H3         59.1980  -57.3278    9.2299 H         1 SR8         0.0100
     30 H4         59.2012  -58.4850   10.6037 H         1 SR8         0.0100
     31 H5         57.6528  -58.0348    9.8122 H         1 SR8         0.0100
     32 H6         60.4893  -60.4794    7.7231 H         1 SR8         0.0100
     33 H7         60.8624  -59.8953    9.3803 H         1 SR8         0.0100
     34 H8         60.8372  -58.7399    8.0051 H         1 SR8         0.0100
     35 H9         57.1294  -58.7996    7.5702 H         1 SR8         0.0100
     36 H10        58.3038  -59.7885    6.6377 H         1 SR8         0.0100
     37 H11        58.6602  -58.0628    6.9867 H         1 SR8         0.0100
     38 H12        55.3209  -64.6747   12.6791 H         1 SR8         0.2228
     39 H13        53.7532  -61.8284   13.7656 H         1 SR8         0.0480
     40 H14        52.7605  -61.4766   16.0130 H         1 SR8         0.0520
     41 H15        54.8277  -64.9520   17.5070 H         1 SR8         0.0520
     42 H16        55.8350  -65.3011   15.2495 H         1 SR8         0.0480
     43 H17        55.8419  -62.4661   18.2427 H         1 SR8         0.0643
     44 H18        56.9406  -61.3411   20.1513 H         1 SR8         0.0789
     45 H19        53.2852  -60.9622   22.1727 H         1 SR8         0.0789
     46 H20        52.0601  -62.0723   20.3295 H         1 SR8         0.0643
@<TRIPOS>BOND
     1    1    2 2  
     2    2    3 am 
     3    2   12 am 
     4    3    4 1  
     5    4    5 1  
     6    4   11 2  
     7    5    6 2  
     8    6    7 1  
     9    6   26 1  
    10    7    8 1  
    11    7    9 1  
    12    7   10 1  
    13   11   26 1  
    14   12   13 1  
    15   13   14 ar 
    16   13   18 ar 
    17   14   15 ar 
    18   15   16 ar 
    19   16   17 ar 
    20   16   19 1  
    21   17   18 ar 
    22   19   20 1  
    23   20   21 ar 
    24   20   25 ar 
    25   21   22 ar 
    26   22   23 ar 
    27   23   24 ar 
    28   24   25 ar 
    29    3   27 1  
    30    5   28 1  
    31    8   29 1  
    32    8   30 1  
    33    8   31 1  
    34    9   32 1  
    35    9   33 1  
    36    9   34 1  
    37   10   35 1  
    38   10   36 1  
    39   10   37 1  
    40   12   38 1  
    41   14   39 1  
    42   15   40 1  
    43   17   41 1  
    44   18   42 1  
    45   21   43 1  
    46   22   44 1  
    47   24   45 1  
    48   25   46 1  
@<TRIPOS>SUBSTRUCTURE
     1 SR8         1

