### 
### Created by X-TOOL on Mon Sep 10 21:13:24 2018
### 

@<TRIPOS>MOLECULE
5ar8_ligand
   72    77     1     0     0
SMALL
GAST_HUCK


@<TRIPOS>ATOM
      1 C1         38.8010  -43.8670   49.1640 C.3       1 XYW         0.0594
      2 S2         39.6560  -42.6340   50.1120 S.o2      1 XYW        -0.0084
      3 O3         40.8550  -43.2600   50.6390 O.2       1 XYW        -0.1698
      4 O4         38.7330  -42.0310   51.0600 O.2       1 XYW        -0.1698
      5 C5         40.1400  -41.4020   48.9280 C.ar      1 XYW         0.0785
      6 C6         40.3720  -41.7920   47.6260 C.ar      1 XYW        -0.0486
      7 C7         40.7480  -40.8630   46.6820 C.ar      1 XYW        -0.0696
      8 C8         40.8850  -39.5500   47.0650 C.ar      1 XYW        -0.0381
      9 C9         40.6570  -39.1440   48.3640 C.ar      1 XYW         0.0671
     10 N10        40.8400  -37.7720   48.5980 N.pl3     1 XYW        -0.2434
     11 C11        40.6780  -37.0530   49.7470 C.ar      1 XYW         0.1988
     12 N12        40.9720  -35.7430   49.6190 N.ar      1 XYW        -0.2624
     13 C13        40.8300  -34.9800   50.7130 C.ar      1 XYW         0.0051
     14 C14        40.4160  -35.4830   51.9230 C.ar      1 XYW        -0.0258
     15 C15        40.1320  -36.8370   51.9520 C.ar      1 XYW         0.0503
     16 N16        40.2560  -37.6420   50.8820 N.ar      1 XYW        -0.2611
     17 C17        39.7070  -37.5480   53.1590 C.2       1 XYW         0.0742
     18 S18        39.7530  -39.2630   53.0100 S.3       1 XYW         0.0317
     19 C19        39.2580  -39.4310   54.6440 C.2       1 XYW         0.1942
     20 N20        39.0590  -38.2870   55.2570 N.2       1 XYW        -0.2944
     21 C21        39.3110  -37.2090   54.4390 C.2       1 XYW         0.0258
     22 C22        39.1190  -35.8960   55.0950 C.ar      1 XYW        -0.0294
     23 C23        38.4530  -34.8380   54.5170 C.ar      1 XYW        -0.0706
     24 C24        38.3230  -33.6590   55.2260 C.ar      1 XYW        -0.0765
     25 C25        38.8530  -33.5250   56.5050 C.ar      1 XYW        -0.0450
     26 C26        39.5230  -34.5880   57.0850 C.ar      1 XYW         0.0626
     27 N27        40.1010  -34.5290   58.4060 N.am      1 XYW        -0.1883
     28 S28        39.9220  -33.4150   59.5990 S.o2      1 XYW         0.0907
     29 O29        38.4990  -33.2230   59.8090 O.2       1 XYW        -0.1458
     30 O30        40.7000  -33.9090   60.7160 O.2       1 XYW        -0.1458
     31 C31        40.7060  -31.8960   59.0700 C.ar      1 XYW         0.1801
     32 C32        39.9610  -30.7330   58.8930 C.ar      1 XYW         0.1577
     33 F33        38.6410  -30.7620   59.1230 F         1 XYW        -0.1824
     34 C34        40.5420  -29.5460   58.4860 C.ar      1 XYW        -0.0303
     35 C35        41.9010  -29.4990   58.2450 C.ar      1 XYW        -0.0654
     36 C36        42.6700  -30.6350   58.4100 C.ar      1 XYW        -0.0303
     37 C37        42.0700  -31.8050   58.8160 C.ar      1 XYW         0.1577
     38 F38        42.8170  -32.9030   58.9760 F         1 XYW        -0.1824
     39 C39        39.6420  -35.7600   56.3670 C.ar      1 XYW        -0.0384
     40 N40        39.0920  -40.6510   55.2250 N.pl3     1 XYW        -0.2605
     41 C41        39.2570  -40.6990   56.6970 C.3       1 XYW         0.0617
     42 C42        39.1890  -42.0860   57.3070 C.3       1 XYW         0.0692
     43 O43        39.8160  -43.1000   56.5210 O.3       1 XYW        -0.3756
     44 C44        39.3230  -43.0860   55.1930 C.3       1 XYW         0.0692
     45 C45        39.7200  -41.7850   54.5580 C.3       1 XYW         0.0617
     46 C46        40.2800  -40.0770   49.3090 C.ar      1 XYW        -0.0134
     47 H1         39.4969  -44.3251   48.4457 H         1 XYW         0.0468
     48 H2         37.9679  -43.3985   48.6195 H         1 XYW         0.0468
     49 H3         38.4084  -44.6416   49.8391 H         1 XYW         0.0468
     50 H4         40.2581  -42.8327   47.3449 H         1 XYW         0.0538
     51 H5         40.9325  -41.1613   45.6563 H         1 XYW         0.0588
     52 H6         41.1802  -38.8134   46.3265 H         1 XYW         0.0536
     53 H7         41.1421  -37.2253   47.7790 H         1 XYW         0.2176
     54 H8         41.0513  -33.9214   50.6395 H         1 XYW         0.0859
     55 H9         40.3178  -34.8565   52.8022 H         1 XYW         0.0625
     56 H10        38.0368  -34.9289   53.5202 H         1 XYW         0.0484
     57 H11        37.7984  -32.8233   54.7772 H         1 XYW         0.0575
     58 H12        38.7417  -32.5918   57.0452 H         1 XYW         0.0488
     59 H13        40.7093  -35.2901   58.6314 H         1 XYW         0.2158
     60 H14        39.9343  -28.6577   58.3569 H         1 XYW         0.0570
     61 H15        42.3639  -28.5719   57.9267 H         1 XYW         0.0597
     62 H16        43.7370  -30.6049   58.2212 H         1 XYW         0.0570
     63 H17        40.1615  -36.5998   56.8141 H         1 XYW         0.0479
     64 H18        38.4615  -40.0885   57.1492 H         1 XYW         0.0559
     65 H19        40.2373  -40.2656   56.9444 H         1 XYW         0.0559
     66 H20        38.1303  -42.3548   57.4367 H         1 XYW         0.0581
     67 H21        39.6827  -42.0559   58.2895 H         1 XYW         0.0581
     68 H22        38.2268  -43.1765   55.2019 H         1 XYW         0.0581
     69 H23        39.7555  -43.9239   54.6265 H         1 XYW         0.0581
     70 H24        40.8128  -41.6758   54.6202 H         1 XYW         0.0559
     71 H25        39.4118  -41.7940   53.5021 H         1 XYW         0.0559
     72 H26        40.0961  -39.7775   50.3344 H         1 XYW         0.0555
@<TRIPOS>BOND
     1    1    2 1  
     2    2    3 2  
     3    2    4 2  
     4    2    5 1  
     5    5    6 ar 
     6    5   46 ar 
     7    6    7 ar 
     8    7    8 ar 
     9    8    9 ar 
    10    9   10 1  
    11    9   46 ar 
    12   10   11 1  
    13   11   12 ar 
    14   11   16 ar 
    15   12   13 ar 
    16   13   14 ar 
    17   14   15 ar 
    18   15   16 ar 
    19   15   17 1  
    20   17   18 1  
    21   17   21 2  
    22   18   19 1  
    23   19   20 2  
    24   19   40 1  
    25   20   21 1  
    26   21   22 1  
    27   22   23 ar 
    28   22   39 ar 
    29   23   24 ar 
    30   24   25 ar 
    31   25   26 ar 
    32   26   27 1  
    33   26   39 ar 
    34   27   28 am 
    35   28   29 2  
    36   28   30 2  
    37   28   31 1  
    38   31   32 ar 
    39   31   37 ar 
    40   32   33 1  
    41   32   34 ar 
    42   34   35 ar 
    43   35   36 ar 
    44   36   37 ar 
    45   37   38 1  
    46   40   41 1  
    47   40   45 1  
    48   41   42 1  
    49   42   43 1  
    50   43   44 1  
    51   44   45 1  
    52    1   47 1  
    53    1   48 1  
    54    1   49 1  
    55    6   50 1  
    56    7   51 1  
    57    8   52 1  
    58   10   53 1  
    59   13   54 1  
    60   14   55 1  
    61   23   56 1  
    62   24   57 1  
    63   25   58 1  
    64   27   59 1  
    65   34   60 1  
    66   35   61 1  
    67   36   62 1  
    68   39   63 1  
    69   41   64 1  
    70   41   65 1  
    71   42   66 1  
    72   42   67 1  
    73   44   68 1  
    74   44   69 1  
    75   45   70 1  
    76   45   71 1  
    77   46   72 1  
@<TRIPOS>SUBSTRUCTURE
     1 XYW         1

