### 
### Created by X-TOOL on Mon Sep 10 21:13:30 2018
### 

@<TRIPOS>MOLECULE
5arf_ligand
   56    58     1     0     0
SMALL
GAST_HUCK


@<TRIPOS>ATOM
      1 CAG        13.6670  -16.7510   -6.3190 C.ar      1 I9H        -0.0107
      2 CAL        14.0300  -18.0990   -6.3300 C.ar      1 I9H        -0.0131
      3 CAR        13.6870  -18.8720   -5.1820 C.ar      1 I9H         0.0771
      4 CL1        14.1900  -20.4920   -5.2150 Cl        1 I9H        -0.0355
      5 CAM        13.0780  -18.2760   -4.0900 C.ar      1 I9H        -0.0131
      6 CAH        12.7270  -16.9370   -4.1470 C.ar      1 I9H        -0.0107
      7 CAC        13.0390  -16.1560   -5.2620 C.ar      1 I9H         0.0785
      8 CAA        12.7100  -14.8210   -5.3810 C.2       1 I9H         0.2022
      9 NAD        13.0980  -13.9710   -6.3480 N.2       1 I9H        -0.0481
     10 CAB        11.7660  -14.0750   -4.4690 C.3       1 I9H         0.1648
     11 NAF        12.2020  -13.9230   -3.0040 N.am      1 I9H        -0.2413
     12 CAK        11.1250  -14.1790   -1.9610 C.3       1 I9H         0.0358
     13 CAQ        10.1660  -13.0120   -1.7270 C.3       1 I9H        -0.0443
     14 CAJ        13.4100  -13.4040   -2.7010 C.2       1 I9H         0.2081
     15 OAP        14.2620  -13.2510   -3.5820 O.2       1 I9H        -0.3940
     16 CAO        13.7330  -13.0590   -1.2000 C.3       1 I9H         0.1336
     17 OAU        15.1570  -12.9290   -0.9050 O.3       1 I9H        -0.3746
     18 CAE        11.7240  -12.7080   -5.0450 C.3       1 I9H         0.1233
     19 NAI        12.5500  -12.8460   -6.2460 N.pl3     1 I9H        -0.1353
     20 CAN        12.9440  -11.8070   -7.0410 C.cat     1 I9H         0.2526
     21 NAT        12.3970  -10.5750   -6.8920 N.pl3     1 I9H        -0.1796
     22 CAX        12.8090   -9.4760   -7.6010 C.1       1 I9H         0.2118
     23 NBA        13.1570   -8.5360   -8.1990 N.1       1 I9H        -0.3397
     24 NAS        13.9890  -12.1730   -7.8240 N.pl3     1 I9H        -0.2795
     25 CAW        14.4340  -11.5250   -8.9220 C.ar      1 I9H         0.0527
     26 CAY        15.7010  -11.0010   -8.9670 C.ar      1 I9H        -0.0056
     27 CAZ        13.6100  -11.4130  -10.0690 C.ar      1 I9H        -0.0435
     28 CBC        14.0590  -10.7470  -11.2440 C.ar      1 I9H        -0.0740
     29 CBD        15.3830  -10.2650  -11.2790 C.ar      1 I9H        -0.0387
     30 CBB        16.1860  -10.3710  -10.1330 C.ar      1 I9H         0.0931
     31 OBE        17.4870   -9.8920  -10.1030 O.3       1 I9H        -0.2578
     32 CBF        17.7380   -8.7160  -10.9900 C.3       1 I9H         0.3664
     33 FBH        18.8100   -8.0390  -10.4680 F         1 I9H        -0.1737
     34 FBG        18.0830   -9.3210  -12.0850 F         1 I9H        -0.1737
     35 H1         13.8943  -16.1479   -7.1906 H         1 I9H         0.0846
     36 H2         14.5495  -18.5385   -7.1738 H         1 I9H         0.0725
     37 H3         12.8771  -18.8543   -3.1954 H         1 I9H         0.0725
     38 H4         12.2013  -16.4879   -3.3121 H         1 I9H         0.0846
     39 H5         10.7762  -14.5540   -4.4972 H         1 I9H         0.0934
     40 H6         11.6212  -14.4101   -1.0069 H         1 I9H         0.0523
     41 H7         10.5335  -15.0474   -2.2865 H         1 I9H         0.0523
     42 H8          9.4282  -13.2917   -0.9605 H         1 I9H         0.0249
     43 H9          9.6459  -12.7709   -2.6658 H         1 I9H         0.0249
     44 H10        10.7336  -12.1336   -1.3862 H         1 I9H         0.0249
     45 H11        13.3220  -13.8590   -0.5668 H         1 I9H         0.0801
     46 H12        13.2418  -12.1064   -0.9523 H         1 I9H         0.0801
     47 H13        15.5963  -13.7478   -1.1028 H         1 I9H         0.2129
     48 H14        12.1523  -11.9704   -4.3504 H         1 I9H         0.0726
     49 H15        10.6950  -12.4159   -5.3015 H         1 I9H         0.0726
     50 H16        11.6328  -10.4589   -6.2113 H         1 I9H         0.2300
     51 H17        14.4931  -13.0299   -7.5546 H         1 I9H         0.2051
     52 H18        16.3393  -11.0719   -8.0937 H         1 I9H         0.0482
     53 H19        12.6156  -11.8441  -10.0513 H         1 I9H         0.0488
     54 H20        13.3978  -10.6135  -12.0926 H         1 I9H         0.0577
     55 H21        15.7776   -9.8163  -12.1834 H         1 I9H         0.0495
     56 H22        16.8635   -8.0607  -11.1157 H         1 I9H         0.1420
@<TRIPOS>BOND
     1    1    2 ar 
     2    1    7 ar 
     3    2    3 ar 
     4    3    4 1  
     5    3    5 ar 
     6    5    6 ar 
     7    6    7 ar 
     8    7    8 1  
     9    8    9 2  
    10    8   10 1  
    11    9   19 1  
    12   10   11 1  
    13   10   18 1  
    14   11   12 1  
    15   11   14 am 
    16   12   13 1  
    17   14   15 2  
    18   14   16 1  
    19   16   17 1  
    20   18   19 1  
    21   19   20 ar 
    22   20   21 ar 
    23   20   24 ar 
    24   21   22 1  
    25   22   23 3  
    26   24   25 1  
    27   25   26 ar 
    28   25   27 ar 
    29   26   30 ar 
    30   27   28 ar 
    31   28   29 ar 
    32   29   30 ar 
    33   30   31 1  
    34   31   32 1  
    35   32   33 1  
    36   32   34 1  
    37    1   35 1  
    38    2   36 1  
    39    5   37 1  
    40    6   38 1  
    41   10   39 1  
    42   12   40 1  
    43   12   41 1  
    44   13   42 1  
    45   13   43 1  
    46   13   44 1  
    47   16   45 1  
    48   16   46 1  
    49   17   47 1  
    50   18   48 1  
    51   18   49 1  
    52   21   50 1  
    53   24   51 1  
    54   26   52 1  
    55   27   53 1  
    56   28   54 1  
    57   29   55 1  
    58   32   56 1  
@<TRIPOS>SUBSTRUCTURE
     1 I9H         1

