### 
### Created by X-TOOL on Mon Sep 10 21:13:30 2018
### 

@<TRIPOS>MOLECULE
5arg_ligand
   56    58     1     0     0
SMALL
GAST_HUCK


@<TRIPOS>ATOM
      1 C4        -16.5970    6.1540  -13.6700 C.ar      1 H41         0.0031
      2 C5        -17.9010    6.0840  -14.0630 C.ar      1 H41         0.0891
      3 CL10      -18.7100    7.4250  -14.8180 Cl        1 H41        -0.0588
      4 C6        -18.7100    4.9550  -13.7400 C.ar      1 H41         0.0918
      5 CL7       -20.2720    4.8460  -14.2420 Cl        1 H41        -0.0342
      6 C8        -18.1030    3.8780  -13.1540 C.ar      1 H41        -0.0120
      7 C9        -16.7930    3.9450  -12.8200 C.ar      1 H41        -0.0102
      8 C3        -15.9960    5.0440  -13.0830 C.ar      1 H41         0.0788
      9 C2        -14.5720    5.0840  -12.6810 C.2       1 H41         0.2017
     10 N11       -13.8360    6.1100  -13.0740 N.2       1 H41        -0.0488
     11 C1        -13.7950    4.2160  -11.7130 C.3       1 H41         0.1646
     12 N29       -13.6040    2.8070  -12.1930 N.am      1 H41        -0.2414
     13 C34       -13.7900    1.7190  -11.1410 C.3       1 H41         0.0358
     14 C35       -12.6300    1.7040  -10.1460 C.3       1 H41        -0.0443
     15 C30       -13.1700    2.5880  -13.4570 C.2       1 H41         0.2081
     16 O33       -13.0430    3.5100  -14.3170 O.2       1 H41        -0.3940
     17 C31       -12.9350    1.0660  -13.8180 C.3       1 H41         0.1336
     18 O32       -12.4190    0.8480  -15.1520 O.3       1 H41        -0.3746
     19 C13       -12.4510    4.9090  -11.6470 C.3       1 H41         0.1231
     20 N12       -12.6020    6.0730  -12.5500 N.pl3     1 H41        -0.1357
     21 C14       -11.6540    6.9200  -13.0010 C.cat     1 H41         0.2523
     22 N26       -10.4200    6.8920  -12.5310 N.pl3     1 H41        -0.1797
     23 C27        -9.3050    7.5430  -12.9460 C.1       1 H41         0.2118
     24 N28        -8.3430    8.0950  -13.2940 N.1       1 H41        -0.3397
     25 N15       -12.1080    7.7630  -13.9620 N.pl3     1 H41        -0.2796
     26 C16       -11.4300    8.7920  -14.4080 C.ar      1 H41         0.0526
     27 C21       -10.8420    8.8850  -15.6670 C.ar      1 H41        -0.0057
     28 C17       -11.3760    9.9150  -13.5270 C.ar      1 H41        -0.0435
     29 C18       -10.6920   11.0790  -13.9310 C.ar      1 H41        -0.0740
     30 C19       -10.1060   11.1770  -15.2140 C.ar      1 H41        -0.0388
     31 C20       -10.1970   10.0570  -16.0730 C.ar      1 H41         0.0930
     32 O22        -9.6770   10.0540  -17.3070 O.3       1 H41        -0.2578
     33 C23        -8.6000   10.9790  -17.6490 C.3       1 H41         0.3664
     34 F25        -9.3100   12.0210  -18.1520 F         1 H41        -0.1737
     35 F24        -7.9390   10.4740  -18.7040 F         1 H41        -0.1737
     36 H1        -16.0322    7.0680  -13.8138 H         1 H41         0.0846
     37 H2        -18.6690    2.9745  -12.9579 H         1 H41         0.0726
     38 H3        -16.3456    3.0932  -12.3206 H         1 H41         0.0853
     39 H4        -14.2869    4.2002  -10.7293 H         1 H41         0.0933
     40 H5        -13.8445    0.7414  -11.6424 H         1 H41         0.0523
     41 H6        -14.7272    1.9043  -10.5958 H         1 H41         0.0523
     42 H7        -12.7947    0.9100   -9.4027 H         1 H41         0.0249
     43 H8        -12.5715    2.6770   -9.6362 H         1 H41         0.0249
     44 H9        -11.6889    1.5141  -10.6828 H         1 H41         0.0249
     45 H10       -13.8955    0.5375  -13.7286 H         1 H41         0.0801
     46 H11       -12.2174    0.6469  -13.0974 H         1 H41         0.0801
     47 H12       -13.0329    1.1953  -15.7885 H         1 H41         0.2129
     48 H13       -11.6499    4.2425  -11.9993 H         1 H41         0.0726
     49 H14       -12.2304    5.2369  -10.6205 H         1 H41         0.0726
     50 H15       -10.2821    6.2758  -11.7173 H         1 H41         0.2299
     51 H16       -13.0392    7.5840  -14.3643 H         1 H41         0.2050
     52 H17       -10.8850    8.0373  -16.3412 H         1 H41         0.0482
     53 H18       -11.8568    9.8723  -12.5564 H         1 H41         0.0487
     54 H19       -10.6137   11.9149  -13.2453 H         1 H41         0.0576
     55 H20        -9.6021   12.0833  -15.5298 H         1 H41         0.0494
     56 H21        -7.9421   11.2339  -16.8051 H         1 H41         0.1420
@<TRIPOS>BOND
     1    1    2 ar 
     2    1    8 ar 
     3    2    3 1  
     4    2    4 ar 
     5    4    5 1  
     6    4    6 ar 
     7    6    7 ar 
     8    7    8 ar 
     9    8    9 1  
    10    9   10 2  
    11    9   11 1  
    12   10   20 1  
    13   11   12 1  
    14   11   19 1  
    15   12   13 1  
    16   12   15 am 
    17   13   14 1  
    18   15   16 2  
    19   15   17 1  
    20   17   18 1  
    21   19   20 1  
    22   20   21 ar 
    23   21   22 ar 
    24   21   25 ar 
    25   22   23 1  
    26   23   24 3  
    27   25   26 1  
    28   26   27 ar 
    29   26   28 ar 
    30   27   31 ar 
    31   28   29 ar 
    32   29   30 ar 
    33   30   31 ar 
    34   31   32 1  
    35   32   33 1  
    36   33   34 1  
    37   33   35 1  
    38    1   36 1  
    39    6   37 1  
    40    7   38 1  
    41   11   39 1  
    42   13   40 1  
    43   13   41 1  
    44   14   42 1  
    45   14   43 1  
    46   14   44 1  
    47   17   45 1  
    48   17   46 1  
    49   18   47 1  
    50   19   48 1  
    51   19   49 1  
    52   22   50 1  
    53   25   51 1  
    54   27   52 1  
    55   28   53 1  
    56   29   54 1  
    57   30   55 1  
    58   33   56 1  
@<TRIPOS>SUBSTRUCTURE
     1 H41         1

