### 
### Created by X-TOOL on Mon Sep 10 21:13:22 2018
### 

@<TRIPOS>MOLECULE
5aut_ligand
   33    35     1     0     0
SMALL
GAST_HUCK


@<TRIPOS>ATOM
      1 C1        -22.8380    2.1830  -11.4640 C.ar      1 2AN         0.0730
      2 C2        -23.5690    1.8130  -12.5960 C.ar      1 2AN        -0.0412
      3 C3        -24.8190    2.3330  -12.8770 C.ar      1 2AN        -0.0768
      4 C4        -25.3420    3.2780  -12.0160 C.ar      1 2AN        -0.0703
      5 C5        -24.6320    3.6900  -10.9040 C.ar      1 2AN        -0.0263
      6 C6        -25.2700    4.6340  -10.1140 C.ar      1 2AN        -0.0593
      7 C7        -24.6730    5.1240   -8.9690 C.ar      1 2AN        -0.0629
      8 C8        -23.4210    4.6300   -8.6360 C.ar      1 2AN        -0.0420
      9 N         -21.6150    1.6350  -11.2220 N.pl3     1 2AN        -0.2710
     10 S         -21.1990    3.2540   -8.7280 S.o2      1 2AN        -0.1624
     11 C9        -22.7690    3.6770   -9.4050 C.ar      1 2AN         0.0589
     12 C10       -23.3660    3.1660  -10.5860 C.ar      1 2AN         0.0329
     13 C11       -21.3590    0.2850  -11.2370 C.ar      1 2AN         0.0604
     14 C12       -22.2670   -0.7250  -11.5890 C.ar      1 2AN        -0.0391
     15 C13       -21.9390   -2.0800  -11.5760 C.ar      1 2AN        -0.0719
     16 C14       -20.6560   -2.4720  -11.2260 C.ar      1 2AN        -0.0738
     17 C15       -19.7310   -1.4960  -10.8710 C.ar      1 2AN        -0.0719
     18 C16       -20.0760   -0.1370  -10.8780 C.ar      1 2AN        -0.0391
     19 O1        -20.2090    3.2650   -9.8840 O.co2     1 2AN        -0.4795
     20 O2        -21.2780    1.8680   -8.0630 O.co2     1 2AN        -0.4795
     21 O3        -20.8320    4.3250   -7.7010 O.co2     1 2AN        -0.4795
     22 H1        -23.1395    1.0903  -13.2803 H         1 2AN         0.0480
     23 H2        -25.3737    2.0077  -13.7497 H         1 2AN         0.0576
     24 H3        -26.3200    3.7012  -12.2146 H         1 2AN         0.0477
     25 H4        -26.2523    4.9929  -10.3993 H         1 2AN         0.0595
     26 H5        -25.1654    5.8678   -8.3530 H         1 2AN         0.0613
     27 H6        -22.9337    5.0021   -7.7420 H         1 2AN         0.0604
     28 H7        -20.8329    2.2724  -11.0147 H         1 2AN         0.2117
     29 H8        -23.2698   -0.4386  -11.8847 H         1 2AN         0.0532
     30 H9        -22.6833   -2.8232  -11.8382 H         1 2AN         0.0586
     31 H10       -20.3789   -3.5200  -11.2290 H         1 2AN         0.0516
     32 H11       -18.7279   -1.7905  -10.5845 H         1 2AN         0.0586
     33 H12       -19.3326    0.6011  -10.5994 H         1 2AN         0.0532
@<TRIPOS>BOND
     1    1    2 ar 
     2    1    9 1  
     3    1   12 ar 
     4    2    3 ar 
     5    3    4 ar 
     6    4    5 ar 
     7    5    6 ar 
     8    5   12 ar 
     9    6    7 ar 
    10    7    8 ar 
    11    8   11 ar 
    12    9   13 1  
    13   11   10 1  
    14   10   19 ar 
    15   10   20 ar 
    16   10   21 ar 
    17   11   12 ar 
    18   13   14 ar 
    19   13   18 ar 
    20   14   15 ar 
    21   15   16 ar 
    22   16   17 ar 
    23   17   18 ar 
    24    2   22 1  
    25    3   23 1  
    26    4   24 1  
    27    6   25 1  
    28    7   26 1  
    29    8   27 1  
    30    9   28 1  
    31   14   29 1  
    32   15   30 1  
    33   16   31 1  
    34   17   32 1  
    35   18   33 1  
@<TRIPOS>SUBSTRUCTURE
     1 2AN         1

