### 
### Created by X-TOOL on Mon Sep 10 21:13:23 2018
### 

@<TRIPOS>MOLECULE
5auu_ligand
   31    33     1     0     0
SMALL
GAST_HUCK


@<TRIPOS>ATOM
      1 C1        -25.5430    5.6490   -9.0540 C.ar      1 LU2        -0.0033
      2 O1        -27.6330    6.6680   -9.3400 O.3       1 LU2        -0.3351
      3 C2        -26.7200    5.7720   -9.7690 C.ar      1 LU2         0.0775
      4 O2        -26.1300    3.3010  -12.3980 O.3       1 LU2        -0.3326
      5 C3        -26.9480    4.9930  -10.9000 C.ar      1 LU2        -0.0086
      6 O3        -24.0310    2.2840  -11.9560 O.2       1 LU2        -0.4275
      7 C4        -25.9720    4.0870  -11.2980 C.ar      1 LU2         0.0935
      8 O4        -23.4340    4.6280   -8.7580 O.3       1 LU2        -0.2433
      9 C5        -24.7790    3.9470  -10.5900 C.ar      1 LU2         0.0767
     10 O5        -18.6310    1.5780   -7.1890 O.3       1 LU2        -0.3356
     11 C6        -24.5850    4.7380   -9.4630 C.ar      1 LU2         0.1290
     12 O6        -18.1500    3.8050   -5.7400 O.3       1 LU2        -0.3321
     13 C7        -23.8260    3.0210  -10.9870 C.2       1 LU2         0.0969
     14 C8        -22.6780    2.8670  -10.2150 C.2       1 LU2         0.0024
     15 C9        -22.5200    3.6940   -9.1060 C.2       1 LU2         0.1329
     16 C10       -21.4070    3.6910   -8.2630 C.ar      1 LU2         0.0117
     17 C11       -20.5690    2.5920   -8.1680 C.ar      1 LU2        -0.0240
     18 C12       -19.4830    2.6430   -7.3070 C.ar      1 LU2         0.1223
     19 C13       -19.2400    3.7920   -6.5450 C.ar      1 LU2         0.1233
     20 C14       -20.0780    4.8950   -6.6330 C.ar      1 LU2        -0.0339
     21 C15       -21.1660    4.8300   -7.4950 C.ar      1 LU2        -0.0626
     22 H1        -25.3715    6.2632   -8.1774 H         1 LU2         0.0401
     23 H2        -27.9029    6.4453   -8.4568 H         1 LU2         0.2494
     24 H3        -25.3622    2.7521  -12.5066 H         1 LU2         0.2503
     25 H4        -27.8706    5.0913  -11.4605 H         1 LU2         0.0403
     26 H5        -17.9502    1.7867   -6.5601 H         1 LU2         0.2443
     27 H6        -18.2163    3.0991   -5.1077 H         1 LU2         0.2472
     28 H7        -21.9260    2.1220  -10.4707 H         1 LU2         0.0375
     29 H8        -20.7597    1.7036   -8.7591 H         1 LU2         0.0550
     30 H9        -19.8884    5.7850   -6.0439 H         1 LU2         0.0530
     31 H10       -21.8376    5.6774   -7.5717 H         1 LU2         0.0553
@<TRIPOS>BOND
     1    1    3 ar 
     2   11    1 ar 
     3    3    2 1  
     4    3    5 ar 
     5    7    4 1  
     6    7    5 ar 
     7   13    6 2  
     8    9    7 ar 
     9    8   11 1  
    10   15    8 1  
    11   11    9 ar 
    12   13    9 1  
    13   18   10 1  
    14   19   12 1  
    15   14   13 1  
    16   15   14 2  
    17   16   15 1  
    18   17   16 ar 
    19   16   21 ar 
    20   18   17 ar 
    21   18   19 ar 
    22   19   20 ar 
    23   20   21 ar 
    24    1   22 1  
    25    2   23 1  
    26    4   24 1  
    27    5   25 1  
    28   10   26 1  
    29   12   27 1  
    30   14   28 1  
    31   17   29 1  
    32   20   30 1  
    33   21   31 1  
@<TRIPOS>SUBSTRUCTURE
     1 LU2         1

