### 
### Created by X-TOOL on Mon Sep 10 21:13:23 2018
### 

@<TRIPOS>MOLECULE
5auv_ligand
   30    32     1     0     0
SMALL
GAST_HUCK


@<TRIPOS>ATOM
      1 CAG       -25.4980    3.9590  -11.7070 C.ar      1 AGI        -0.0519
      2 CAE       -26.2430    4.9560  -11.1010 C.ar      1 AGI        -0.0265
      3 CAM       -25.8840    5.4450   -9.8570 C.ar      1 AGI         0.0943
      4 OAB       -26.6510    6.4200   -9.2970 O.3       1 AGI        -0.3288
      5 CAF       -24.7570    4.9410   -9.2040 C.ar      1 AGI        -0.0265
      6 CAH       -24.0040    3.9430   -9.8170 C.ar      1 AGI        -0.0519
      7 CAP       -24.3680    3.4630  -11.0770 C.ar      1 AGI         0.0209
      8 CAQ       -23.6280    2.4430  -11.6670 C.2       1 AGI         0.1357
      9 OAL       -22.5110    2.0970  -10.9700 O.3       1 AGI        -0.2431
     10 CAJ       -24.0360    1.7850  -12.8200 C.2       1 AGI         0.0025
     11 CAR       -23.2490    0.7400  -13.2970 C.2       1 AGI         0.0968
     12 OAA       -23.5760    0.1320  -14.3210 O.2       1 AGI        -0.4276
     13 CAT       -22.1320    0.3590  -12.5590 C.ar      1 AGI         0.0767
     14 CAS       -21.7710    1.0300  -11.3940 C.ar      1 AGI         0.1290
     15 CAK       -20.6680    0.6160  -10.6560 C.ar      1 AGI        -0.0033
     16 CAN       -19.9160   -0.4780  -11.0660 C.ar      1 AGI         0.0775
     17 OAC       -18.8420   -0.8650  -10.3270 O.3       1 AGI        -0.3351
     18 CAI       -20.2680   -1.1650  -12.2200 C.ar      1 AGI        -0.0086
     19 CAO       -21.3760   -0.7430  -12.9460 C.ar      1 AGI         0.0935
     20 OAD       -21.7670   -1.3720  -14.0820 O.3       1 AGI        -0.3326
     21 H1        -25.7980    3.5672  -12.6722 H         1 AGI         0.0640
     22 H2        -27.1149    5.3571  -11.6050 H         1 AGI         0.0561
     23 H3        -26.2906    6.6581   -8.4509 H         1 AGI         0.2508
     24 H4        -24.4716    5.3227   -8.2304 H         1 AGI         0.0561
     25 H5        -23.1330    3.5376   -9.3150 H         1 AGI         0.0640
     26 H6        -24.9479    2.0788  -13.3377 H         1 AGI         0.0374
     27 H7        -20.3926    1.1506   -9.7541 H         1 AGI         0.0401
     28 H8        -18.4351   -1.6210  -10.7336 H         1 AGI         0.2494
     29 H9        -19.6870   -2.0185  -12.5503 H         1 AGI         0.0403
     30 H10       -22.5380   -0.9411  -14.4319 H         1 AGI         0.2503
@<TRIPOS>BOND
     1    1    2 ar 
     2    1    7 ar 
     3    2    3 ar 
     4    3    4 1  
     5    3    5 ar 
     6    5    6 ar 
     7    6    7 ar 
     8    7    8 1  
     9    8    9 1  
    10    8   10 2  
    11    9   14 1  
    12   10   11 1  
    13   11   12 2  
    14   11   13 1  
    15   13   14 ar 
    16   13   19 ar 
    17   14   15 ar 
    18   15   16 ar 
    19   16   17 1  
    20   16   18 ar 
    21   18   19 ar 
    22   19   20 1  
    23    1   21 1  
    24    2   22 1  
    25    4   23 1  
    26    5   24 1  
    27    6   25 1  
    28   10   26 1  
    29   15   27 1  
    30   17   28 1  
    31   18   29 1  
    32   20   30 1  
@<TRIPOS>SUBSTRUCTURE
     1 AGI         1

