### 
### Created by X-TOOL on Mon Sep 10 21:13:23 2018
### 

@<TRIPOS>MOLECULE
5auw_ligand
   32    34     1     0     0
SMALL
GAST_HUCK


@<TRIPOS>ATOM
      1 C1        -26.7300    4.7500  -11.0840 C.ar      1 QUE        -0.0094
      2 C2        -25.7410    3.8800  -11.5080 C.ar      1 QUE         0.0929
      3 C3        -24.5620    3.7100  -10.7820 C.ar      1 QUE         0.0812
      4 C4        -24.4030    4.4310   -9.5980 C.ar      1 QUE         0.1206
      5 C5        -25.3860    5.3080   -9.1630 C.ar      1 QUE        -0.0055
      6 C6        -26.5400    5.4630   -9.9130 C.ar      1 QUE         0.0766
      7 C9        -23.5820    2.8290  -11.2010 C.2       1 QUE         0.1453
      8 C10       -22.4620    2.6930  -10.3950 C.2       1 QUE         0.1600
      9 C11       -22.2890    3.4280   -9.2180 C.2       1 QUE         0.1531
     10 C14       -21.1970    3.4200   -8.3430 C.ar      1 QUE        -0.0055
     11 C15       -20.9550    4.6010   -7.6540 C.ar      1 QUE        -0.0720
     12 C16       -19.9040    4.7020   -6.7580 C.ar      1 QUE        -0.0408
     13 C17       -19.0940    3.5940   -6.5600 C.ar      1 QUE         0.1166
     14 C18       -19.3310    2.3940   -7.2440 C.ar      1 QUE         0.1158
     15 C19       -20.3880    2.3170   -8.1390 C.ar      1 QUE        -0.0332
     16 O12       -23.2700    4.3080   -8.8550 O.3       1 QUE        -0.2591
     17 O13       -23.7120    2.1560  -12.2240 O.2       1 QUE        -0.4153
     18 O23       -18.5270    1.3050   -7.0250 O.3       1 QUE        -0.3371
     19 O24       -18.0560    3.6570   -5.7070 O.3       1 QUE        -0.3363
     20 O27       -21.4990    1.8120  -10.7950 O.3       1 QUE        -0.3400
     21 O29       -27.5000    6.3040   -9.4850 O.3       1 QUE        -0.3353
     22 O30       -25.8940    3.1680  -12.6590 O.3       1 QUE        -0.3327
     23 H1        -27.6400    4.8713  -11.6604 H         1 QUE         0.0396
     24 H2        -25.2520    5.8671   -8.2440 H         1 QUE         0.0393
     25 H3        -21.5988    5.4572   -7.8201 H         1 QUE         0.0495
     26 H4        -19.7186    5.6266   -6.2233 H         1 QUE         0.0514
     27 H5        -20.5793    1.3954   -8.6767 H         1 QUE         0.0495
     28 H6        -17.8585    1.5292   -6.3883 H         1 QUE         0.2442
     29 H7        -18.1698    3.0076   -5.0230 H         1 QUE         0.2450
     30 H8        -21.7678    1.3976  -11.6065 H         1 QUE         0.2421
     31 H9        -27.8101    6.0214   -8.6327 H         1 QUE         0.2494
     32 H10       -25.8570    2.2392  -12.4628 H         1 QUE         0.2504
@<TRIPOS>BOND
     1    1    2 ar 
     2    1    6 ar 
     3    2    3 ar 
     4    2   22 1  
     5    3    4 ar 
     6    3    7 1  
     7    4    5 ar 
     8    4   16 1  
     9    5    6 ar 
    10    6   21 1  
    11    7    8 1  
    12    7   17 2  
    13    8    9 2  
    14    8   20 1  
    15    9   10 1  
    16    9   16 1  
    17   10   11 ar 
    18   10   15 ar 
    19   11   12 ar 
    20   12   13 ar 
    21   13   14 ar 
    22   13   19 1  
    23   14   15 ar 
    24   14   18 1  
    25    1   23 1  
    26    5   24 1  
    27   11   25 1  
    28   12   26 1  
    29   15   27 1  
    30   18   28 1  
    31   19   29 1  
    32   20   30 1  
    33   21   31 1  
    34   22   32 1  
@<TRIPOS>SUBSTRUCTURE
     1 QUE         1

