### 
### Created by X-TOOL on Mon Sep 10 21:13:23 2018
### 

@<TRIPOS>MOLECULE
5aux_ligand
   31    33     1     0     0
SMALL
GAST_HUCK


@<TRIPOS>ATOM
      1 C1        -20.1370   -1.1610  -12.1300 C.ar      1 KMP        -0.0094
      2 C2        -21.2240   -0.8120  -12.9270 C.ar      1 KMP         0.0929
      3 C3        -22.0420    0.2780  -12.6170 C.ar      1 KMP         0.0812
      4 C4        -21.7610    1.0040  -11.4620 C.ar      1 KMP         0.1206
      5 C5        -20.6830    0.6580  -10.6530 C.ar      1 KMP        -0.0055
      6 C6        -19.8670   -0.4180  -10.9850 C.ar      1 KMP         0.0766
      7 C9        -23.1390    0.6160  -13.4030 C.2       1 KMP         0.1452
      8 C10       -23.9480    1.6630  -12.9730 C.2       1 KMP         0.1601
      9 C11       -23.6610    2.4130  -11.8280 C.2       1 KMP         0.1558
     10 C14       -24.4190    3.4290  -11.2340 C.ar      1 KMP         0.0038
     11 C15       -25.5600    3.9720  -11.8120 C.ar      1 KMP        -0.0611
     12 C16       -26.2850    4.9510  -11.1400 C.ar      1 KMP        -0.0332
     13 C17       -25.8830    5.3780   -9.8810 C.ar      1 KMP         0.0878
     14 C18       -24.7540    4.8270   -9.2770 C.ar      1 KMP        -0.0332
     15 C19       -24.0310    3.8540   -9.9640 C.ar      1 KMP        -0.0611
     16 O12       -22.5590    2.0570  -11.1050 O.3       1 KMP        -0.2589
     17 O13       -23.4170   -0.0120  -14.4290 O.2       1 KMP        -0.4153
     18 O24       -26.6140    6.3300   -9.2490 O.3       1 KMP        -0.3329
     19 O27       -25.0400    1.9570  -13.7340 O.3       1 KMP        -0.3401
     20 O29       -18.8130   -0.7410  -10.1830 O.3       1 KMP        -0.3353
     21 O30       -21.5200   -1.5090  -14.0590 O.3       1 KMP        -0.3327
     22 H1        -19.5081   -2.0021  -12.3985 H         1 KMP         0.0396
     23 H2        -20.4776    1.2319   -9.7566 H         1 KMP         0.0393
     24 H3        -25.8859    3.6322  -12.7884 H         1 KMP         0.0584
     25 H4        -27.1666    5.3820  -11.6006 H         1 KMP         0.0544
     26 H5        -24.4438    5.1499   -8.2898 H         1 KMP         0.0544
     27 H6        -23.1513    3.4197   -9.5029 H         1 KMP         0.0584
     28 H7        -26.9466    5.9809   -8.4305 H         1 KMP         0.2486
     29 H8        -25.0851    1.3547  -14.4673 H         1 KMP         0.2420
     30 H9        -18.2162   -0.0035  -10.1339 H         1 KMP         0.2494
     31 H10       -22.3995   -1.8617  -13.9915 H         1 KMP         0.2504
@<TRIPOS>BOND
     1    1    2 ar 
     2    1    6 ar 
     3    2    3 ar 
     4    2   21 1  
     5    3    4 ar 
     6    3    7 1  
     7    4    5 ar 
     8    4   16 1  
     9    5    6 ar 
    10    6   20 1  
    11    7    8 1  
    12    7   17 2  
    13    8    9 2  
    14    8   19 1  
    15    9   10 1  
    16    9   16 1  
    17   10   11 ar 
    18   10   15 ar 
    19   11   12 ar 
    20   12   13 ar 
    21   13   14 ar 
    22   13   18 1  
    23   14   15 ar 
    24    1   22 1  
    25    5   23 1  
    26   11   24 1  
    27   12   25 1  
    28   14   26 1  
    29   15   27 1  
    30   18   28 1  
    31   19   29 1  
    32   20   30 1  
    33   21   31 1  
@<TRIPOS>SUBSTRUCTURE
     1 KMP         1

