### 
### Created by X-TOOL on Mon Sep 10 21:13:24 2018
### 

@<TRIPOS>MOLECULE
5auy_ligand
   32    34     1     0     0
SMALL
GAST_HUCK


@<TRIPOS>ATOM
      1 OAB       -21.3050    1.7020  -11.0580 O.3       1 MRI        -0.3444
      2 CAM       -22.2740    2.5620  -10.6200 C.2       1 MRI         0.1536
      3 CAN       -23.3970    2.7630  -11.4160 C.2       1 MRI         0.1402
      4 OAD       -23.5360    2.1770  -12.4940 O.2       1 MRI        -0.4188
      5 CAI       -24.3770    3.6370  -10.9460 C.ar      1 MRI         0.0799
      6 CAO       -25.5420    3.8740  -11.6730 C.ar      1 MRI         0.0927
      7 OAC       -25.6710    3.2190  -12.8560 O.3       1 MRI        -0.3328
      8 CAS       -26.5320    4.7360  -11.2220 C.ar      1 MRI        -0.0095
      9 CAR       -26.3560    5.3790  -10.0090 C.ar      1 MRI         0.0765
     10 OAF       -27.3140    6.2270   -9.5510 O.3       1 MRI        -0.3354
     11 CAP       -25.2010    5.1590   -9.2670 C.ar      1 MRI        -0.0055
     12 CAJ       -24.2160    4.2930   -9.7340 C.ar      1 MRI         0.1205
     13 OAA       -23.0840    4.0740   -8.9960 O.3       1 MRI        -0.2599
     14 CAK       -22.0980    3.2060   -9.3950 C.2       1 MRI         0.1526
     15 CAL       -21.0080    3.1120   -8.5060 C.ar      1 MRI         0.0357
     16 CAT       -20.8230    4.1940   -7.6460 C.ar      1 MRI        -0.0675
     17 CAV       -19.7820    4.2020   -6.7200 C.ar      1 MRI        -0.0433
     18 CAW       -18.9000    3.1360   -6.6290 C.ar      1 MRI         0.0800
     19 OAG       -17.8830    3.1690   -5.7140 O.3       1 MRI        -0.3353
     20 CAU       -19.0660    2.0420   -7.4680 C.ar      1 MRI        -0.0039
     21 CAQ       -20.1100    2.0380   -8.3920 C.ar      1 MRI         0.0928
     22 OAE       -20.2720    0.9740   -9.2200 O.3       1 MRI        -0.3329
     23 H1        -20.6041    1.6640  -10.4179 H         1 MRI         0.2397
     24 H2        -25.6503    2.2819  -12.7017 H         1 MRI         0.2503
     25 H3        -27.4275    4.9027  -11.8096 H         1 MRI         0.0396
     26 H4        -27.0448    6.5841   -8.7129 H         1 MRI         0.2493
     27 H5        -25.0664    5.6654   -8.3180 H         1 MRI         0.0393
     28 H6        -21.4983    5.0404   -7.6986 H         1 MRI         0.0558
     29 H7        -19.6598    5.0540   -6.0611 H         1 MRI         0.0460
     30 H8        -17.3737    2.3697   -5.7793 H         1 MRI         0.2486
     31 H9        -18.3891    1.1977   -7.4050 H         1 MRI         0.0463
     32 H10       -21.0213    1.1245   -9.7844 H         1 MRI         0.2497
@<TRIPOS>BOND
     1    1    2 1  
     2    2    3 1  
     3    2   14 2  
     4    3    4 2  
     5    3    5 1  
     6    5    6 ar 
     7    5   12 ar 
     8    6    7 1  
     9    6    8 ar 
    10    8    9 ar 
    11    9   10 1  
    12    9   11 ar 
    13   11   12 ar 
    14   12   13 1  
    15   13   14 1  
    16   14   15 1  
    17   15   16 ar 
    18   15   21 ar 
    19   16   17 ar 
    20   17   18 ar 
    21   18   19 1  
    22   18   20 ar 
    23   20   21 ar 
    24   21   22 1  
    25    1   23 1  
    26    7   24 1  
    27    8   25 1  
    28   10   26 1  
    29   11   27 1  
    30   16   28 1  
    31   17   29 1  
    32   19   30 1  
    33   20   31 1  
    34   22   32 1  
@<TRIPOS>SUBSTRUCTURE
     1 MRI         1

