### 
### Created by X-TOOL on Mon Sep 10 21:13:23 2018
### 

@<TRIPOS>MOLECULE
5auz_ligand
   30    32     1     0     0
SMALL
GAST_HUCK


@<TRIPOS>ATOM
      1 C1        -21.1710   -0.6150  -12.3610 C.ar      1 GEN        -0.0021
      2 C2        -19.9650   -0.9970  -11.7820 C.ar      1 GEN         0.0780
      3 O2        -19.3320   -2.1100  -12.2440 O.3       1 GEN        -0.3349
      4 C3        -19.4200   -0.2510  -10.7390 C.ar      1 GEN        -0.0082
      5 C4        -20.1000    0.8790  -10.2980 C.ar      1 GEN         0.0942
      6 O4        -19.6270    1.6620   -9.2910 O.3       1 GEN        -0.3324
      7 C5        -21.3030    1.2860  -10.8740 C.ar      1 GEN         0.0811
      8 C6        -21.9440    2.4150  -10.3690 C.2       1 GEN         0.1145
      9 O6        -21.4380    3.0380   -9.4280 O.2       1 GEN        -0.4182
     10 C7        -23.1670    2.7690  -10.9390 C.2       1 GEN         0.0480
     11 C8        -23.6610    1.9860  -11.9770 C.2       1 GEN         0.1185
     12 O9        -23.0260    0.8930  -12.4850 O.3       1 GEN        -0.2397
     13 C10       -21.8410    0.5190  -11.9110 C.ar      1 GEN         0.1339
     14 C11       -24.0060    3.8020  -10.5150 C.ar      1 GEN        -0.0380
     15 C12       -24.0780    4.2050   -9.1820 C.ar      1 GEN        -0.0703
     16 C13       -24.9770    5.1960   -8.8040 C.ar      1 GEN        -0.0379
     17 C14       -25.8160    5.7680   -9.7530 C.ar      1 GEN         0.0833
     18 O14       -26.6860    6.7390   -9.3950 O.3       1 GEN        -0.3358
     19 C15       -25.7570    5.3610  -11.0850 C.ar      1 GEN        -0.0379
     20 C16       -24.8670    4.3610  -11.4480 C.ar      1 GEN        -0.0703
     21 H1        -21.5916   -1.2043  -13.1678 H         1 GEN         0.0405
     22 H2        -18.5282   -2.2418  -11.7550 H         1 GEN         0.2494
     23 H3        -18.4834   -0.5460  -10.2799 H         1 GEN         0.0405
     24 H4        -20.2309    2.3794   -9.1389 H         1 GEN         0.2504
     25 H5        -24.6192    2.2653  -12.4126 H         1 GEN         0.1311
     26 H6        -23.4335    3.7460   -8.4410 H         1 GEN         0.0543
     27 H7        -25.0234    5.5219   -7.7712 H         1 GEN         0.0533
     28 H8        -27.2822    6.4015   -8.7368 H         1 GEN         0.2470
     29 H9        -26.3988    5.8204  -11.8280 H         1 GEN         0.0533
     30 H10       -24.8440    4.0118  -12.4740 H         1 GEN         0.0543
@<TRIPOS>BOND
     1    1    2 ar 
     2    1   13 ar 
     3    2    3 1  
     4    2    4 ar 
     5    4    5 ar 
     6    5    6 1  
     7    5    7 ar 
     8    7    8 1  
     9    7   13 ar 
    10    8    9 2  
    11    8   10 1  
    12   10   11 2  
    13   10   14 1  
    14   11   12 1  
    15   12   13 1  
    16   14   15 ar 
    17   14   20 ar 
    18   15   16 ar 
    19   16   17 ar 
    20   17   18 1  
    21   17   19 ar 
    22   19   20 ar 
    23    1   21 1  
    24    3   22 1  
    25    4   23 1  
    26    6   24 1  
    27   11   25 1  
    28   15   26 1  
    29   16   27 1  
    30   18   28 1  
    31   19   29 1  
    32   20   30 1  
@<TRIPOS>SUBSTRUCTURE
     1 GEN         1

