### 
### Created by X-TOOL on Mon Sep 10 21:13:23 2018
### 

@<TRIPOS>MOLECULE
5av0_ligand
   30    32     1     0     0
SMALL
GAST_HUCK


@<TRIPOS>ATOM
      1 CAA       -24.7990    4.9980   -8.8790 C.ar      1 47X        -0.0357
      2 CAB       -25.8890    5.4100   -9.6480 C.ar      1 47X         0.0869
      3 CAC       -26.0650    4.9160  -10.9270 C.ar      1 47X         0.0091
      4 CAD       -23.8750    4.0900   -9.3970 C.ar      1 47X        -0.0574
      5 CAE       -24.0520    3.5870  -10.6790 C.ar      1 47X         0.0525
      6 CAF       -25.1450    4.0110  -11.4370 C.ar      1 47X         0.1413
      7 OAG       -25.3220    3.5190  -12.6980 O.3       1 47X        -0.2370
      8 CAH       -24.4010    2.6440  -13.1940 C.2       1 47X         0.1189
      9 CAI       -23.2970    2.2090  -12.4770 C.2       1 47X         0.0473
     10 CAJ       -23.1220    2.6800  -11.1790 C.2       1 47X         0.1190
     11 CAK       -22.4240    1.3020  -13.0850 C.ar      1 47X        -0.0471
     12 CAL       -21.9650    0.1860  -12.3920 C.ar      1 47X        -0.0422
     13 CAM       -21.1030   -0.7010  -13.0230 C.ar      1 47X         0.1113
     14 CAN       -20.7090   -0.4910  -14.3420 C.ar      1 47X         0.1119
     15 CAO       -21.1680    0.6160  -15.0520 C.ar      1 47X        -0.0457
     16 CAP       -22.0330    1.5050  -14.4130 C.ar      1 47X        -0.0813
     17 OAQ       -19.8650   -1.4100  -14.8860 O.3       1 47X        -0.3393
     18 OAR       -20.6150   -1.8040  -12.3870 O.3       1 47X        -0.3381
     19 OAS       -26.7900    6.3030   -9.1630 O.3       1 47X        -0.3321
     20 OAT       -22.1590    2.3410  -10.4880 O.2       1 47X        -0.4123
     21 H1        -24.6700    5.3854   -7.8748 H         1 47X         0.0490
     22 H2        -26.9122    5.2320  -11.5249 H         1 47X         0.0494
     23 H3        -23.0239    3.7790   -8.8021 H         1 47X         0.0619
     24 H4        -24.5400    2.2673  -14.2063 H         1 47X         0.1313
     25 H5        -22.2775    0.0107  -11.3689 H         1 47X         0.0456
     26 H6        -20.8601    0.7831  -16.0779 H         1 47X         0.0502
     27 H7        -22.4079    2.3664  -14.9539 H         1 47X         0.0453
     28 H8        -19.6731   -2.0821  -14.2425 H         1 47X         0.2434
     29 H9        -19.6664   -1.7599  -12.3619 H         1 47X         0.2441
     30 H10       -26.5432    6.5525   -8.2803 H         1 47X         0.2497
@<TRIPOS>BOND
     1    1    2 ar 
     2    1    4 ar 
     3    2    3 ar 
     4    2   19 1  
     5    3    6 ar 
     6    4    5 ar 
     7    5    6 ar 
     8    5   10 1  
     9    6    7 1  
    10    7    8 1  
    11    8    9 2  
    12    9   10 1  
    13    9   11 1  
    14   10   20 2  
    15   11   12 ar 
    16   11   16 ar 
    17   12   13 ar 
    18   13   14 ar 
    19   13   18 1  
    20   14   15 ar 
    21   14   17 1  
    22   15   16 ar 
    23    1   21 1  
    24    3   22 1  
    25    4   23 1  
    26    8   24 1  
    27   12   25 1  
    28   15   26 1  
    29   16   27 1  
    30   17   28 1  
    31   18   29 1  
    32   19   30 1  
@<TRIPOS>SUBSTRUCTURE
     1 47X         1

