### 
### Created by X-TOOL on Mon Sep 10 21:13:28 2018
### 

@<TRIPOS>MOLECULE
5ave_ligand
   14    13     1     0     0
SMALL
GAST_HUCK


@<TRIPOS>ATOM
      1 N         -19.5640  -28.1260    6.0890 N.4       1 SER         0.2343
      2 CA        -19.9130  -26.7140    6.2720 C.3       1 SER         0.0519
      3 C         -21.4200  -26.5780    6.4100 C.2       1 SER         0.0867
      4 O         -22.1570  -27.4720    5.9690 O.co2     1 SER        -0.5642
      5 CB        -19.4330  -25.8750    5.0810 C.3       1 SER         0.0987
      6 OG        -20.1920  -26.1700    3.9130 O.3       1 SER        -0.3876
      7 OXT       -21.9160  -25.5750    6.9470 O.co2     1 SER        -0.5642
      8 H1        -18.5642  -28.2158    5.9975 H         1 SER         0.2011
      9 H2        -20.0105  -28.4773    5.2564 H         1 SER         0.2011
     10 H3        -19.8772  -28.6558    6.8873 H         1 SER         0.2011
     11 H4        -19.4304  -26.3428    7.1881 H         1 SER         0.1047
     12 H5        -18.3733  -26.0975    4.8875 H         1 SER         0.0633
     13 H6        -19.5454  -24.8080    5.3235 H         1 SER         0.0633
     14 H7        -20.0952  -27.0902    3.6978 H         1 SER         0.2098
@<TRIPOS>BOND
     1    1    2 1  
     2    2    3 1  
     3    2    5 1  
     4    3    4 ar 
     5    3    7 ar 
     6    5    6 1  
     7    1    8 1  
     8    1    9 1  
     9    1   10 1  
    10    2   11 1  
    11    5   12 1  
    12    5   13 1  
    13    6   14 1  
@<TRIPOS>SUBSTRUCTURE
     1 SER         1

