### 
### Created by X-TOOL on Mon Sep 10 21:13:28 2018
### 

@<TRIPOS>MOLECULE
5avf_ligand
   14    13     1     0     0
SMALL
GAST_HUCK


@<TRIPOS>ATOM
      1 C1         24.2800  141.5860  146.1420 C.3       1 TAU        -0.0186
      2 C2         23.8320  142.8770  145.4200 C.3       1 TAU         0.0706
      3 N1         24.0530  140.4160  145.2930 N.4       1 TAU         0.2196
      4 S          24.9530  143.4550  144.2830 S.o2      1 TAU        -0.1866
      5 O1         24.3980  144.6820  143.6880 O.co2     1 TAU        -0.4844
      6 O2         26.2020  143.8080  144.9910 O.co2     1 TAU        -0.4844
      7 O3         25.2030  142.4030  143.2950 O.co2     1 TAU        -0.4844
      8 H1         23.7048  141.4742  147.0729 H         1 TAU         0.0828
      9 H2         25.3516  141.6579  146.3795 H         1 TAU         0.0828
     10 H3         23.6720  143.6591  146.1767 H         1 TAU         0.0521
     11 H4         22.8852  142.6716  144.8990 H         1 TAU         0.0521
     12 H5         24.3506  139.5849  145.7797 H         1 TAU         0.1995
     13 H6         24.5806  140.5127  144.4396 H         1 TAU         0.1995
     14 H7         23.0715  140.3444  145.0750 H         1 TAU         0.1995
@<TRIPOS>BOND
     1    1    2 1  
     2    1    3 1  
     3    2    4 1  
     4    4    5 ar 
     5    4    6 ar 
     6    4    7 ar 
     7    1    8 1  
     8    1    9 1  
     9    2   10 1  
    10    2   11 1  
    11    3   12 1  
    12    3   13 1  
    13    3   14 1  
@<TRIPOS>SUBSTRUCTURE
     1 TAU         1

