### 
### Created by X-TOOL on Mon Sep 10 21:13:25 2018
### 

@<TRIPOS>MOLECULE
5avi_ligand
   54    55     1     0     0
SMALL
GAST_HUCK


@<TRIPOS>ATOM
      1 C2        136.7300   24.4150   65.3770 C.ar      1 4KM        -0.0332
      2 C3        136.9460   23.1000   65.0310 C.ar      1 4KM        -0.0204
      3 C18       140.3280   17.3430   65.8300 C.ar      1 4KM        -0.0489
      4 C20       139.1740   17.3200   63.7610 C.ar      1 4KM        -0.0489
      5 C17       140.0430   18.6690   65.9920 C.ar      1 4KM        -0.0455
      6 C21       138.8670   18.6580   63.9110 C.ar      1 4KM        -0.0455
      7 C6        139.0360   24.8480   65.0220 C.ar      1 4KM        -0.0149
      8 C5        139.2570   23.5360   64.6700 C.ar      1 4KM         0.0978
      9 C1        137.7870   25.2930   65.3740 C.ar      1 4KM         0.0449
     10 C4        138.1930   22.6360   64.6730 C.ar      1 4KM         0.0396
     11 C19       139.9180   16.6470   64.7120 C.ar      1 4KM         0.0581
     12 C16       139.3100   19.3170   65.0370 C.ar      1 4KM         0.0800
     13 C7        140.6920   23.3640   64.3490 C.2       1 4KM         0.2672
     14 C24       141.3930   14.5850   64.2630 C.2       1 4KM         0.1998
     15 C26       142.6770   15.3350   64.0620 C.3       1 4KM         0.0312
     16 C11       142.5270   20.9560   64.4520 C.3       1 4KM        -0.0320
     17 C12       141.6340   20.5740   62.2370 C.3       1 4KM        -0.0320
     18 C13       143.2270   22.3460   62.5700 C.3       1 4KM        -0.0320
     19 C23       139.0630   14.4190   64.8390 C.3       1 4KM         0.0422
     20 C14       138.2210   21.1840   64.3460 C.3       1 4KM         0.1191
     21 C27       137.5900   26.7110   65.7450 C.3       1 4KM         0.3699
     22 C10       142.0570   21.6510   63.1950 C.3       1 4KM         0.0888
     23 N22       140.2030   15.2600   64.5590 N.am      1 4KM        -0.2295
     24 O8        141.4770   24.0700   64.9680 O.2       1 4KM        -0.3594
     25 O25       141.4290   13.3660   64.1550 O.2       1 4KM        -0.3865
     26 O15       139.0880   20.6460   65.3140 O.3       1 4KM        -0.3082
     27 O9        140.9380   22.5510   63.2680 O.3       1 4KM        -0.2722
     28 F28       136.5360   27.2520   65.0870 F         1 4KM        -0.2270
     29 F29       137.3650   26.8640   67.0750 F         1 4KM        -0.2270
     30 F30       138.6660   27.4980   65.4860 F         1 4KM        -0.2270
     31 H1        135.7369   24.7540   65.6488 H         1 4KM         0.0865
     32 H2        136.1105   22.4094   65.0405 H         1 4KM         0.0663
     33 H3        140.8900   16.8251   66.5987 H         1 4KM         0.0478
     34 H4        138.8257   16.7885   62.8828 H         1 4KM         0.0478
     35 H5        140.3942   19.2018   66.8683 H         1 4KM         0.0507
     36 H6        138.2885   19.1799   63.1573 H         1 4KM         0.0507
     37 H7        139.8666   25.5446   65.0211 H         1 4KM         0.0901
     38 H8        143.4863   14.6237   63.8405 H         1 4KM         0.0471
     39 H9        142.9214   15.8953   64.9765 H         1 4KM         0.0471
     40 H10       142.5646   16.0358   63.2216 H         1 4KM         0.0471
     41 H11       143.3853   20.3102   64.2148 H         1 4KM         0.0260
     42 H12       141.7093   20.3438   64.8601 H         1 4KM         0.0260
     43 H13       142.8285   21.7081   65.1960 H         1 4KM         0.0260
     44 H14       141.2819   21.0331   61.3015 H         1 4KM         0.0260
     45 H15       140.8208   19.9838   62.6846 H         1 4KM         0.0260
     46 H16       142.4896   19.9165   62.0234 H         1 4KM         0.0260
     47 H17       143.5759   23.1483   63.2368 H         1 4KM         0.0260
     48 H18       142.9243   22.7774   61.6045 H         1 4KM         0.0260
     49 H19       144.0403   21.6229   62.4097 H         1 4KM         0.0260
     50 H20       138.1877   15.0485   65.0570 H         1 4KM         0.0545
     51 H21       139.2821   13.7819   65.7085 H         1 4KM         0.0545
     52 H22       138.8507   13.7860   63.9648 H         1 4KM         0.0545
     53 H23       138.6122   21.0169   63.3316 H         1 4KM         0.0861
     54 H24       137.2168   20.7428   64.4291 H         1 4KM         0.0861
@<TRIPOS>BOND
     1    2    1 ar 
     2    9    1 ar 
     3   10    2 ar 
     4    5    3 ar 
     5    3   11 ar 
     6    6    4 ar 
     7    4   11 ar 
     8   12    5 ar 
     9   12    6 ar 
    10    8    7 ar 
    11    7    9 ar 
    12    8   10 ar 
    13   13    8 1  
    14    9   21 1  
    15   10   20 1  
    16   11   23 1  
    17   26   12 1  
    18   13   24 2  
    19   27   13 1  
    20   14   15 1  
    21   23   14 am 
    22   14   25 2  
    23   22   16 1  
    24   22   17 1  
    25   22   18 1  
    26   23   19 1  
    27   20   26 1  
    28   21   28 1  
    29   21   29 1  
    30   21   30 1  
    31   22   27 1  
    32    1   31 1  
    33    2   32 1  
    34    3   33 1  
    35    4   34 1  
    36    5   35 1  
    37    6   36 1  
    38    7   37 1  
    39   15   38 1  
    40   15   39 1  
    41   15   40 1  
    42   16   41 1  
    43   16   42 1  
    44   16   43 1  
    45   17   44 1  
    46   17   45 1  
    47   17   46 1  
    48   18   47 1  
    49   18   48 1  
    50   18   49 1  
    51   19   50 1  
    52   19   51 1  
    53   19   52 1  
    54   20   53 1  
    55   20   54 1  
@<TRIPOS>SUBSTRUCTURE
     1 4KM         1

