### 
### Created by X-TOOL on Mon Sep 10 21:13:25 2018
### 

@<TRIPOS>MOLECULE
5awj_ligand
   83    85     1     0     0
SMALL
GAST_HUCK


@<TRIPOS>ATOM
      1 O33        16.3430  -20.5030  -26.9700 O.3       1 YSL        -0.3950
      2 C26        17.1620  -21.6240  -26.6310 C.3       1 YSL         0.0445
      3 C25        17.5580  -22.3670  -27.9000 C.3       1 YSL        -0.0266
      4 C20        18.8060  -23.2160  -27.6940 C.3       1 YSL        -0.0361
      5 C21        19.4820  -23.4790  -29.0310 C.3       1 YSL        -0.0499
      6 C22        20.3430  -22.2870  -29.4240 C.3       1 YSL        -0.0528
      7 C23        21.4890  -22.6990  -30.3340 C.3       1 YSL        -0.0531
      8 C24        21.6980  -21.6700  -31.4360 C.3       1 YSL        -0.0533
      9 C31        22.7000  -20.6090  -31.0020 C.3       1 YSL        -0.0559
     10 C32        24.1150  -21.0610  -31.2820 C.3       1 YSL        -0.0653
     11 C18        18.4900  -24.5240  -26.9860 C.3       1 YSL        -0.0375
     12 C19        17.5750  -25.3970  -27.8320 C.3       1 YSL        -0.0619
     13 C17        19.7700  -25.2710  -26.6350 C.3       1 YSL        -0.0304
     14 C13        19.5130  -26.6150  -25.9770 C.3       1 YSL        -0.0161
     15 C34        18.4350  -26.4810  -24.9070 C.3       1 YSL        -0.0570
     16 C12        19.1830  -27.7490  -26.9270 C.3       1 YSL        -0.0431
     17 C11        19.0520  -29.0510  -26.1420 C.3       1 YSL        -0.0423
     18 C10        20.2510  -29.3630  -25.2420 C.3       1 YSL        -0.0234
     19 C9         20.7370  -28.1270  -24.5200 C.2       1 YSL        -0.0718
     20 C14        20.8620  -26.9030  -25.3650 C.3       1 YSL        -0.0062
     21 C15        21.2950  -25.5930  -24.7340 C.3       1 YSL        -0.0393
     22 C16        20.6600  -24.5320  -25.6350 C.3       1 YSL        -0.0470
     23 C8         21.0250  -28.1400  -23.2080 C.2       1 YSL        -0.1089
     24 C7         20.8640  -29.3820  -22.4550 C.2       1 YSL        -0.1086
     25 C6         20.5510  -29.4070  -21.1530 C.2       1 YSL        -0.0657
     26 C5         20.3880  -30.7420  -20.4590 C.3       1 YSL         0.0150
     27 C4         21.0510  -30.7690  -19.0870 C.3       1 YSL         0.1023
     28 O31        22.4660  -30.8000  -19.2540 O.3       1 YSL        -0.3742
     29 C3         20.6870  -29.5450  -18.3100 C.2       1 YSL        -0.0127
     30 C33        20.1700  -29.6580  -17.1030 C.2       1 YSL        -0.1238
     31 C2         20.9310  -28.2090  -18.9510 C.3       1 YSL         0.1023
     32 O32        20.3610  -27.1740  -18.1510 O.3       1 YSL        -0.3742
     33 C1         20.3500  -28.1320  -20.3640 C.3       1 YSL         0.0150
     34 H1         16.8282  -19.9189  -27.5409 H         1 YSL         0.2094
     35 H2         16.6012  -22.3010  -25.9699 H         1 YSL         0.0557
     36 H3         18.0674  -21.2734  -26.1140 H         1 YSL         0.0557
     37 H4         17.7543  -21.6331  -28.6955 H         1 YSL         0.0290
     38 H5         16.7279  -23.0223  -28.2024 H         1 YSL         0.0290
     39 H6         19.5035  -22.6484  -27.0605 H         1 YSL         0.0304
     40 H7         18.7140  -23.6429  -29.8012 H         1 YSL         0.0268
     41 H8         20.1157  -24.3743  -28.9486 H         1 YSL         0.0268
     42 H9         20.7573  -21.8303  -28.5131 H         1 YSL         0.0265
     43 H10        19.7161  -21.5521  -29.9502 H         1 YSL         0.0265
     44 H11        21.2564  -23.6731  -30.7890 H         1 YSL         0.0265
     45 H12        22.4103  -22.7828  -29.7389 H         1 YSL         0.0265
     46 H13        20.7369  -21.1863  -31.6647 H         1 YSL         0.0265
     47 H14        22.0767  -22.1770  -32.3358 H         1 YSL         0.0265
     48 H15        22.5868  -20.4257  -29.9233 H         1 YSL         0.0263
     49 H16        22.5025  -19.6787  -31.5548 H         1 YSL         0.0263
     50 H17        24.8197  -20.2799  -30.9608 H         1 YSL         0.0230
     51 H18        24.2354  -21.2425  -32.3602 H         1 YSL         0.0230
     52 H19        24.3196  -21.9894  -30.7287 H         1 YSL         0.0230
     53 H20        17.9646  -24.2862  -26.0493 H         1 YSL         0.0304
     54 H21        17.3639  -26.3341  -27.2961 H         1 YSL         0.0233
     55 H22        18.0673  -25.6248  -28.7889 H         1 YSL         0.0233
     56 H23        16.6322  -24.8633  -28.0226 H         1 YSL         0.0233
     57 H24        20.3284  -25.4248  -27.5702 H         1 YSL         0.0311
     58 H25        18.2591  -27.4608  -24.4391 H         1 YSL         0.0237
     59 H26        17.5030  -26.1224  -25.3683 H         1 YSL         0.0237
     60 H27        18.7652  -25.7632  -24.1417 H         1 YSL         0.0237
     61 H28        19.9869  -27.8492  -27.6711 H         1 YSL         0.0274
     62 H29        18.2339  -27.5332  -27.4394 H         1 YSL         0.0274
     63 H30        18.9349  -29.8765  -26.8595 H         1 YSL         0.0290
     64 H31        18.1541  -28.9843  -25.5101 H         1 YSL         0.0290
     65 H32        21.0689  -29.7604  -25.8609 H         1 YSL         0.0437
     66 H33        19.9536  -30.1175  -24.4988 H         1 YSL         0.0437
     67 H34        21.5864  -27.1389  -26.1585 H         1 YSL         0.0478
     68 H35        22.3912  -25.5015  -24.7321 H         1 YSL         0.0293
     69 H36        20.9183  -25.5099  -23.7039 H         1 YSL         0.0293
     70 H37        20.0561  -23.8372  -25.0329 H         1 YSL         0.0270
     71 H38        21.4422  -23.9712  -26.1676 H         1 YSL         0.0270
     72 H39        21.3743  -27.2359  -22.7115 H         1 YSL         0.0219
     73 H40        21.0046  -30.3284  -22.9751 H         1 YSL         0.0219
     74 H41        20.8418  -31.5237  -21.0859 H         1 YSL         0.0490
     75 H42        19.3144  -30.9476  -20.3364 H         1 YSL         0.0490
     76 H43        20.7214  -31.6638  -18.5387 H         1 YSL         0.0819
     77 H44        22.7091  -31.5776  -19.7426 H         1 YSL         0.2139
     78 H45        19.9054  -28.7653  -16.5382 H         1 YSL         0.0077
     79 H46        20.0074  -30.6441  -16.6704 H         1 YSL         0.0077
     80 H47        22.0177  -28.0509  -19.0140 H         1 YSL         0.0819
     81 H48        19.4253  -27.3168  -18.0702 H         1 YSL         0.2139
     82 H49        19.2710  -27.9317  -20.2894 H         1 YSL         0.0490
     83 H50        20.8401  -27.3062  -20.9005 H         1 YSL         0.0490
@<TRIPOS>BOND
     1    1    2 1  
     2    2    3 1  
     3    3    4 1  
     4    4    5 1  
     5    4   11 1  
     6    5    6 1  
     7    6    7 1  
     8    7    8 1  
     9    8    9 1  
    10    9   10 1  
    11   11   12 1  
    12   11   13 1  
    13   13   14 1  
    14   13   22 1  
    15   14   15 1  
    16   14   16 1  
    17   14   20 1  
    18   16   17 1  
    19   17   18 1  
    20   18   19 1  
    21   19   20 1  
    22   19   23 2  
    23   20   21 1  
    24   21   22 1  
    25   23   24 1  
    26   24   25 2  
    27   25   26 1  
    28   25   33 1  
    29   26   27 1  
    30   27   28 1  
    31   27   29 1  
    32   29   30 2  
    33   29   31 1  
    34   31   32 1  
    35   31   33 1  
    36    1   34 1  
    37    2   35 1  
    38    2   36 1  
    39    3   37 1  
    40    3   38 1  
    41    4   39 1  
    42    5   40 1  
    43    5   41 1  
    44    6   42 1  
    45    6   43 1  
    46    7   44 1  
    47    7   45 1  
    48    8   46 1  
    49    8   47 1  
    50    9   48 1  
    51    9   49 1  
    52   10   50 1  
    53   10   51 1  
    54   10   52 1  
    55   11   53 1  
    56   12   54 1  
    57   12   55 1  
    58   12   56 1  
    59   13   57 1  
    60   15   58 1  
    61   15   59 1  
    62   15   60 1  
    63   16   61 1  
    64   16   62 1  
    65   17   63 1  
    66   17   64 1  
    67   18   65 1  
    68   18   66 1  
    69   20   67 1  
    70   21   68 1  
    71   21   69 1  
    72   22   70 1  
    73   22   71 1  
    74   23   72 1  
    75   24   73 1  
    76   26   74 1  
    77   26   75 1  
    78   27   76 1  
    79   28   77 1  
    80   30   78 1  
    81   30   79 1  
    82   31   80 1  
    83   32   81 1  
    84   33   82 1  
    85   33   83 1  
@<TRIPOS>SUBSTRUCTURE
     1 YSL         1

