### 
### Created by X-TOOL on Mon Sep 10 21:13:30 2018
### 

@<TRIPOS>MOLECULE
5ax3_ligand
   33    35     1     0     0
SMALL
GAST_HUCK


@<TRIPOS>ATOM
      1 O5'        14.5350   -5.4730  -21.0110 O.3       1 5ID        -0.3924
      2 C5'        14.6140   -5.1020  -19.6420 C.3       1 5ID         0.0730
      3 C4'        16.0220   -4.7270  -19.2520 C.3       1 5ID         0.1135
      4 O4'        16.0420   -4.2530  -17.8780 O.3       1 5ID        -0.3370
      5 C1'        17.2180   -4.6950  -17.2320 C.3       1 5ID         0.1971
      6 N9         16.8320   -5.6230  -16.1510 N.pl3     1 5ID        -0.2190
      7 C8         15.5630   -5.7720  -15.7050 C.2       1 5ID         0.0441
      8 C7         15.6450   -6.7120  -14.7050 C.2       1 5ID         0.0169
      9 C5         17.0270   -7.1620  -14.5220 C.ar      1 5ID         0.0529
     10 C6         17.6940   -8.0560  -13.7020 C.ar      1 5ID         0.1166
     11 N1         19.0280   -8.1880  -13.8500 N.ar      1 5ID        -0.2731
     12 C2         19.6780   -7.4650  -14.7730 C.ar      1 5ID         0.0503
     13 N3         19.0440   -6.5980  -15.5710 N.ar      1 5ID        -0.2765
     14 C4         17.7040   -6.4160  -15.4720 C.ar      1 5ID         0.1421
     15 N6         17.0230   -8.7780  -12.7720 N.pl3     1 5ID        -0.3158
     16 C2'        18.0890   -5.3750  -18.2850 C.3       1 5ID         0.1383
     17 O2'        18.9220   -4.3930  -18.8840 O.3       1 5ID        -0.3836
     18 C3'        17.0370   -5.8600  -19.2690 C.3       1 5ID         0.1146
     19 O3'        17.5510   -6.1250  -20.5610 O.3       1 5ID        -0.3864
     20 IAE        13.9880   -7.4380  -13.5540 I         1 5ID        -0.0795
     21 H1         15.1005   -6.2198  -21.1687 H         1 5ID         0.2095
     22 H2         14.2850   -5.9492  -19.0224 H         1 5ID         0.0584
     23 H3         13.9529   -4.2406  -19.4662 H         1 5ID         0.0584
     24 H4         16.3613   -3.9327  -19.9332 H         1 5ID         0.0647
     25 H5         17.7609   -3.8404  -16.8021 H         1 5ID         0.0994
     26 H6         14.6708   -5.2589  -16.0608 H         1 5ID         0.0985
     27 H7         20.7502   -7.5865  -14.8760 H         1 5ID         0.0976
     28 H8         17.5316   -9.4397  -12.1684 H         1 5ID         0.1825
     29 H9         16.0044   -8.6651  -12.6688 H         1 5ID         0.1825
     30 H10        18.6889   -6.2003  -17.8739 H         1 5ID         0.0676
     31 H11        19.4703   -4.8034  -19.5425 H         1 5ID         0.2101
     32 H12        16.5736   -6.7849  -18.8950 H         1 5ID         0.0648
     33 H13        16.8474   -6.4229  -21.1256 H         1 5ID         0.2100
@<TRIPOS>BOND
     1    1    2 1  
     2    2    3 1  
     3    3    4 1  
     4    3   18 1  
     5    4    5 1  
     6    5    6 1  
     7    5   16 1  
     8    6    7 1  
     9    6   14 1  
    10    7    8 2  
    11    8    9 1  
    12    8   20 1  
    13    9   10 ar 
    14    9   14 ar 
    15   10   11 ar 
    16   10   15 1  
    17   11   12 ar 
    18   12   13 ar 
    19   13   14 ar 
    20   16   17 1  
    21   16   18 1  
    22   18   19 1  
    23    1   21 1  
    24    2   22 1  
    25    2   23 1  
    26    3   24 1  
    27    5   25 1  
    28    7   26 1  
    29   12   27 1  
    30   15   28 1  
    31   15   29 1  
    32   16   30 1  
    33   17   31 1  
    34   18   32 1  
    35   19   33 1  
@<TRIPOS>SUBSTRUCTURE
     1 5ID         1

