### 
### Created by X-TOOL on Mon Sep 10 21:13:29 2018
### 

@<TRIPOS>MOLECULE
5ax9_ligand
   55    58     1     0     0
SMALL
GAST_HUCK


@<TRIPOS>ATOM
      1 C14       -13.4470  -56.1860  -28.4730 C.ar      1 4KT        -0.0614
      2 C16       -14.1960  -57.0360  -29.3120 C.ar      1 4KT        -0.0614
      3 C17       -15.2130  -57.8880  -28.8150 C.ar      1 4KT         0.0594
      4 C22       -16.4510  -61.0290  -30.8500 C.3       1 4KT         0.0666
      5 C21       -18.0460  -59.4400  -30.9600 C.3       1 4KT         0.0666
      6 C20       -15.6850  -60.1890  -29.7490 C.3       1 4KT         0.0461
      7 C19       -15.4330  -57.8570  -27.4110 C.ar      1 4KT         0.1001
      8 C18       -14.6680  -57.0120  -26.5930 C.ar      1 4KT        -0.0212
      9 C3         -6.8530  -53.9130  -31.1100 C.ar      1 4KT        -0.0333
     10 C2         -7.3870  -53.4370  -28.8630 C.ar      1 4KT        -0.0235
     11 C4         -8.7330  -53.8620  -28.9580 C.ar      1 4KT         0.0304
     12 C5         -8.1900  -54.3400  -31.2830 C.ar      1 4KT        -0.0174
     13 C11       -10.3540  -52.6490  -25.7070 C.ar      1 4KT        -0.0063
     14 C9        -11.6940  -54.4370  -26.4280 C.ar      1 4KT         0.1250
     15 C8         -9.6740  -53.7610  -27.7640 C.ar      1 4KT        -0.0120
     16 C24       -16.8190  -58.4330  -25.4810 C.3       1 4KT         0.0563
     17 C6         -9.1540  -54.3280  -30.2620 C.ar      1 4KT         0.1147
     18 C1         -6.3880  -53.4310  -29.8680 C.ar      1 4KT         0.0869
     19 C7        -10.7920  -54.5910  -27.5590 C.ar      1 4KT        -0.0094
     20 N1        -11.4310  -53.4530  -25.5130 N.ar      1 4KT        -0.2866
     21 C10        -9.4780  -52.7680  -26.7930 C.ar      1 4KT        -0.0436
     22 C12        -5.0120  -52.9650  -29.6150 C.1       1 4KT         0.0899
     23 O1        -10.4600  -54.7760  -30.5180 O.3       1 4KT        -0.3106
     24 C13       -10.8570  -55.2960  -31.7860 C.3       1 4KT         0.0632
     25 C15       -13.6570  -56.1460  -27.0650 C.ar      1 4KT         0.0395
     26 O2        -16.4180  -58.6780  -26.8440 O.3       1 4KT        -0.3295
     27 N2        -15.9560  -58.7530  -29.6820 N.pl3     1 4KT        -0.3136
     28 O3        -17.1290  -60.1840  -31.7530 O.3       1 4KT        -0.3760
     29 C23       -17.3590  -58.4660  -29.9380 C.3       1 4KT         0.0461
     30 N3        -12.8600  -55.2630  -26.1930 N.pl3     1 4KT        -0.2706
     31 N4         -3.9300  -52.5930  -29.3850 N.1       1 4KT        -0.3368
     32 H1        -12.6905  -55.5453  -28.9116 H         1 4KT         0.0409
     33 H2        -13.9863  -57.0378  -30.3755 H         1 4KT         0.0455
     34 H3        -17.1813  -61.6869  -30.3563 H         1 4KT         0.0579
     35 H4        -15.7244  -61.6397  -31.4060 H         1 4KT         0.0579
     36 H5        -18.6709  -60.1486  -30.3966 H         1 4KT         0.0579
     37 H6        -18.6815  -58.8447  -31.6321 H         1 4KT         0.0579
     38 H7        -14.6073  -60.3122  -29.9318 H         1 4KT         0.0528
     39 H8        -15.9422  -60.6184  -28.7695 H         1 4KT         0.0528
     40 H9        -14.8661  -57.0246  -25.5273 H         1 4KT         0.0422
     41 H10        -6.1699  -53.9570  -31.9505 H         1 4KT         0.0706
     42 H11        -7.0788  -53.0666  -27.8920 H         1 4KT         0.0716
     43 H12        -8.4884  -54.6978  -32.2618 H         1 4KT         0.0575
     44 H13       -10.1611  -51.8696  -24.9787 H         1 4KT         0.0772
     45 H14       -17.5935  -59.1582  -25.1907 H         1 4KT         0.0572
     46 H15       -17.2212  -57.4128  -25.3948 H         1 4KT         0.0572
     47 H16       -15.9483  -58.5412  -24.8175 H         1 4KT         0.0572
     48 H17       -10.9898  -55.3800  -28.2756 H         1 4KT         0.0599
     49 H18        -8.6403  -52.0861  -26.8841 H         1 4KT         0.0588
     50 H19       -11.9187  -55.5812  -31.7492 H         1 4KT         0.0585
     51 H20       -10.2481  -56.1799  -32.0268 H         1 4KT         0.0585
     52 H21       -10.7104  -54.5278  -32.5596 H         1 4KT         0.0585
     53 H22       -17.9025  -58.5298  -28.9838 H         1 4KT         0.0528
     54 H23       -17.4336  -57.4428  -30.3349 H         1 4KT         0.0528
     55 H24       -13.2013  -55.2265  -25.2219 H         1 4KT         0.2086
@<TRIPOS>BOND
     1    1    2 ar 
     2   25    1 ar 
     3    2    3 ar 
     4    7    3 ar 
     5    3   27 1  
     6    6    4 1  
     7    4   28 1  
     8   28    5 1  
     9    5   29 1  
    10   27    6 1  
    11    8    7 ar 
    12    7   26 1  
    13   25    8 ar 
    14   12    9 ar 
    15   18    9 ar 
    16   11   10 ar 
    17   10   18 ar 
    18   15   11 1  
    19   11   17 ar 
    20   17   12 ar 
    21   20   13 ar 
    22   13   21 ar 
    23   14   19 ar 
    24   14   20 ar 
    25   30   14 1  
    26   19   15 ar 
    27   15   21 ar 
    28   26   16 1  
    29   17   23 1  
    30   18   22 1  
    31   22   31 3  
    32   23   24 1  
    33   25   30 1  
    34   27   29 1  
    35    1   32 1  
    36    2   33 1  
    37    4   34 1  
    38    4   35 1  
    39    5   36 1  
    40    5   37 1  
    41    6   38 1  
    42    6   39 1  
    43    8   40 1  
    44    9   41 1  
    45   10   42 1  
    46   12   43 1  
    47   13   44 1  
    48   16   45 1  
    49   16   46 1  
    50   16   47 1  
    51   19   48 1  
    52   21   49 1  
    53   24   50 1  
    54   24   51 1  
    55   24   52 1  
    56   29   53 1  
    57   29   54 1  
    58   30   55 1  
@<TRIPOS>SUBSTRUCTURE
     1 4KT         1

