### 
### Created by X-TOOL on Mon Sep 10 21:13:23 2018
### 

@<TRIPOS>MOLECULE
5axp_ligand
   51    55     1     0     0
SMALL
GAST_HUCK


@<TRIPOS>ATOM
      1 C25         9.5540    1.8700  -20.2790 C.ar      1 4LK        -0.0687
      2 C24         8.3050    1.7530  -19.7020 C.ar      1 4LK        -0.0658
      3 C26        10.5310    0.9360  -20.0080 C.ar      1 4LK        -0.0658
      4 C23         8.0270    0.7080  -18.8500 C.ar      1 4LK        -0.0257
      5 C27        10.2660   -0.1160  -19.1600 C.ar      1 4LK        -0.0257
      6 C5          9.8370   -0.5160  -23.5650 C.ar      1 4LK        -0.0494
      7 C6          8.9460   -0.9290  -22.5950 C.ar      1 4LK        -0.0414
      8 C18         7.8060   -3.0090  -16.7870 C.2       1 4LK        -0.0379
      9 C3          9.6790   -2.6450  -24.6020 C.ar      1 4LK        -0.0119
     10 C19         8.5950   -2.2700  -15.8780 C.2       1 4LK        -0.0034
     11 C22         9.0150   -0.2140  -18.5920 C.ar      1 4LK         0.1104
     12 C4         10.2210   -1.3790  -24.5730 C.ar      1 4LK         0.0622
     13 C13         8.4100   -2.2020  -22.5960 C.ar      1 4LK         0.1294
     14 C2          8.7980   -3.0460  -23.6180 C.ar      1 4LK         0.1537
     15 C17         7.9200   -2.3390  -17.9840 C.2       1 4LK         0.1256
     16 C28         6.3550   -3.2900  -21.7030 C.2       1 4LK         0.1060
     17 C16         7.3760   -2.6400  -19.2670 C.2       1 4LK         0.1564
     18 C29         5.5650   -3.6960  -20.6990 C.2       1 4LK         0.1560
     19 C32         6.0670   -3.3630  -19.3490 C.2       1 4LK         0.1665
     20 C11        11.8780   -1.7810  -26.3760 C.2       1 4LK         0.3510
     21 C8         11.5930    0.4080  -25.6230 C.3       1 4LK         0.0838
     22 C9         12.7140    0.3350  -26.6340 C.3       1 4LK         0.1028
     23 C31         4.1190   -4.7940  -22.1360 C.3       1 4LK         0.0539
     24 N20         9.1770   -1.2190  -16.4600 N.2       1 4LK        -0.2057
     25 N15         8.0540   -2.3110  -20.3250 N.2       1 4LK        -0.1461
     26 N21         8.7480   -1.2810  -17.7310 N.pl3     1 4LK        -0.1575
     27 N14         7.5490   -2.6200  -21.5460 N.pl3     1 4LK        -0.1528
     28 N7         11.1410   -0.9530  -25.5610 N.am      1 4LK        -0.1975
     29 O33         5.4760   -3.6600  -18.3200 O.2       1 4LK        -0.4172
     30 O12        11.7580   -2.9880  -26.5230 O.2       1 4LK        -0.3675
     31 O10        12.8120   -1.0310  -27.0450 O.3       1 4LK        -0.2566
     32 O30         4.3600   -4.3810  -20.7830 O.3       1 4LK        -0.3294
     33 F1          8.3160   -4.2940  -23.6600 F         1 4LK        -0.1903
     34 H1          9.7666    2.6976  -20.9461 H         1 4LK         0.0558
     35 H2          7.5391    2.4881  -19.9211 H         1 4LK         0.0600
     36 H3         11.5101    1.0299  -20.4635 H         1 4LK         0.0600
     37 H4          7.0492    0.6135  -18.3916 H         1 4LK         0.0586
     38 H5         11.0291   -0.8547  -18.9431 H         1 4LK         0.0586
     39 H6         10.2375    0.4909  -23.5356 H         1 4LK         0.0454
     40 H7          8.6595   -0.2362  -21.8120 H         1 4LK         0.0527
     41 H8          7.2323   -3.9123  -16.5848 H         1 4LK         0.0361
     42 H9          9.9452   -3.3285  -25.4001 H         1 4LK         0.0470
     43 H10         8.7144   -2.5272  -14.8266 H         1 4LK         0.0668
     44 H11         6.0287   -3.5059  -22.7193 H         1 4LK         0.0978
     45 H12        10.7910    1.0779  -25.9665 H         1 4LK         0.0609
     46 H13        11.9618    0.7492  -24.6445 H         1 4LK         0.0609
     47 H14        13.6592    0.6611  -26.1755 H         1 4LK         0.0637
     48 H15        12.4860    0.9751  -27.4990 H         1 4LK         0.0637
     49 H16         3.1627   -5.3349  -22.1894 H         1 4LK         0.0568
     50 H17         4.9331   -5.4550  -22.4682 H         1 4LK         0.0568
     51 H18         4.0764   -3.9088  -22.7876 H         1 4LK         0.0568
@<TRIPOS>BOND
     1    2    1 ar 
     2    3    1 ar 
     3    4    2 ar 
     4    5    3 ar 
     5   11    4 ar 
     6   11    5 ar 
     7    6    7 ar 
     8   12    6 ar 
     9    7   13 ar 
    10    8   10 1  
    11   15    8 2  
    12   12    9 ar 
    13    9   14 ar 
    14   10   24 2  
    15   26   11 1  
    16   28   12 1  
    17   14   13 ar 
    18   13   27 1  
    19   14   33 1  
    20   17   15 1  
    21   15   26 1  
    22   16   18 2  
    23   27   16 1  
    24   19   17 1  
    25   17   25 2  
    26   18   19 1  
    27   18   32 1  
    28   19   29 2  
    29   28   20 am 
    30   20   30 2  
    31   20   31 1  
    32   21   22 1  
    33   21   28 1  
    34   22   31 1  
    35   32   23 1  
    36   24   26 1  
    37   25   27 1  
    38    1   34 1  
    39    2   35 1  
    40    3   36 1  
    41    4   37 1  
    42    5   38 1  
    43    6   39 1  
    44    7   40 1  
    45    8   41 1  
    46    9   42 1  
    47   10   43 1  
    48   16   44 1  
    49   21   45 1  
    50   21   46 1  
    51   22   47 1  
    52   22   48 1  
    53   23   49 1  
    54   23   50 1  
    55   23   51 1  
@<TRIPOS>SUBSTRUCTURE
     1 4LK         1

