### 
### Created by X-TOOL on Mon Sep 10 21:13:22 2018
### 

@<TRIPOS>MOLECULE
5axq_ligand
   63    68     1     0     0
SMALL
GAST_HUCK


@<TRIPOS>ATOM
      1 C33        15.2680    1.7850   20.4900 C.ar      1 4LP        -0.0686
      2 C32        14.3470    0.7660   20.3710 C.ar      1 4LP        -0.0658
      3 C34        16.4340    1.7680   19.7540 C.ar      1 4LP        -0.0658
      4 C31        14.5870   -0.2780   19.5040 C.ar      1 4LP        -0.0257
      5 C35        16.6860    0.7280   18.8840 C.ar      1 4LP        -0.0257
      6 C21        15.5580   -0.5490   23.8850 C.ar      1 4LP        -0.0140
      7 C22        16.2270   -1.0320   22.7780 C.ar      1 4LP        -0.0108
      8 C26        16.9560   -3.0030   16.8560 C.2       1 4LP        -0.0377
      9 C27        16.1000   -2.2770   15.9960 C.2       1 4LP        -0.0032
     10 C9         15.9340   -2.6800   24.9520 C.ar      1 4LP         0.0008
     11 C30        15.7550   -0.2800   18.7740 C.ar      1 4LP         0.1105
     12 C20        15.4380   -1.4080   24.9530 C.ar      1 4LP         0.0908
     13 C6         16.7490   -2.3120   22.7480 C.ar      1 4LP         0.1569
     14 C7         16.5980   -3.1430   23.8440 C.ar      1 4LP         0.1757
     15 C25        16.8790   -2.3630   18.0710 C.2       1 4LP         0.1260
     16 C4         18.6430   -3.3710   21.6840 C.2       1 4LP         0.1073
     17 C24        17.4940   -2.6790   19.3250 C.2       1 4LP         0.1570
     18 C3         19.3800   -3.7550   20.6390 C.2       1 4LP         0.1565
     19 C36        18.8080   -3.3990   19.3300 C.2       1 4LP         0.1672
     20 C13        14.9170   -2.2850   27.0070 C.2       1 4LP         0.2057
     21 C17        11.7770   -1.0060   26.8010 C.3       1 4LP        -0.0474
     22 C18        11.5580    0.4750   26.6960 C.3       1 4LP        -0.0474
     23 C16        12.6750   -0.1690   25.9300 C.3       1 4LP        -0.0137
     24 C10        15.6530   -3.3680   26.2480 C.3       1 4LP         0.0246
     25 C11        16.9200   -3.7740   26.9800 C.3       1 4LP        -0.0905
     26 C12        14.7400   -4.5610   26.0780 C.3       1 4LP        -0.0905
     27 C1         20.8790   -4.8070   22.0070 C.3       1 4LP         0.0540
     28 C15        14.0650    0.0270   26.4170 C.3       1 4LP         0.0651
     29 N28        15.5110   -1.2570   16.6320 N.2       1 4LP        -0.2055
     30 N23        16.8760   -2.3610   20.4190 N.2       1 4LP        -0.1449
     31 N29        15.9970   -1.3330   17.8850 N.pl3     1 4LP        -0.1573
     32 N5         17.4500   -2.7080   21.5990 N.pl3     1 4LP        -0.1455
     33 N14        14.8230   -1.1760   26.1740 N.am      1 4LP        -0.2097
     34 O37        19.3740   -3.6740   18.2810 O.2       1 4LP        -0.4165
     35 O19        14.4890   -2.4070   28.1470 O.2       1 4LP        -0.3221
     36 O2         20.5860   -4.4320   20.6600 O.3       1 4LP        -0.3292
     37 F8         17.0950   -4.3860   23.8480 F         1 4LP        -0.1711
     38 H1         15.0737    2.6076   21.1687 H         1 4LP         0.0558
     39 H2         13.4360    0.7859   20.9582 H         1 4LP         0.0600
     40 H3         17.1529    2.5725   19.8593 H         1 4LP         0.0600
     41 H4         13.8692   -1.0834   19.3984 H         1 4LP         0.0586
     42 H5         17.5983    0.7048   18.2989 H         1 4LP         0.0586
     43 H6         15.1487    0.4544   23.9113 H         1 4LP         0.0551
     44 H7         16.3459   -0.3920   21.9112 H         1 4LP         0.0781
     45 H8         17.5498   -3.8818   16.6089 H         1 4LP         0.0362
     46 H9         15.9398   -2.5179   14.9461 H         1 4LP         0.0668
     47 H10        19.0203   -3.6032   22.6788 H         1 4LP         0.0980
     48 H11        11.0592   -1.7024   26.3429 H         1 4LP         0.0269
     49 H12        12.1646   -1.4403   27.7344 H         1 4LP         0.0269
     50 H13        11.7838    1.1259   27.5535 H         1 4LP         0.0269
     51 H14        10.6784    0.8638   26.1620 H         1 4LP         0.0269
     52 H15        12.6447   -0.2385   24.8326 H         1 4LP         0.0327
     53 H16        17.4365   -4.5605   26.4103 H         1 4LP         0.0084
     54 H17        16.6604   -4.1551   27.9787 H         1 4LP         0.0084
     55 H18        17.5809   -2.9005   27.0812 H         1 4LP         0.0084
     56 H19        13.8277   -4.2518   25.5469 H         1 4LP         0.0084
     57 H20        14.4709   -4.9607   27.0668 H         1 4LP         0.0084
     58 H21        15.2570   -5.3385   25.4965 H         1 4LP         0.0084
     59 H22        21.8369   -5.3469   22.0372 H         1 4LP         0.0569
     60 H23        20.0789   -5.4583   22.3886 H         1 4LP         0.0569
     61 H24        20.9469   -3.9046   22.6324 H         1 4LP         0.0569
     62 H25        14.0508    0.2420   27.4957 H         1 4LP         0.0611
     63 H26        14.5280    0.8688   25.8813 H         1 4LP         0.0611
@<TRIPOS>BOND
     1    2    1 ar 
     2    3    1 ar 
     3    4    2 ar 
     4    5    3 ar 
     5   11    4 ar 
     6   11    5 ar 
     7    6    7 ar 
     8   12    6 ar 
     9    7   13 ar 
    10    8    9 1  
    11   15    8 2  
    12    9   29 2  
    13   12   10 ar 
    14   10   14 ar 
    15   24   10 1  
    16   31   11 1  
    17   33   12 1  
    18   14   13 ar 
    19   13   32 1  
    20   14   37 1  
    21   17   15 1  
    22   15   31 1  
    23   16   18 2  
    24   32   16 1  
    25   19   17 1  
    26   17   30 2  
    27   18   19 1  
    28   18   36 1  
    29   19   34 2  
    30   20   24 1  
    31   33   20 am 
    32   20   35 2  
    33   22   21 1  
    34   23   21 1  
    35   23   22 1  
    36   28   23 1  
    37   24   25 1  
    38   24   26 1  
    39   36   27 1  
    40   28   33 1  
    41   29   31 1  
    42   30   32 1  
    43    1   38 1  
    44    2   39 1  
    45    3   40 1  
    46    4   41 1  
    47    5   42 1  
    48    6   43 1  
    49    7   44 1  
    50    8   45 1  
    51    9   46 1  
    52   16   47 1  
    53   21   48 1  
    54   21   49 1  
    55   22   50 1  
    56   22   51 1  
    57   23   52 1  
    58   25   53 1  
    59   25   54 1  
    60   25   55 1  
    61   26   56 1  
    62   26   57 1  
    63   26   58 1  
    64   27   59 1  
    65   27   60 1  
    66   27   61 1  
    67   28   62 1  
    68   28   63 1  
@<TRIPOS>SUBSTRUCTURE
     1 4LP         1

