### 
### Created by X-TOOL on Mon Sep 10 21:13:28 2018
### 

@<TRIPOS>MOLECULE
5ayf_ligand
   44    47     1     0     0
SMALL
GAST_HUCK


@<TRIPOS>ATOM
      1 N          33.9240   -3.5310   15.5490 N.4       1 C7H         0.2368
      2 C17        36.2760   -3.7720   14.9930 C.3       1 C7H         0.0254
      3 C18        35.2780   -3.1700   15.9720 C.3       1 C7H        -0.0198
      4 C21        32.9430   -2.7350   16.3010 C.3       1 C7H        -0.0427
      5 C19        33.7480   -4.9610   15.8350 C.3       1 C7H        -0.0198
      6 C20        34.6540   -5.7690   14.9010 C.3       1 C7H         0.0254
      7 C16        36.0930   -5.2700   14.8910 C.2       1 C7H        -0.0368
      8 C5         37.1570   -6.1090   14.7800 C.2       1 C7H        -0.0204
      9 C13        38.5710   -5.5950   14.7620 C.ar      1 C7H        -0.0282
     10 C4         39.0190   -4.7680   13.7280 C.ar      1 C7H        -0.0622
     11 C3         40.3170   -4.2830   13.7050 C.ar      1 C7H        -0.0685
     12 C2         41.1920   -4.6440   14.7180 C.ar      1 C7H        -0.0676
     13 C1         40.7610   -5.4840   15.7410 C.ar      1 C7H        -0.0596
     14 C12        39.4580   -5.9690   15.7620 C.ar      1 C7H        -0.0222
     15 C11        39.0740   -6.8560   16.8900 C.2       1 C7H        -0.0532
     16 C10        38.2630   -7.9150   16.8280 C.2       1 C7H        -0.0532
     17 C15        37.5450   -8.4340   15.6360 C.ar      1 C7H        -0.0222
     18 C14        37.0000   -7.6020   14.6660 C.ar      1 C7H        -0.0282
     19 C6         36.3370   -8.1650   13.5690 C.ar      1 C7H        -0.0622
     20 C7         36.1860   -9.5410   13.4600 C.ar      1 C7H        -0.0685
     21 C8         36.7200  -10.3640   14.4440 C.ar      1 C7H        -0.0676
     22 C9         37.3910   -9.8120   15.5280 C.ar      1 C7H        -0.0596
     23 H1         33.8111   -3.3601   14.5620 H         1 C7H         0.2035
     24 H2         37.2970   -3.5565   15.3409 H         1 C7H         0.0524
     25 H3         36.1240   -3.3220   14.0009 H         1 C7H         0.0524
     26 H4         35.4671   -3.5640   16.9814 H         1 C7H         0.0845
     27 H5         35.3830   -2.0751   15.9801 H         1 C7H         0.0845
     28 H6         31.9266   -3.0083   15.9812 H         1 C7H         0.0778
     29 H7         33.1131   -1.6656   16.1077 H         1 C7H         0.0778
     30 H8         33.0552   -2.9356   17.3767 H         1 C7H         0.0778
     31 H9         32.6984   -5.2446   15.6677 H         1 C7H         0.0845
     32 H10        34.0206   -5.1646   16.8810 H         1 C7H         0.0845
     33 H11        34.2527   -5.7025   13.8790 H         1 C7H         0.0524
     34 H12        34.6492   -6.8188   15.2293 H         1 C7H         0.0524
     35 H13        38.3377   -4.5007   12.9283 H         1 C7H         0.0549
     36 H14        40.6442   -3.6293   12.9046 H         1 C7H         0.0606
     37 H15        42.2104   -4.2727   14.7134 H         1 C7H         0.0564
     38 H16        41.4493   -5.7633   16.5305 H         1 C7H         0.0598
     39 H17        39.4963   -6.6188   17.8654 H         1 C7H         0.0636
     40 H18        38.1106   -8.4606   17.7580 H         1 C7H         0.0636
     41 H19        35.9369   -7.5192   12.7957 H         1 C7H         0.0549
     42 H20        35.6570   -9.9687   12.6160 H         1 C7H         0.0606
     43 H21        36.6127  -11.4398   14.3656 H         1 C7H         0.0564
     44 H22        37.7977  -10.4604   16.2956 H         1 C7H         0.0598
@<TRIPOS>BOND
     1    1    3 1  
     2    1    4 1  
     3    1    5 1  
     4    3    2 1  
     5    2    7 1  
     6    5    6 1  
     7    6    7 1  
     8    7    8 2  
     9    8    9 1  
    10    8   18 1  
    11    9   10 ar 
    12    9   14 ar 
    13   10   11 ar 
    14   11   12 ar 
    15   12   13 ar 
    16   13   14 ar 
    17   14   15 1  
    18   15   16 2  
    19   16   17 1  
    20   17   18 ar 
    21   17   22 ar 
    22   18   19 ar 
    23   19   20 ar 
    24   20   21 ar 
    25   21   22 ar 
    26    1   23 1  
    27    2   24 1  
    28    2   25 1  
    29    3   26 1  
    30    3   27 1  
    31    4   28 1  
    32    4   29 1  
    33    4   30 1  
    34    5   31 1  
    35    5   32 1  
    36    6   33 1  
    37    6   34 1  
    38   10   35 1  
    39   11   36 1  
    40   12   37 1  
    41   13   38 1  
    42   15   39 1  
    43   16   40 1  
    44   19   41 1  
    45   20   42 1  
    46   21   43 1  
    47   22   44 1  
@<TRIPOS>SUBSTRUCTURE
     1 C7H         1

