### 
### Created by X-TOOL on Mon Sep 10 21:13:28 2018
### 

@<TRIPOS>MOLECULE
5ayt_ligand
   35    38     1     0     0
SMALL
GAST_HUCK


@<TRIPOS>ATOM
      1 OAO       -20.4280   -0.9070   -2.2840 O.2       1 L6Y        -0.3733
      2 CAN       -21.4000   -0.2710   -2.7120 C.2       1 L6Y         0.2643
      3 NAM       -22.2730    0.2780   -1.8430 N.am      1 L6Y        -0.0520
      4 OAX       -22.0730    0.1090   -0.4490 O.3       1 L6Y        -0.2431
      5 CAK       -23.3510    0.9750   -2.2810 C.2       1 L6Y         0.2614
      6 OAL       -24.1300    1.4620   -1.4690 O.2       1 L6Y        -0.3752
      7 CAJ       -23.5880    1.1440   -3.6420 C.ar      1 L6Y         0.0673
      8 CAI       -24.6890    1.8740   -4.0760 C.ar      1 L6Y        -0.0380
      9 CAH       -24.9050    2.0320   -5.4410 C.ar      1 L6Y        -0.0516
     10 CAG       -24.0230    1.4840   -6.3620 C.ar      1 L6Y        -0.0445
     11 CAF       -22.9200    0.7600   -5.9190 C.ar      1 L6Y         0.0087
     12 CAE       -22.6980    0.6030   -4.5530 C.ar      1 L6Y         0.0228
     13 CAD       -21.6030   -0.1160   -4.0870 C.ar      1 L6Y         0.0710
     14 CAC       -20.7150   -0.6710   -5.0000 C.ar      1 L6Y        -0.0322
     15 CAB       -20.9230   -0.4990   -6.3770 C.ar      1 L6Y        -0.0340
     16 CAA       -22.0380    0.2050   -6.8380 C.ar      1 L6Y         0.0474
     17 CAP       -22.2860    0.4140   -8.2010 C.2       1 L6Y         0.1638
     18 OAQ       -22.7250    1.4910   -8.5910 O.2       1 L6Y        -0.3661
     19 CAR       -21.9830   -0.5860   -9.1280 C.ar      1 L6Y         0.0346
     20 CAS       -22.2550   -1.9230   -8.8780 C.ar      1 L6Y        -0.0434
     21 CAT       -21.9420   -2.8660   -9.8590 C.ar      1 L6Y        -0.0561
     22 CAU       -21.3750   -2.4730  -11.0730 C.ar      1 L6Y        -0.0574
     23 CAV       -21.1250   -1.1270  -11.3130 C.ar      1 L6Y        -0.0561
     24 CAW       -21.4290   -0.1920  -10.3380 C.ar      1 L6Y        -0.0434
     25 H1        -22.7672    0.5514    0.0253 H         1 L6Y         0.2560
     26 H2        -25.3714    2.3151   -3.3585 H         1 L6Y         0.0700
     27 H3        -25.7688    2.5874   -5.7881 H         1 L6Y         0.0645
     28 H4        -24.1929    1.6196   -7.4240 H         1 L6Y         0.0682
     29 H5        -19.8604   -1.2376   -4.6482 H         1 L6Y         0.0712
     30 H6        -20.2156   -0.9141   -7.0858 H         1 L6Y         0.0701
     31 H7        -22.7019   -2.2298   -7.9393 H         1 L6Y         0.0669
     32 H8        -22.1415   -3.9156   -9.6760 H         1 L6Y         0.0630
     33 H9        -21.1308   -3.2145  -11.8251 H         1 L6Y         0.0654
     34 H10       -20.6951   -0.8115  -12.2568 H         1 L6Y         0.0630
     35 H11       -21.2324    0.8581  -10.5216 H         1 L6Y         0.0669
@<TRIPOS>BOND
     1    1    2 2  
     2    2    3 am 
     3    2   13 1  
     4    3    4 1  
     5    3    5 am 
     6    5    6 2  
     7    5    7 1  
     8    7    8 ar 
     9    7   12 ar 
    10    8    9 ar 
    11    9   10 ar 
    12   10   11 ar 
    13   11   12 ar 
    14   11   16 ar 
    15   12   13 ar 
    16   13   14 ar 
    17   14   15 ar 
    18   15   16 ar 
    19   16   17 1  
    20   17   18 2  
    21   17   19 1  
    22   19   20 ar 
    23   19   24 ar 
    24   20   21 ar 
    25   21   22 ar 
    26   22   23 ar 
    27   23   24 ar 
    28    4   25 1  
    29    8   26 1  
    30    9   27 1  
    31   10   28 1  
    32   14   29 1  
    33   15   30 1  
    34   20   31 1  
    35   21   32 1  
    36   22   33 1  
    37   23   34 1  
    38   24   35 1  
@<TRIPOS>SUBSTRUCTURE
     1 L6Y         1

