### 
### Created by X-TOOL on Mon Sep 10 21:13:29 2018
### 

@<TRIPOS>MOLECULE
5ayy_ligand
   15    15     1     0     0
SMALL
GAST_HUCK


@<TRIPOS>ATOM
      1 N1        109.2750   43.5000   13.4170 N.ar      1 NTM        -0.2780
      2 C2        108.4720   42.4800   13.0940 C.ar      1 NTM         0.0967
      3 C3        108.8040   41.7220   11.8710 C.ar      1 NTM         0.0521
      4 C4        109.9160   42.0860   11.1130 C.ar      1 NTM        -0.0247
      5 C5        110.6940   43.1550   11.4990 C.ar      1 NTM        -0.0279
      6 C6        110.3460   43.8400   12.6560 C.ar      1 NTM         0.0173
      7 C7        107.3050   42.1570   13.9530 C.2       1 NTM         0.0837
      8 O1        107.4910   41.5430   15.0200 O.co2     1 NTM        -0.5565
      9 O2        106.1870   42.5140   13.5550 O.co2     1 NTM        -0.5565
     10 C8        107.9940   40.5500   11.4240 C.2       1 NTM         0.0729
     11 O3        107.5290   39.7630   12.2660 O.co2     1 NTM        -0.5579
     12 O4        107.8410   40.3470   10.2050 O.co2     1 NTM        -0.5579
     13 H1        110.1685   41.5272   10.2191 H         1 NTM         0.0778
     14 H2        111.5564   43.4542   10.9144 H         1 NTM         0.0737
     15 H3        110.9556   44.6817   12.9642 H         1 NTM         0.0854
@<TRIPOS>BOND
     1    1    2 ar 
     2    1    6 ar 
     3    2    3 ar 
     4    2    7 1  
     5    3    4 ar 
     6    3   10 1  
     7    4    5 ar 
     8    5    6 ar 
     9    7    8 ar 
    10    7    9 ar 
    11   10   11 ar 
    12   10   12 ar 
    13    4   13 1  
    14    5   14 1  
    15    6   15 1  
@<TRIPOS>SUBSTRUCTURE
     1 NTM         1

