### 
### Created by X-TOOL on Mon Sep 10 21:13:24 2018
### 

@<TRIPOS>MOLECULE
5azf_ligand
   76    77     1     0     0
SMALL
GAST_HUCK


@<TRIPOS>ATOM
      1 N         -24.8030   24.5270   -2.5940 N.4       1 TRP         0.2388
      2 CA        -24.1740   23.4950   -3.4610 C.3       1 TRP         0.0691
      3 C         -22.8020   23.0870   -2.9620 C.2       1 TRP         0.2280
      4 O         -22.0010   23.9270   -2.5620 O.2       1 TRP        -0.3906
      5 CB        -24.0270   24.0070   -4.8980 C.3       1 TRP         0.0245
      6 CG        -25.3190   24.2690   -5.5780 C.2       1 TRP        -0.0386
      7 CD1       -25.9470   25.4720   -5.7200 C.2       1 TRP         0.0168
      8 CD2       -26.1820   23.2900   -6.1600 C.ar      1 TRP        -0.0213
      9 NE1       -27.1530   25.3040   -6.3570 N.pl3     1 TRP        -0.2890
     10 CE2       -27.3210   23.9730   -6.6390 C.ar      1 TRP         0.0603
     11 CE3       -26.1030   21.8990   -6.3250 C.ar      1 TRP        -0.0747
     12 CZ2       -28.3810   23.3100   -7.2690 C.ar      1 TRP        -0.0443
     13 CZ3       -27.1550   21.2400   -6.9510 C.ar      1 TRP        -0.0792
     14 CH2       -28.2790   21.9480   -7.4160 C.ar      1 TRP        -0.0768
     15 N         -22.5340   21.7890   -2.9920 N.am      1 GLU        -0.2608
     16 CA        -21.2340   21.2780   -2.5860 C.3       1 GLU         0.1326
     17 C         -20.9890   19.9330   -3.2340 C.2       1 GLU         0.2040
     18 O         -21.9300   19.2210   -3.5810 O.2       1 GLU        -0.3944
     19 CB        -21.1310   21.1450   -1.0630 C.3       1 GLU        -0.0008
     20 CG        -22.0450   20.1140   -0.4360 C.3       1 GLU         0.0044
     21 CD        -21.7360   19.8960    1.0380 C.2       1 GLU         0.0350
     22 OE1       -20.8200   19.1060    1.3580 O.co2     1 GLU        -0.5690
     23 OE2       -22.4050   20.5290    1.8800 O.co2     1 GLU        -0.5690
     24 N         -19.7170   19.6020   -3.4210 N.am      1 GLU        -0.2636
     25 CA        -19.3310   18.3320   -4.0130 C.3       1 GLU         0.1324
     26 C         -19.7890   17.2330   -3.0560 C.2       1 GLU         0.2034
     27 O         -19.5560   17.3210   -1.8500 O.2       1 GLU        -0.3944
     28 CB        -17.8100   18.2950   -4.1780 C.3       1 GLU        -0.0008
     29 CG        -17.2500   17.0960   -4.9240 C.3       1 GLU         0.0044
     30 CD        -17.6770   17.0510   -6.3780 C.2       1 GLU         0.0350
     31 OE1       -17.7680   18.1260   -7.0090 O.co2     1 GLU        -0.5690
     32 OE2       -17.9050   15.9360   -6.8960 O.co2     1 GLU        -0.5690
     33 N         -20.4540   16.2090   -3.5860 N.am      1 LEU        -0.2695
     34 CA        -20.9290   15.1100   -2.7550 C.3       1 LEU         0.0946
     35 C         -19.7530   14.3900   -2.1100 C.2       1 LEU         0.0601
     36 O         -19.8170   14.1320   -0.8890 O.co2     1 LEU        -0.5666
     37 CB        -21.7290   14.1040   -3.5850 C.3       1 LEU        -0.0156
     38 CG        -22.2700   12.9240   -2.7720 C.3       1 LEU        -0.0431
     39 CD1       -23.3710   13.4070   -1.8400 C.3       1 LEU        -0.0625
     40 CD2       -22.8030   11.8530   -3.7080 C.3       1 LEU        -0.0625
     41 OXT       -18.7900   14.0800   -2.8450 O.co2     1 LEU        -0.5666
     42 H1        -25.7101   24.7674   -2.9619 H         1 TRP         0.2016
     43 H2        -24.2202   25.3491   -2.5733 H         1 TRP         0.2016
     44 H3        -24.9051   24.1638   -1.6593 H         1 TRP         0.2016
     45 H4        -24.8247   22.6081   -3.4637 H         1 TRP         0.1114
     46 H5        -23.4762   23.2531   -5.4796 H         1 TRP         0.0430
     47 H6        -23.4517   24.9443   -4.8746 H         1 TRP         0.0430
     48 H7        -25.5501   26.4267   -5.3781 H         1 TRP         0.0795
     49 H8        -27.8207   26.0544   -6.5850 H         1 TRP         0.2216
     50 H9        -25.2386   21.3488   -5.9713 H         1 TRP         0.0540
     51 H10       -29.2494   23.8510   -7.6272 H         1 TRP         0.0541
     52 H11       -27.1089   20.1650   -7.0829 H         1 TRP         0.0510
     53 H12       -29.0827   21.4061   -7.9013 H         1 TRP         0.0530
     54 H13       -23.2386   21.1494   -3.2994 H         1 GLU         0.1885
     55 H14       -20.4610   21.9824   -2.9270 H         1 GLU         0.0801
     56 H15       -21.3696   22.1233   -0.6204 H         1 GLU         0.0330
     57 H16       -20.0941   20.8737   -0.8158 H         1 GLU         0.0330
     58 H17       -21.9218   19.1597   -0.9691 H         1 GLU         0.0433
     59 H18       -23.0857   20.4567   -0.5333 H         1 GLU         0.0433
     60 H19       -19.0029   20.2459   -3.1462 H         1 GLU         0.1883
     61 H20       -19.8132   18.2048   -4.9934 H         1 GLU         0.0801
     62 H21       -17.3621   18.3054   -3.1734 H         1 GLU         0.0330
     63 H22       -17.5085   19.2015   -4.7233 H         1 GLU         0.0330
     64 H23       -17.6002   16.1792   -4.4273 H         1 GLU         0.0433
     65 H24       -16.1516   17.1389   -4.8824 H         1 GLU         0.0433
     66 H25       -20.6305   16.1935   -4.5702 H         1 LEU         0.1875
     67 H26       -21.5775   15.5190   -1.9662 H         1 LEU         0.0726
     68 H27       -21.0749   13.7091   -4.3763 H         1 LEU         0.0308
     69 H28       -22.5804   14.6300   -4.0415 H         1 LEU         0.0308
     70 H29       -21.4536   12.4978   -2.1704 H         1 LEU         0.0297
     71 H30       -23.7573   12.5575   -1.2577 H         1 LEU         0.0232
     72 H31       -24.1868   13.8463   -2.4329 H         1 LEU         0.0232
     73 H32       -22.9651   14.1663   -1.1555 H         1 LEU         0.0232
     74 H33       -21.9963   11.5143   -4.3747 H         1 LEU         0.0232
     75 H34       -23.6256   12.2676   -4.3091 H         1 LEU         0.0232
     76 H35       -23.1729   11.0015   -3.1181 H         1 LEU         0.0232
@<TRIPOS>BOND
     1    1    2 1  
     2    2    3 1  
     3    2    5 1  
     4    3    4 2  
     5    3   15 am 
     6    5    6 1  
     7    6    7 2  
     8    6    8 1  
     9    7    9 1  
    10    8   10 ar 
    11    8   11 ar 
    12    9   10 1  
    13   10   12 ar 
    14   11   13 ar 
    15   12   14 ar 
    16   13   14 ar 
    17   15   16 1  
    18   16   17 1  
    19   16   19 1  
    20   17   18 2  
    21   17   24 am 
    22   19   20 1  
    23   20   21 1  
    24   21   22 ar 
    25   21   23 ar 
    26   24   25 1  
    27   25   26 1  
    28   25   28 1  
    29   26   27 2  
    30   26   33 am 
    31   28   29 1  
    32   29   30 1  
    33   30   31 ar 
    34   30   32 ar 
    35   33   34 1  
    36   34   35 1  
    37   34   37 1  
    38   35   36 ar 
    39   35   41 ar 
    40   37   38 1  
    41   38   39 1  
    42   38   40 1  
    43    1   42 1  
    44    1   43 1  
    45    1   44 1  
    46    2   45 1  
    47    5   46 1  
    48    5   47 1  
    49    7   48 1  
    50    9   49 1  
    51   11   50 1  
    52   12   51 1  
    53   13   52 1  
    54   14   53 1  
    55   15   54 1  
    56   16   55 1  
    57   19   56 1  
    58   19   57 1  
    59   20   58 1  
    60   20   59 1  
    61   24   60 1  
    62   25   61 1  
    63   28   62 1  
    64   28   63 1  
    65   29   64 1  
    66   29   65 1  
    67   33   66 1  
    68   34   67 1  
    69   37   68 1  
    70   37   69 1  
    71   38   70 1  
    72   39   71 1  
    73   39   72 1  
    74   39   73 1  
    75   40   74 1  
    76   40   75 1  
    77   40   76 1  
@<TRIPOS>SUBSTRUCTURE
     1 TRP         1

