### 
### Created by X-TOOL on Mon Sep 10 21:13:25 2018
### 

@<TRIPOS>MOLECULE
5azg_ligand
   88    89     1     0     0
SMALL
GAST_HUCK


@<TRIPOS>ATOM
      1 N           7.5190   30.9150   15.2310 N.4       1 ASP         0.2391
      2 CA          8.5660   30.9590   16.2880 C.3       1 ASP         0.0765
      3 C           8.8650   29.5360   16.7670 C.2       1 ASP         0.2285
      4 O           8.0060   28.6620   16.6930 O.2       1 ASP        -0.3906
      5 CB          8.0990   31.8320   17.4640 C.3       1 ASP         0.0607
      6 CG          9.1320   32.8730   17.8770 C.2       1 ASP         0.0425
      7 OD1         9.5770   33.6470   17.0050 O.co2     1 ASP        -0.5686
      8 OD2         9.4830   32.9350   19.0760 O.co2     1 ASP        -0.5686
      9 N          10.0760   29.3230   17.2730 N.am      1 PHE        -0.2591
     10 CA         10.5160   27.9990   17.7300 C.3       1 PHE         0.1406
     11 C           9.9150   27.6240   19.0800 C.2       1 PHE         0.2060
     12 O           9.7520   28.4730   19.9590 O.2       1 PHE        -0.3942
     13 CB         12.0400   27.9350   17.8440 C.3       1 PHE         0.0214
     14 CG         12.7450   27.9390   16.5270 C.ar      1 PHE        -0.0386
     15 CD1        13.0210   29.1370   15.8780 C.ar      1 PHE        -0.0601
     16 CD2        13.1390   26.7440   15.9300 C.ar      1 PHE        -0.0601
     17 CE1        13.6720   29.1470   14.6580 C.ar      1 PHE        -0.0686
     18 CE2        13.7920   26.7480   14.7070 C.ar      1 PHE        -0.0686
     19 CZ         14.0610   27.9550   14.0720 C.ar      1 PHE        -0.0687
     20 N           9.6100   26.3400   19.2370 N.am      1 THR        -0.2612
     21 CA          9.1480   25.7890   20.5030 C.3       1 THR         0.1565
     22 C          10.3370   25.1680   21.2300 C.2       1 THR         0.2066
     23 O          11.0440   24.3360   20.6660 O.2       1 THR        -0.3943
     24 CB          8.0550   24.7300   20.2770 C.3       1 THR         0.0924
     25 OG1         6.9300   25.3440   19.6290 O.3       1 THR        -0.3874
     26 CG2         7.6050   24.1120   21.6000 C.3       1 THR        -0.0346
     27 N          10.5470   25.5730   22.4810 N.am      1 PHE        -0.2619
     28 CA         11.6270   25.0340   23.3110 C.3       1 PHE         0.1404
     29 C          11.1440   23.7580   23.9880 C.2       1 PHE         0.2054
     30 O          10.0880   23.7640   24.6280 O.2       1 PHE        -0.3942
     31 CB         12.0570   26.0490   24.3810 C.3       1 PHE         0.0214
     32 CG         12.8340   27.2160   23.8400 C.ar      1 PHE        -0.0386
     33 CD1        12.1980   28.2200   23.1120 C.ar      1 PHE        -0.0601
     34 CD2        14.2040   27.3250   24.0670 C.ar      1 PHE        -0.0601
     35 CE1        12.9140   29.3010   22.6170 C.ar      1 PHE        -0.0686
     36 CE2        14.9250   28.4070   23.5720 C.ar      1 PHE        -0.0686
     37 CZ         14.2750   29.3930   22.8460 C.ar      1 PHE        -0.0687
     38 N          11.9060   22.6720   23.8420 N.am      1 LEU        -0.2693
     39 CA         11.6310   21.4130   24.5470 C.3       1 LEU         0.0946
     40 C          12.6380   21.1980   25.6810 C.2       1 LEU         0.0601
     41 O          12.5550   20.2320   26.4440 O.co2     1 LEU        -0.5666
     42 CB         11.6560   20.2320   23.5680 C.3       1 LEU        -0.0156
     43 CG         10.5630   20.2130   22.4910 C.3       1 LEU        -0.0431
     44 CD1        10.7660   19.0500   21.5340 C.3       1 LEU        -0.0625
     45 CD2         9.1690   20.1420   23.0990 C.3       1 LEU        -0.0625
     46 OXT        13.5630   21.9890   25.8740 O.co2     1 LEU        -0.5666
     47 H1          7.3213   31.8515   14.9148 H         1 ASP         0.2016
     48 H2          6.6793   30.5029   15.6067 H         1 ASP         0.2016
     49 H3          7.8474   30.3609   14.4556 H         1 ASP         0.2016
     50 H4          9.4835   31.3945   15.8655 H         1 ASP         0.1117
     51 H5          7.8944   31.1797   18.3257 H         1 ASP         0.0512
     52 H6          7.1752   32.3518   17.1700 H         1 ASP         0.0512
     53 H7         10.7103   30.0928   17.3449 H         1 PHE         0.1886
     54 H8         10.1876   27.2584   16.9859 H         1 PHE         0.0823
     55 H9         12.3091   27.0119   18.3783 H         1 PHE         0.0474
     56 H10        12.3812   28.8063   18.4223 H         1 PHE         0.0474
     57 H11        12.7224   30.0742   16.3336 H         1 PHE         0.0557
     58 H12        12.9333   25.8023   16.4260 H         1 PHE         0.0557
     59 H13        13.8776   30.0881   14.1608 H         1 PHE         0.0599
     60 H14        14.0918   25.8131   14.2475 H         1 PHE         0.0599
     61 H15        14.5754   27.9626   13.1179 H         1 PHE         0.0559
     62 H16         9.7017   25.7265   18.4526 H         1 THR         0.1884
     63 H17         8.7321   26.6012   21.1173 H         1 THR         0.0826
     64 H18         8.4564   23.9351   19.6313 H         1 THR         0.0639
     65 H19         7.2045   25.7032   18.7935 H         1 THR         0.2101
     66 H20         6.8252   23.3605   21.4072 H         1 THR         0.0257
     67 H21         7.2018   24.8992   22.2541 H         1 THR         0.0257
     68 H22         8.4639   23.6313   22.0911 H         1 THR         0.0257
     69 H23         9.9449   26.2712   22.8684 H         1 PHE         0.1885
     70 H24        12.4907   24.8024   22.6704 H         1 PHE         0.0823
     71 H25        12.6845   25.5283   25.1193 H         1 PHE         0.0474
     72 H26        11.1530   26.4347   24.8750 H         1 PHE         0.0474
     73 H27        11.1313   28.1558   22.9302 H         1 PHE         0.0557
     74 H28        14.7148   26.5571   24.6365 H         1 PHE         0.0557
     75 H29        12.4064   30.0735   22.0507 H         1 PHE         0.0599
     76 H30        15.9913   28.4788   23.7534 H         1 PHE         0.0599
     77 H31        14.8338   30.2367   22.4575 H         1 PHE         0.0559
     78 H32        12.6947   22.7172   23.2289 H         1 LEU         0.1875
     79 H33        10.6247   21.4758   24.9867 H         1 LEU         0.0726
     80 H34        11.5613   19.3076   24.1567 H         1 LEU         0.0308
     81 H35        12.6296   20.2426   23.0561 H         1 LEU         0.0308
     82 H36        10.6380   21.1487   21.9176 H         1 LEU         0.0297
     83 H37         9.9716   19.0583   20.7732 H         1 LEU         0.0232
     84 H38        10.7279   18.1037   22.0935 H         1 LEU         0.0232
     85 H39        11.7454   19.1462   21.0425 H         1 LEU         0.0232
     86 H40         9.0272   20.9856   23.7906 H         1 LEU         0.0232
     87 H41         9.0560   19.1953   23.6475 H         1 LEU         0.0232
     88 H42         8.4166   20.1939   22.2983 H         1 LEU         0.0232
@<TRIPOS>BOND
     1    1    2 1  
     2    2    3 1  
     3    2    5 1  
     4    3    4 2  
     5    3    9 am 
     6    5    6 1  
     7    6    7 ar 
     8    6    8 ar 
     9    9   10 1  
    10   10   11 1  
    11   10   13 1  
    12   11   12 2  
    13   11   20 am 
    14   13   14 1  
    15   14   15 ar 
    16   14   16 ar 
    17   15   17 ar 
    18   16   18 ar 
    19   17   19 ar 
    20   18   19 ar 
    21   20   21 1  
    22   21   22 1  
    23   21   24 1  
    24   22   23 2  
    25   22   27 am 
    26   24   25 1  
    27   24   26 1  
    28   27   28 1  
    29   28   29 1  
    30   28   31 1  
    31   29   30 2  
    32   29   38 am 
    33   31   32 1  
    34   32   33 ar 
    35   32   34 ar 
    36   33   35 ar 
    37   34   36 ar 
    38   35   37 ar 
    39   36   37 ar 
    40   38   39 1  
    41   39   40 1  
    42   39   42 1  
    43   40   41 ar 
    44   40   46 ar 
    45   42   43 1  
    46   43   44 1  
    47   43   45 1  
    48    1   47 1  
    49    1   48 1  
    50    1   49 1  
    51    2   50 1  
    52    5   51 1  
    53    5   52 1  
    54    9   53 1  
    55   10   54 1  
    56   13   55 1  
    57   13   56 1  
    58   15   57 1  
    59   16   58 1  
    60   17   59 1  
    61   18   60 1  
    62   19   61 1  
    63   20   62 1  
    64   21   63 1  
    65   24   64 1  
    66   25   65 1  
    67   26   66 1  
    68   26   67 1  
    69   26   68 1  
    70   27   69 1  
    71   28   70 1  
    72   31   71 1  
    73   31   72 1  
    74   33   73 1  
    75   34   74 1  
    76   35   75 1  
    77   36   76 1  
    78   37   77 1  
    79   38   78 1  
    80   39   79 1  
    81   42   80 1  
    82   42   81 1  
    83   43   82 1  
    84   44   83 1  
    85   44   84 1  
    86   44   85 1  
    87   45   86 1  
    88   45   87 1  
    89   45   88 1  
@<TRIPOS>SUBSTRUCTURE
     1 ASP         1

