### 
### Created by X-TOOL on Mon Sep 10 21:13:29 2018
### 

@<TRIPOS>MOLECULE
5b0x_ligand
   38    40     1     0     0
SMALL
GAST_HUCK


@<TRIPOS>ATOM
      1 C1        -12.0580    5.0720   14.2320 C.ar      1 HCK        -0.0577
      2 C2        -12.6500    5.4010   12.9970 C.ar      1 HCK        -0.0195
      3 C3        -13.1660    4.4110   12.1320 C.ar      1 HCK        -0.0577
      4 C4        -13.0550    3.0610   12.4840 C.ar      1 HCK        -0.0534
      5 C5        -12.4190    2.7300   13.7010 C.ar      1 HCK         0.0042
      6 C6        -11.9430    3.7270   14.5800 C.ar      1 HCK        -0.0534
      7 C13       -12.7540    6.7270   12.6020 C.2       1 HCK         0.0407
      8 C15       -12.3620    7.8320   13.3870 C.2       1 HCK        -0.0278
      9 N16       -12.5690    9.0100   12.7100 N.2       1 HCK        -0.3103
     10 C17       -13.0940    8.8250   11.4540 C.2       1 HCK         0.2121
     11 S18       -13.3530    7.1660   11.0890 S.3       1 HCK         0.0220
     12 C24       -12.2590    1.3240   14.0850 C.2       1 HCK         0.0589
     13 O26       -11.4420    1.0600   14.9670 O.co2     1 HCK        -0.5623
     14 O28       -12.8990    0.4490   13.4970 O.co2     1 HCK        -0.5623
     15 N30       -13.3860    9.9220   10.5160 N.am      1 HCK        -0.1917
     16 C32       -13.7260    9.6530    9.2330 C.2       1 HCK         0.2379
     17 C33       -13.6530   10.7870    8.2920 C.ar      1 HCK         0.0474
     18 O36       -14.0460    8.5220    8.8880 O.2       1 HCK        -0.3721
     19 C38       -13.6730   10.5090    6.9050 C.ar      1 HCK        -0.0497
     20 C39       -13.5940   11.5650    5.9810 C.ar      1 HCK        -0.0268
     21 C40       -13.4870   12.8970    6.4480 C.ar      1 HCK         0.0963
     22 C41       -13.4950   13.1750    7.8330 C.ar      1 HCK        -0.0268
     23 C42       -13.5750   12.1190    8.7580 C.ar      1 HCK        -0.0497
     24 O49       -13.3940   13.9990    5.5940 O.3       1 HCK        -0.3177
     25 C51       -13.4150   13.7560    4.1870 C.3       1 HCK         0.0607
     26 H1        -11.6993    5.8485   14.8980 H         1 HCK         0.0581
     27 H2        -13.6448    4.6948   11.2018 H         1 HCK         0.0581
     28 H3        -13.4487    2.2859   11.8365 H         1 HCK         0.0634
     29 H4        -11.4890    3.4472   15.5237 H         1 HCK         0.0634
     30 H5        -11.9511    7.7610   14.3930 H         1 HCK         0.0586
     31 H6        -13.3330   10.8706   10.8280 H         1 HCK         0.2433
     32 H7        -13.7490    9.4854    6.5563 H         1 HCK         0.0642
     33 H8        -13.6149   11.3606    4.9166 H         1 HCK         0.0557
     34 H9        -13.4396   14.1999    8.1818 H         1 HCK         0.0557
     35 H10       -13.5768   12.3253    9.8222 H         1 HCK         0.0642
     36 H11       -13.3343   14.7118    3.6486 H         1 HCK         0.0580
     37 H12       -14.3584   13.2603    3.9145 H         1 HCK         0.0580
     38 H13       -12.5685   13.1088    3.9140 H         1 HCK         0.0580
@<TRIPOS>BOND
     1    1    2 ar 
     2    1    6 ar 
     3    2    3 ar 
     4    2    7 1  
     5    3    4 ar 
     6    4    5 ar 
     7    5    6 ar 
     8    5   12 1  
     9    7    8 2  
    10    7   11 1  
    11    8    9 1  
    12    9   10 2  
    13   10   11 1  
    14   10   15 1  
    15   12   13 ar 
    16   12   14 ar 
    17   15   16 am 
    18   16   17 1  
    19   16   18 2  
    20   17   19 ar 
    21   17   23 ar 
    22   19   20 ar 
    23   20   21 ar 
    24   21   22 ar 
    25   21   24 1  
    26   22   23 ar 
    27   24   25 1  
    28    1   26 1  
    29    3   27 1  
    30    4   28 1  
    31    6   29 1  
    32    8   30 1  
    33   15   31 1  
    34   19   32 1  
    35   20   33 1  
    36   22   34 1  
    37   23   35 1  
    38   25   36 1  
    39   25   37 1  
    40   25   38 1  
@<TRIPOS>SUBSTRUCTURE
     1 HCK         1

