### 
### Created by X-TOOL on Mon Sep 10 21:13:28 2018
### 

@<TRIPOS>MOLECULE
5b1s_ligand
   21    21     1     0     0
SMALL
GAST_HUCK


@<TRIPOS>ATOM
      1 C7          0.3150  -55.9680  -19.5890 C.ar      1 BSX        -0.0726
      2 C9          0.4380  -57.2860  -19.2250 C.ar      1 BSX        -0.0706
      3 C4          1.0220  -54.9160  -19.0120 C.ar      1 BSX        -0.0618
      4 C6          1.3160  -57.5530  -18.1850 C.ar      1 BSX        -0.0349
      5 C1          1.9160  -55.1770  -17.9670 C.ar      1 BSX        -0.0042
      6 C3          2.0090  -56.5050  -17.5950 C.ar      1 BSX         0.1333
      7 C2          2.7010  -54.0290  -17.3190 C.3       1 BSX         0.0219
      8 C5          1.9690  -53.6380  -16.0380 C.3       1 BSX        -0.0263
      9 N8          2.8220  -52.7960  -15.1530 N.4       1 BSX         0.2199
     10 F10         2.8870  -56.8270  -16.5590 F         1 BSX        -0.1891
     11 H1         -0.3830  -55.7288  -20.3831 H         1 BSX         0.0565
     12 H2         -0.1188  -58.0724  -19.7216 H         1 BSX         0.0549
     13 H3          0.8810  -53.9024  -19.3695 H         1 BSX         0.0546
     14 H4          1.4595  -58.5694  -17.8366 H         1 BSX         0.0585
     15 H5          2.7438  -53.1696  -18.0042 H         1 BSX         0.0470
     16 H6          3.7228  -54.3599  -17.0815 H         1 BSX         0.0470
     17 H7          1.6856  -54.5521  -15.4957 H         1 BSX         0.0836
     18 H8          1.0631  -53.0731  -16.3029 H         1 BSX         0.0836
     19 H9          2.3082  -52.5573  -14.3193 H         1 BSX         0.1996
     20 H10         3.0822  -51.9528  -15.6403 H         1 BSX         0.1996
     21 H11         3.6527  -53.3082  -14.9006 H         1 BSX         0.1996
@<TRIPOS>BOND
     1    1    2 ar 
     2    1    3 ar 
     3    2    4 ar 
     4    3    5 ar 
     5    4    6 ar 
     6    5    6 ar 
     7    5    7 1  
     8    6   10 1  
     9    7    8 1  
    10    8    9 1  
    11    1   11 1  
    12    2   12 1  
    13    3   13 1  
    14    4   14 1  
    15    7   15 1  
    16    7   16 1  
    17    8   17 1  
    18    8   18 1  
    19    9   19 1  
    20    9   20 1  
    21    9   21 1  
@<TRIPOS>SUBSTRUCTURE
     1 BSX         1

