### 
### Created by X-TOOL on Mon Sep 10 21:13:27 2018
### 

@<TRIPOS>MOLECULE
5b2d_ligand
   81    83     1     0     0
SMALL
GAST_HUCK


@<TRIPOS>ATOM
      1 O17         6.8870  -43.1740  -30.6520 O.2       1 SLT        -0.3974
      2 C17         7.6510  -42.3040  -30.2830 C.2       1 SLT         0.1733
      3 C18         7.6350  -40.9420  -30.9540 C.3       1 SLT         0.0257
      4 N12         8.5890  -42.5640  -29.1930 N.am      1 SLT        -0.2790
      5 C12         8.6260  -43.8880  -28.5310 C.3       1 SLT         0.0964
      6 C13        10.0360  -44.3830  -28.5550 C.3       1 SLT         0.1143
      7 O13        10.1930  -45.7000  -27.9110 O.3       1 SLT        -0.3384
      8 C14        10.5000  -44.4910  -29.9840 C.3       1 SLT         0.1114
      9 O14         9.7620  -45.4760  -30.6350 O.3       1 SLT        -0.3865
     10 C15        11.9660  -44.8820  -29.9970 C.3       1 SLT         0.1065
     11 O15        12.7360  -43.7990  -29.5690 O.3       1 SLT        -0.3869
     12 C16        12.3720  -45.2730  -31.4040 C.3       1 SLT         0.0727
     13 O16        12.4560  -44.0900  -32.2270 O.3       1 SLT        -0.3924
     14 C11         8.1350  -43.7320  -27.1540 C.3       1 SLT         0.0850
     15 O11         6.6780  -43.7620  -27.1490 O.3       1 SLT        -0.3893
     16 C10         8.6460  -44.7690  -26.2260 C.3       1 SLT         0.0353
     17 C9          9.2300  -45.9790  -26.8820 C.3       1 SLT         0.2208
     18 C19         9.7340  -46.9540  -25.8830 C.2       1 SLT         0.1041
     19 O20        10.8760  -47.4890  -26.0390 O.co2     1 SLT        -0.5426
     20 O19         9.0960  -47.1530  -24.8310 O.co2     1 SLT        -0.5426
     21 O9          8.0740  -46.7910  -27.5190 O.3       1 SLT        -0.3380
     22 C3          8.4380  -48.2170  -27.7040 C.3       1 SLT         0.1197
     23 C4          7.5320  -49.0530  -26.8630 C.3       1 SLT         0.1121
     24 C5          7.7710  -50.5320  -27.0670 C.3       1 SLT         0.1130
     25 O5          7.6510  -50.9150  -28.4830 O.3       1 SLT        -0.3405
     26 C6          6.7650  -51.3030  -26.2630 C.3       1 SLT         0.0730
     27 O6          7.3730  -52.5050  -25.7560 O.3       1 SLT        -0.3924
     28 O4          6.1760  -48.7500  -27.2080 O.3       1 SLT        -0.3865
     29 C2          8.3390  -48.5880  -29.1460 C.3       1 SLT         0.1344
     30 O2          9.3460  -47.8910  -29.8750 O.3       1 SLT        -0.3841
     31 C1          8.5250  -50.1070  -29.3640 C.3       1 SLT         0.1884
     32 O1          8.2480  -50.4320  -30.7010 O.3       1 SLT        -0.3401
     33 C4A         8.8440  -51.7580  -31.0200 C.3       1 SLT         0.1184
     34 C5A         9.6200  -51.6660  -32.3150 C.3       1 SLT         0.1134
     35 O5A        10.1970  -52.9430  -32.6810 O.3       1 SLT        -0.3407
     36 C6A        10.7350  -50.6240  -32.1730 C.3       1 SLT         0.0730
     37 O6A        11.6720  -51.0550  -31.1750 O.3       1 SLT        -0.3924
     38 C3A         7.7860  -52.7600  -31.1160 C.3       1 SLT         0.1144
     39 O3A         7.1070  -52.8920  -29.7780 O.3       1 SLT        -0.3864
     40 C2A         8.3110  -54.0700  -31.5110 C.3       1 SLT         0.1339
     41 O2A         7.2040  -54.9670  -31.7660 O.3       1 SLT        -0.3841
     42 C1A         9.1910  -53.9980  -32.7610 C.3       1 SLT         0.1854
     43 O1A         8.3810  -53.7710  -33.8840 O.3       1 SLT        -0.3649
     44 H1          8.3910  -40.2941  -30.4865 H         1 SLT         0.0467
     45 H2          6.6401  -40.4875  -30.8376 H         1 SLT         0.0467
     46 H3          7.8624  -41.0577  -32.0240 H         1 SLT         0.0467
     47 H4          9.2113  -41.8415  -28.8916 H         1 SLT         0.1856
     48 H5          7.9805  -44.5969  -29.0703 H         1 SLT         0.0608
     49 H6         10.6675  -43.6565  -28.0227 H         1 SLT         0.0646
     50 H7         10.3654  -43.5258  -30.4942 H         1 SLT         0.0647
     51 H8          9.8895  -46.3083  -30.1951 H         1 SLT         0.2100
     52 H9         12.1247  -45.7346  -29.3203 H         1 SLT         0.0643
     53 H10        13.6543  -44.0422  -29.5765 H         1 SLT         0.2100
     54 H11        11.6225  -45.9596  -31.8245 H         1 SLT         0.0584
     55 H12        13.3522  -45.7716  -31.3776 H         1 SLT         0.0584
     56 H13        11.6091  -43.6602  -32.2491 H         1 SLT         0.2095
     57 H14         8.4697  -42.7514  -26.7848 H         1 SLT         0.0618
     58 H15         6.3634  -43.6610  -26.2583 H         1 SLT         0.2099
     59 H16         7.8112  -45.0969  -25.5892 H         1 SLT         0.0336
     60 H17         9.4265  -44.3111  -25.6006 H         1 SLT         0.0336
     61 H18         9.4754  -48.3711  -27.3722 H         1 SLT         0.0650
     62 H19         7.7043  -48.8089  -25.8044 H         1 SLT         0.0647
     63 H20         8.7842  -50.7794  -26.7176 H         1 SLT         0.0647
     64 H21         5.9096  -51.5667  -26.9023 H         1 SLT         0.0584
     65 H22         6.4174  -50.6854  -25.4217 H         1 SLT         0.0584
     66 H23         6.7346  -52.9913  -25.2476 H         1 SLT         0.2095
     67 H24         6.0183  -47.8217  -27.0822 H         1 SLT         0.2100
     68 H25         7.3473  -48.2944  -29.5205 H         1 SLT         0.0671
     69 H26         9.2172  -46.9552  -29.7750 H         1 SLT         0.2101
     70 H27         9.5722  -50.3615  -29.1436 H         1 SLT         0.0938
     71 H28         9.5334  -52.0462  -30.2128 H         1 SLT         0.0651
     72 H29         8.9332  -51.3491  -33.1137 H         1 SLT         0.0647
     73 H30        10.2989  -49.6596  -31.8735 H         1 SLT         0.0584
     74 H31        11.2533  -50.5088  -33.1363 H         1 SLT         0.0584
     75 H32        12.0485  -51.8878  -31.4343 H         1 SLT         0.2095
     76 H33         7.0527  -52.4300  -31.8666 H         1 SLT         0.0648
     77 H34         6.7327  -52.0548  -29.5301 H         1 SLT         0.2100
     78 H35         8.9148  -54.4676  -30.6819 H         1 SLT         0.0671
     79 H36         6.6662  -54.6138  -32.4649 H         1 SLT         0.2101
     80 H37         9.7069  -54.9624  -32.8779 H         1 SLT         0.0935
     81 H38         7.7236  -54.4544  -33.9422 H         1 SLT         0.2126
@<TRIPOS>BOND
     1    1    2 2  
     2    2    3 1  
     3    2    4 am 
     4    4    5 1  
     5    5    6 1  
     6    5   14 1  
     7    6    7 1  
     8    6    8 1  
     9    7   17 1  
    10    8    9 1  
    11    8   10 1  
    12   10   11 1  
    13   10   12 1  
    14   12   13 1  
    15   14   15 1  
    16   14   16 1  
    17   16   17 1  
    18   17   18 1  
    19   17   21 1  
    20   18   19 ar 
    21   18   20 ar 
    22   21   22 1  
    23   22   23 1  
    24   22   29 1  
    25   23   24 1  
    26   23   28 1  
    27   24   25 1  
    28   24   26 1  
    29   25   31 1  
    30   26   27 1  
    31   29   30 1  
    32   29   31 1  
    33   31   32 1  
    34   32   33 1  
    35   33   34 1  
    36   33   38 1  
    37   34   35 1  
    38   34   36 1  
    39   35   42 1  
    40   36   37 1  
    41   38   39 1  
    42   38   40 1  
    43   40   41 1  
    44   40   42 1  
    45   42   43 1  
    46    3   44 1  
    47    3   45 1  
    48    3   46 1  
    49    4   47 1  
    50    5   48 1  
    51    6   49 1  
    52    8   50 1  
    53    9   51 1  
    54   10   52 1  
    55   11   53 1  
    56   12   54 1  
    57   12   55 1  
    58   13   56 1  
    59   14   57 1  
    60   15   58 1  
    61   16   59 1  
    62   16   60 1  
    63   22   61 1  
    64   23   62 1  
    65   24   63 1  
    66   26   64 1  
    67   26   65 1  
    68   27   66 1  
    69   28   67 1  
    70   29   68 1  
    71   30   69 1  
    72   31   70 1  
    73   33   71 1  
    74   34   72 1  
    75   36   73 1  
    76   36   74 1  
    77   37   75 1  
    78   38   76 1  
    79   39   77 1  
    80   40   78 1  
    81   41   79 1  
    82   42   80 1  
    83   43   81 1  
@<TRIPOS>SUBSTRUCTURE
     1 SLT         1

