### 
### Created by X-TOOL on Mon Sep 10 21:13:27 2018
### 

@<TRIPOS>MOLECULE
5b4k_ligand
   43    47     1     0     0
SMALL
GAST_HUCK


@<TRIPOS>ATOM
      1 C20        -2.0650   -4.5280  -24.0210 C.ar      1 6DT        -0.0786
      2 C21        -1.7940   -5.4570  -25.0000 C.ar      1 6DT        -0.0807
      3 C19        -1.0940   -4.0500  -23.1710 C.ar      1 6DT        -0.0446
      4 C22        -0.5360   -5.9800  -25.2010 C.ar      1 6DT        -0.0689
      5 C11         5.6170   -4.6760  -21.7700 C.ar      1 6DT        -0.0442
      6 C13         3.6990   -3.3740  -21.2750 C.ar      1 6DT        -0.0442
      7 C10         6.3470   -3.9630  -20.8450 C.ar      1 6DT        -0.0357
      8 C14         4.4130   -2.6520  -20.3450 C.ar      1 6DT        -0.0357
      9 C4          8.5490   -1.9930  -15.0680 C.2       1 6DT        -0.0437
     10 C3          9.2160   -1.2540  -16.0190 C.2       1 6DT         0.0348
     11 C26         5.5850   -3.7510  -16.1370 C.ar      1 6DT         0.0495
     12 C18         0.1810   -4.5590  -23.3530 C.ar      1 6DT         0.0756
     13 C5          7.4360   -2.5850  -15.7150 C.ar      1 6DT         0.0421
     14 C23         0.4220   -5.4910  -24.3420 C.ar      1 6DT         0.0129
     15 C6          7.4430   -2.1980  -17.0380 C.ar      1 6DT         0.1512
     16 C12         4.2870   -4.3960  -21.9930 C.ar      1 6DT         0.0590
     17 C9          5.7370   -2.9590  -20.1330 C.ar      1 6DT         0.1119
     18 C7          6.4640   -2.6330  -17.9030 C.ar      1 6DT         0.2247
     19 C16         2.2750   -5.0140  -23.2240 C.2       1 6DT         0.2314
     20 C1          8.9510   -0.7490  -18.4270 C.3       1 6DT         0.0435
     21 N27         6.4850   -3.3890  -15.2160 N.ar      1 6DT        -0.3093
     22 N25         5.5040   -3.4340  -17.4320 N.ar      1 6DT        -0.2583
     23 N17         1.3370   -4.2730  -22.6740 N.pl3     1 6DT        -0.2279
     24 N24         1.7510   -5.7690  -24.2330 N.2       1 6DT        -0.3089
     25 N2          8.5370   -1.3890  -17.1970 N.pl3     1 6DT        -0.2551
     26 N15         3.5990   -5.1460  -22.9660 N.pl3     1 6DT        -0.2324
     27 O8          6.4810   -2.2360  -19.2210 O.3       1 6DT        -0.2381
     28 H1         -3.0792   -4.1599  -23.9159 H         1 6DT         0.0514
     29 H2         -2.6038   -5.7905  -25.6388 H         1 6DT         0.0509
     30 H3         -1.3145   -3.3172  -22.4032 H         1 6DT         0.0533
     31 H4         -0.3190   -6.7133  -25.9692 H         1 6DT         0.0518
     32 H5          6.0966   -5.4698  -22.3312 H         1 6DT         0.0515
     33 H6          2.6556   -3.1354  -21.4466 H         1 6DT         0.0515
     34 H7          7.3936   -4.1921  -20.6803 H         1 6DT         0.0532
     35 H8          3.9382   -1.8527  -19.7876 H         1 6DT         0.0532
     36 H9          8.8240   -2.1017  -14.0199 H         1 6DT         0.0322
     37 H10        10.1204   -0.6683  -15.8611 H         1 6DT         0.1018
     38 H11         4.7984   -4.4037  -15.7759 H         1 6DT         0.0971
     39 H12         9.8643   -0.1632  -18.2461 H         1 6DT         0.0572
     40 H13         8.1512   -0.0815  -18.7803 H         1 6DT         0.0572
     41 H14         9.1523   -1.5157  -19.1896 H         1 6DT         0.0572
     42 H15         1.4487   -3.6121  -21.8919 H         1 6DT         0.2312
     43 H16         4.1333   -5.8354  -23.5139 H         1 6DT         0.2187
@<TRIPOS>BOND
     1    2    1 ar 
     2    3    1 ar 
     3    4    2 ar 
     4   12    3 ar 
     5   14    4 ar 
     6    5    7 ar 
     7   16    5 ar 
     8    6    8 ar 
     9   16    6 ar 
    10    7   17 ar 
    11    8   17 ar 
    12   10    9 2  
    13   13    9 1  
    14   25   10 1  
    15   11   21 ar 
    16   22   11 ar 
    17   14   12 ar 
    18   23   12 1  
    19   15   13 ar 
    20   13   21 ar 
    21   24   14 1  
    22   18   15 ar 
    23   15   25 1  
    24   26   16 1  
    25   17   27 1  
    26   18   22 ar 
    27   27   18 1  
    28   19   23 1  
    29   19   24 2  
    30   19   26 1  
    31   25   20 1  
    32    1   28 1  
    33    2   29 1  
    34    3   30 1  
    35    4   31 1  
    36    5   32 1  
    37    6   33 1  
    38    7   34 1  
    39    8   35 1  
    40    9   36 1  
    41   10   37 1  
    42   11   38 1  
    43   20   39 1  
    44   20   40 1  
    45   20   41 1  
    46   23   42 1  
    47   26   43 1  
@<TRIPOS>SUBSTRUCTURE
     1 6DT         1

