### 
### Created by X-TOOL on Mon Sep 10 21:13:30 2018
### 

@<TRIPOS>MOLECULE
5b4l_ligand
   62    68     1     0     0
SMALL
GAST_HUCK


@<TRIPOS>ATOM
      1 C12         9.8380    1.7100  -20.2310 C.ar      1 6DW        -0.0686
      2 C34        -2.4850   -4.7800  -24.4600 C.ar      1 6DW        -0.0820
      3 C35        -2.0890   -5.2510  -25.6910 C.ar      1 6DW        -0.0791
      4 C11         8.5900    1.6450  -19.6520 C.ar      1 6DW        -0.0658
      5 C13        10.8070    0.7820  -19.9090 C.ar      1 6DW        -0.0658
      6 C33        -1.6110   -4.6480  -23.4060 C.ar      1 6DW        -0.0718
      7 C36        -0.7900   -5.6230  -25.9660 C.ar      1 6DW        -0.0427
      8 C10         8.3090    0.6440  -18.7460 C.ar      1 6DW        -0.0256
      9 C14        10.5350   -0.2210  -19.0010 C.ar      1 6DW        -0.0256
     10 C5          8.1710   -3.0890  -16.5890 C.2       1 6DW        -0.0378
     11 C6          8.8630   -2.2870  -15.6550 C.2       1 6DW        -0.0033
     12 C32        -0.2980   -5.0150  -23.6480 C.ar      1 6DW         0.0053
     13 C37         0.0690   -5.4830  -24.9000 C.ar      1 6DW         0.0889
     14 C9          9.2840   -0.2760  -18.4300 C.ar      1 6DW         0.1105
     15 C4          8.2720   -2.4230  -17.7870 C.2       1 6DW         0.1261
     16 C30         1.7720   -5.4390  -23.4910 C.2       1 6DW         0.2437
     17 C21         6.6270   -3.4380  -21.4190 C.2       1 6DW         0.0922
     18 C3          7.7560   -2.7670  -19.0710 C.2       1 6DW         0.1563
     19 C22         5.7720   -3.6010  -20.4090 C.2       1 6DW         0.1530
     20 C2          6.3300   -3.2530  -19.1000 C.2       1 6DW         0.1651
     21 C19         8.6280   -1.5370  -24.7090 C.3       1 6DW        -0.0473
     22 C20         9.3930   -0.6710  -23.7500 C.3       1 6DW        -0.0473
     23 C28         2.4540   -6.2320  -25.5980 C.2       1 6DW         0.0632
     24 C27         3.6210   -6.2650  -24.6130 C.2       1 6DW         0.0512
     25 C18         8.3470   -1.6180  -23.2380 C.3       1 6DW        -0.0126
     26 C17         8.7560   -2.8400  -22.4920 C.3       1 6DW         0.0725
     27 C25         3.8300   -5.6060  -22.1420 C.3       1 6DW         0.0810
     28 C24         4.1550   -4.1640  -21.8540 C.3       1 6DW         0.0903
     29 N7          9.3650   -1.1880  -16.2280 N.2       1 6DW        -0.2056
     30 N31         0.7710   -4.9820  -22.7800 N.2       1 6DW        -0.3231
     31 N15         8.4900   -2.6450  -20.1350 N.2       1 6DW        -0.1555
     32 N29         1.4000   -5.7240  -24.7520 N.pl3     1 6DW        -0.1947
     33 N8          8.9950   -1.2920  -17.5180 N.pl3     1 6DW        -0.1573
     34 N26         3.0890   -5.6800  -23.3830 N.pl3     1 6DW        -0.2249
     35 N16         7.9180   -2.9870  -21.3170 N.pl3     1 6DW        -0.1901
     36 O1          5.6760   -3.3490  -18.0680 O.2       1 6DW        -0.4186
     37 O23         4.4700   -4.0500  -20.4760 O.3       1 6DW        -0.3248
     38 H1         10.0604    2.4953  -20.9443 H         1 6DW         0.0558
     39 H2         -3.5231   -4.5031  -24.3158 H         1 6DW         0.0512
     40 H3         -2.8299   -5.3331  -26.4780 H         1 6DW         0.0497
     41 H4          7.8324    2.3771  -19.9072 H         1 6DW         0.0600
     42 H5         11.7858    0.8410  -20.3711 H         1 6DW         0.0600
     43 H6         -1.9324   -4.2772  -22.4394 H         1 6DW         0.0505
     44 H7         -0.4739   -5.9925  -26.9348 H         1 6DW         0.0548
     45 H8          7.3292    0.5818  -18.2865 H         1 6DW         0.0586
     46 H9         11.2926   -0.9519  -18.7423 H         1 6DW         0.0586
     47 H10         7.6648   -4.0345  -16.4001 H         1 6DW         0.0361
     48 H11         8.9739   -2.5329  -14.5999 H         1 6DW         0.0668
     49 H12         6.2671   -3.6858  -22.4165 H         1 6DW         0.0971
     50 H13         9.1322   -2.3709  -25.2193 H         1 6DW         0.0269
     51 H14         7.8876   -1.0865  -25.3863 H         1 6DW         0.0269
     52 H15         9.2128    0.4138  -23.7244 H         1 6DW         0.0269
     53 H16        10.4574   -0.8706  -23.5574 H         1 6DW         0.0269
     54 H17         2.4249   -6.5141  -26.6494 H         1 6DW         0.0758
     55 H18         4.6277   -6.6414  -24.7882 H         1 6DW         0.0801
     56 H19         7.4026   -1.2296  -22.8290 H         1 6DW         0.0328
     57 H20         9.8079   -2.7477  -22.1839 H         1 6DW         0.0625
     58 H21         8.6395   -3.7219  -23.1391 H         1 6DW         0.0625
     59 H22         3.2217   -6.0182  -21.3235 H         1 6DW         0.0620
     60 H23         4.7617   -6.1836  -22.2332 H         1 6DW         0.0620
     61 H24         3.2869   -3.5315  -22.0915 H         1 6DW         0.0630
     62 H25         5.0163   -3.8476  -22.4607 H         1 6DW         0.0630
@<TRIPOS>BOND
     1    4    1 ar 
     2    5    1 ar 
     3    3    2 ar 
     4    6    2 ar 
     5    7    3 ar 
     6    8    4 ar 
     7    9    5 ar 
     8   12    6 ar 
     9   13    7 ar 
    10   14    8 ar 
    11   14    9 ar 
    12   10   11 1  
    13   15   10 2  
    14   11   29 2  
    15   13   12 ar 
    16   30   12 1  
    17   32   13 1  
    18   33   14 1  
    19   18   15 1  
    20   15   33 1  
    21   16   30 2  
    22   16   32 1  
    23   34   16 1  
    24   19   17 2  
    25   17   35 1  
    26   20   18 1  
    27   18   31 2  
    28   19   20 1  
    29   37   19 1  
    30   20   36 2  
    31   22   21 1  
    32   25   21 1  
    33   25   22 1  
    34   24   23 2  
    35   23   32 1  
    36   34   24 1  
    37   26   25 1  
    38   35   26 1  
    39   28   27 1  
    40   27   34 1  
    41   28   37 1  
    42   29   33 1  
    43   31   35 1  
    44    1   38 1  
    45    2   39 1  
    46    3   40 1  
    47    4   41 1  
    48    5   42 1  
    49    6   43 1  
    50    7   44 1  
    51    8   45 1  
    52    9   46 1  
    53   10   47 1  
    54   11   48 1  
    55   17   49 1  
    56   21   50 1  
    57   21   51 1  
    58   22   52 1  
    59   22   53 1  
    60   23   54 1  
    61   24   55 1  
    62   25   56 1  
    63   26   57 1  
    64   26   58 1  
    65   27   59 1  
    66   27   60 1  
    67   28   61 1  
    68   28   62 1  
@<TRIPOS>SUBSTRUCTURE
     1 6DW         1

