### 
### Created by X-TOOL on Mon Sep 10 21:13:27 2018
### 

@<TRIPOS>MOLECULE
5b5b_ligand
   94    98     1     0     0
SMALL
GAST_HUCK


@<TRIPOS>ATOM
      1 O3        160.6300   -0.5540   50.9850 O.3       1 AKX        -0.3844
      2 C25       160.0330    0.7840   51.0020 C.3       1 AKX         0.0848
      3 C27       158.6390    0.6380   50.3800 C.3       1 AKX         0.0117
      4 C34       158.5800    0.1190   48.9740 C.ar      1 AKX        -0.0401
      5 C39       158.5130    0.9690   47.8660 C.ar      1 AKX        -0.0602
      6 C38       158.4500    0.4230   46.5730 C.ar      1 AKX        -0.0686
      7 C37       158.4600   -0.9650   46.4210 C.ar      1 AKX        -0.0687
      8 C36       158.5340   -1.7900   47.5390 C.ar      1 AKX        -0.0686
      9 C35       158.5880   -1.2480   48.7970 C.ar      1 AKX        -0.0602
     10 C26       159.8440    1.2650   52.4620 C.3       1 AKX         0.0117
     11 C28       159.2950    2.6840   52.7080 C.ar      1 AKX        -0.0401
     12 C33       157.9130    2.9280   52.7730 C.ar      1 AKX        -0.0602
     13 C32       157.4230    4.2030   53.0200 C.ar      1 AKX        -0.0686
     14 C31       158.3030    5.2570   53.2410 C.ar      1 AKX        -0.0687
     15 C30       159.6760    5.0200   53.1950 C.ar      1 AKX        -0.0686
     16 C29       160.1560    3.7540   52.9210 C.ar      1 AKX        -0.0602
     17 C24       160.8400    1.7680   50.1190 C.3       1 AKX        -0.0203
     18 C23       162.3080    1.9120   50.5160 C.3       1 AKX        -0.0499
     19 C22       163.0370    2.9990   49.6850 C.3       1 AKX        -0.0501
     20 C20       164.0410    2.3630   48.7940 C.3       1 AKX        -0.0404
     21 C21       163.3080    1.2970   47.9650 C.3       1 AKX        -0.0621
     22 C17       164.9360    3.3240   47.9360 C.3       1 AKX        -0.0306
     23 C13       164.4530    4.5590   47.1530 C.3       1 AKX        -0.0161
     24 C18       163.2530    4.3170   46.2490 C.3       1 AKX        -0.0570
     25 C12       164.2100    5.8430   47.9570 C.3       1 AKX        -0.0431
     26 C11       164.0830    7.0880   47.0200 C.3       1 AKX        -0.0423
     27 C9        165.3380    7.2650   46.1490 C.3       1 AKX        -0.0234
     28 C16       165.6450    2.5200   46.8370 C.3       1 AKX        -0.0470
     29 C15       166.0980    3.4750   45.7050 C.3       1 AKX        -0.0393
     30 C14       165.6780    4.7990   46.2570 C.3       1 AKX        -0.0062
     31 C8        165.5240    6.0020   45.3430 C.2       1 AKX        -0.0718
     32 C7        165.5060    5.9780   43.9740 C.2       1 AKX        -0.1089
     33 C6        165.3000    7.2310   43.1930 C.2       1 AKX        -0.1086
     34 C5        165.1130    7.2800   41.8590 C.2       1 AKX        -0.0657
     35 C10       164.8980    8.6200   41.1740 C.3       1 AKX         0.0150
     36 C1        165.5460    8.6510   39.7730 C.3       1 AKX         0.1023
     37 O1        166.9740    8.6430   39.8610 O.3       1 AKX        -0.3742
     38 C4        165.0610    6.0190   41.0280 C.3       1 AKX         0.0150
     39 C3        165.5720    6.1530   39.5970 C.3       1 AKX         0.1023
     40 O2        165.1560    5.0520   38.8150 O.3       1 AKX        -0.3742
     41 C2        165.1220    7.4320   38.9920 C.2       1 AKX        -0.0127
     42 C40       164.4110    7.4880   37.8720 C.2       1 AKX        -0.1238
     43 H1        160.6859   -0.8633   50.0885 H         1 AKX         0.2106
     44 H2        158.1642    1.6302   50.3892 H         1 AKX         0.0456
     45 H3        158.0615   -0.0508   51.0141 H         1 AKX         0.0456
     46 H4        158.5097    2.0442   48.0039 H         1 AKX         0.0557
     47 H5        158.3944    1.0704   45.7053 H         1 AKX         0.0599
     48 H6        158.4100   -1.4008   45.4297 H         1 AKX         0.0559
     49 H7        158.5490   -2.8667   47.4146 H         1 AKX         0.0599
     50 H8        158.6375   -1.9008   49.6610 H         1 AKX         0.0557
     51 H9        160.8275    1.2090   52.9514 H         1 AKX         0.0456
     52 H10       159.1520    0.5613   52.9478 H         1 AKX         0.0456
     53 H11       157.2188    2.1082   52.6281 H         1 AKX         0.0557
     54 H12       156.3533    4.3774   53.0407 H         1 AKX         0.0599
     55 H13       157.9254    6.2520   53.4468 H         1 AKX         0.0559
     56 H14       160.3701    5.8329   53.3751 H         1 AKX         0.0599
     57 H15       161.2266    3.5917   52.8711 H         1 AKX         0.0557
     58 H16       160.3665    2.7586   50.1863 H         1 AKX         0.0296
     59 H17       160.7980    1.4113   49.0793 H         1 AKX         0.0296
     60 H18       162.8135    0.9478   50.3586 H         1 AKX         0.0266
     61 H19       162.3618    2.1848   51.5803 H         1 AKX         0.0266
     62 H20       163.5441    3.6994   50.3649 H         1 AKX         0.0268
     63 H21       162.3028    3.5462   49.0756 H         1 AKX         0.0268
     64 H22       164.7431    1.8298   49.4518 H         1 AKX         0.0301
     65 H23       164.0221    0.8022   47.2903 H         1 AKX         0.0233
     66 H24       162.5144    1.7752   47.3721 H         1 AKX         0.0233
     67 H25       162.8628    0.5504   48.6390 H         1 AKX         0.0233
     68 H26       165.6862    3.6999   48.6473 H         1 AKX         0.0311
     69 H27       162.9856    5.2527   45.7363 H         1 AKX         0.0237
     70 H28       162.4010    3.9743   46.8545 H         1 AKX         0.0237
     71 H29       163.5050    3.5491   45.5028 H         1 AKX         0.0237
     72 H30       165.0530    5.9985   48.6463 H         1 AKX         0.0274
     73 H31       163.2800    5.7332   48.5341 H         1 AKX         0.0274
     74 H32       163.9460    7.9881   47.6373 H         1 AKX         0.0290
     75 H33       163.2089    6.9557   46.3655 H         1 AKX         0.0290
     76 H34       166.2167    7.4329   46.7890 H         1 AKX         0.0437
     77 H35       165.2066    8.1234   45.4739 H         1 AKX         0.0437
     78 H36       164.9525    1.7697   46.4277 H         1 AKX         0.0270
     79 H37       166.5240    2.0141   47.2628 H         1 AKX         0.0270
     80 H38       165.5836    3.2513   44.7588 H         1 AKX         0.0293
     81 H39       167.1861    3.4295   45.5505 H         1 AKX         0.0293
     82 H40       166.4966    5.0908   46.9314 H         1 AKX         0.0478
     83 H41       165.6437    5.0333   43.4501 H         1 AKX         0.0219
     84 H42       165.3006    8.1733   43.7388 H         1 AKX         0.0219
     85 H43       165.3449    9.4128   41.7918 H         1 AKX         0.0490
     86 H44       163.8176    8.7997   41.0719 H         1 AKX         0.0490
     87 H45       165.2187    9.5600   39.2470 H         1 AKX         0.0819
     88 H46       167.3441    8.6625   38.9864 H         1 AKX         0.2139
     89 H47       164.0138    5.6854   40.9838 H         1 AKX         0.0490
     90 H48       165.6684    5.2544   41.5343 H         1 AKX         0.0490
     91 H49       166.6716    6.1570   39.6251 H         1 AKX         0.0819
     92 H50       164.2068    5.0154   38.8012 H         1 AKX         0.2139
     93 H51       164.1052    8.4523   37.4688 H         1 AKX         0.0077
     94 H52       164.1337    6.5696   37.3566 H         1 AKX         0.0077
@<TRIPOS>BOND
     1    1    2 1  
     2    2    3 1  
     3    2   10 1  
     4    2   17 1  
     5    3    4 1  
     6    4    5 ar 
     7    4    9 ar 
     8    5    6 ar 
     9    6    7 ar 
    10    7    8 ar 
    11    8    9 ar 
    12   10   11 1  
    13   11   12 ar 
    14   11   16 ar 
    15   12   13 ar 
    16   13   14 ar 
    17   14   15 ar 
    18   15   16 ar 
    19   17   18 1  
    20   18   19 1  
    21   19   20 1  
    22   20   21 1  
    23   20   22 1  
    24   22   23 1  
    25   22   28 1  
    26   23   24 1  
    27   23   25 1  
    28   23   30 1  
    29   25   26 1  
    30   26   27 1  
    31   27   31 1  
    32   28   29 1  
    33   29   30 1  
    34   30   31 1  
    35   31   32 2  
    36   32   33 1  
    37   33   34 2  
    38   34   35 1  
    39   34   38 1  
    40   35   36 1  
    41   36   37 1  
    42   36   41 1  
    43   38   39 1  
    44   39   40 1  
    45   39   41 1  
    46   41   42 2  
    47    1   43 1  
    48    3   44 1  
    49    3   45 1  
    50    5   46 1  
    51    6   47 1  
    52    7   48 1  
    53    8   49 1  
    54    9   50 1  
    55   10   51 1  
    56   10   52 1  
    57   12   53 1  
    58   13   54 1  
    59   14   55 1  
    60   15   56 1  
    61   16   57 1  
    62   17   58 1  
    63   17   59 1  
    64   18   60 1  
    65   18   61 1  
    66   19   62 1  
    67   19   63 1  
    68   20   64 1  
    69   21   65 1  
    70   21   66 1  
    71   21   67 1  
    72   22   68 1  
    73   24   69 1  
    74   24   70 1  
    75   24   71 1  
    76   25   72 1  
    77   25   73 1  
    78   26   74 1  
    79   26   75 1  
    80   27   76 1  
    81   27   77 1  
    82   28   78 1  
    83   28   79 1  
    84   29   80 1  
    85   29   81 1  
    86   30   82 1  
    87   32   83 1  
    88   33   84 1  
    89   35   85 1  
    90   35   86 1  
    91   36   87 1  
    92   37   88 1  
    93   38   89 1  
    94   38   90 1  
    95   39   91 1  
    96   40   92 1  
    97   42   93 1  
    98   42   94 1  
@<TRIPOS>SUBSTRUCTURE
     1 AKX         1

