### 
### Created by X-TOOL on Mon Sep 10 21:13:31 2018
### 

@<TRIPOS>MOLECULE
5b5f_ligand
   33    35     1     0     0
SMALL
GAST_HUCK


@<TRIPOS>ATOM
      1 C8         12.1140   -5.6350   -3.5880 C.2       1 6F3        -0.0431
      2 C4         10.9000   -7.6980   -4.6420 C.ar      1 6F3         0.0054
      3 C5         11.1620   -8.9840   -4.9590 C.ar      1 6F3        -0.0309
      4 C6         10.4070   -9.6840   -5.9580 C.ar      1 6F3         0.1039
      5 C2          9.2370   -7.6770   -6.3060 C.ar      1 6F3        -0.0642
      6 N1         14.1680   -4.8220   -0.4760 N.2       1 6F3        -0.2548
      7 N2          9.5340  -12.0840   -6.5020 N.am      1 6F3        -0.2506
      8 O4         11.5520  -11.2940   -7.6710 O.2       1 6F3        -0.1504
      9 S1         10.7690  -11.2180   -6.3920 S.o2      1 6F3         0.0670
     10 O3         11.6470  -11.7690   -5.3570 O.2       1 6F3        -0.1504
     11 C14         8.7170  -11.9130   -5.3220 C.3       1 6F3         0.0151
     12 C1          9.4410   -8.9900   -6.6140 C.ar      1 6F3        -0.0396
     13 C3          9.9750   -7.0420   -5.3910 C.ar      1 6F3        -0.0575
     14 C7         11.6530   -6.9730   -3.6930 C.2       1 6F3         0.1202
     15 O1         12.0140   -7.5480   -2.5270 O.3       1 6F3        -0.2412
     16 C10        12.8400   -6.7380   -1.8150 C.2       1 6F3         0.1534
     17 C13        13.2500   -6.9880   -0.5250 C.3       1 6F3         0.0875
     18 C12        13.9920   -6.0420    0.1040 C.2       1 6F3         0.0408
     19 C11        13.5760   -4.4010   -1.6420 C.2       1 6F3         0.1634
     20 O2         13.7030   -3.2410   -2.1380 O.2       1 6F3        -0.3976
     21 C9         12.8430   -5.4640   -2.3690 C.2       1 6F3         0.0506
     22 H1         11.9387   -4.8538   -4.3262 H         1 6F3         0.0392
     23 H2         11.9641   -9.5013   -4.4450 H         1 6F3         0.0604
     24 H3          8.4526   -7.1324   -6.8190 H         1 6F3         0.0606
     25 H4          9.3161  -12.6829   -7.2727 H         1 6F3         0.1669
     26 H5          7.8192  -12.5433   -5.4032 H         1 6F3         0.0439
     27 H6          8.4177  -10.8583   -5.2329 H         1 6F3         0.0439
     28 H7          9.2923  -12.2073   -4.4319 H         1 6F3         0.0439
     29 H8          8.8387   -9.4744   -7.3741 H         1 6F3         0.0599
     30 H9          9.8325   -5.9777   -5.2424 H         1 6F3         0.0584
     31 H10        13.8472   -7.9116   -0.5451 H         1 6F3         0.0820
     32 H11        12.3455   -7.1493    0.0799 H         1 6F3         0.0820
     33 H12        14.4458   -6.2575    1.0702 H         1 6F3         0.1319
@<TRIPOS>BOND
     1    1   14 2  
     2   21    1 1  
     3    2    3 ar 
     4    2   13 ar 
     5   14    2 1  
     6    3    4 ar 
     7    4    9 1  
     8    4   12 ar 
     9    5   12 ar 
    10   13    5 ar 
    11   18    6 2  
    12    6   19 1  
    13    9    7 am 
    14    7   11 1  
    15    9    8 2  
    16    9   10 2  
    17   15   14 1  
    18   16   15 1  
    19   17   16 1  
    20   16   21 2  
    21   17   18 1  
    22   19   20 2  
    23   19   21 1  
    24    1   22 1  
    25    3   23 1  
    26    5   24 1  
    27    7   25 1  
    28   11   26 1  
    29   11   27 1  
    30   11   28 1  
    31   12   29 1  
    32   13   30 1  
    33   17   31 1  
    34   17   32 1  
    35   18   33 1  
@<TRIPOS>SUBSTRUCTURE
     1 6F3         1

