### 
### Created by X-TOOL on Mon Sep 10 21:13:30 2018
### 

@<TRIPOS>MOLECULE
5b5g_ligand
   30    32     1     0     0
SMALL
GAST_HUCK


@<TRIPOS>ATOM
      1 C10        13.8030  -28.6690    6.6280 C.2       1 6FX         0.2063
      2 C11        14.0400  -26.2810    6.9910 C.2       1 6FX         0.0552
      3 O3         18.6610  -27.7110   -1.5400 O.2       1 6FX        -0.3538
      4 C13        18.1890  -27.3210   -0.4860 C.2       1 6FX         0.2693
      5 O4         18.0880  -25.9190   -0.2400 O.3       1 6FX        -0.2799
      6 C14        18.8080  -25.0250   -1.0760 C.3       1 6FX         0.0648
      7 C5         17.6960  -28.2960    0.4760 C.ar      1 6FX         0.0834
      8 C1         17.9150  -29.6300    0.1690 C.ar      1 6FX         0.0256
      9 C4         17.0110  -27.8930    1.5630 C.ar      1 6FX        -0.0191
     10 C3         16.5710  -28.9350    2.3690 C.ar      1 6FX         0.0338
     11 C2         16.7820  -30.4270    2.1130 C.ar      1 6FX         0.0177
     12 N1         17.5200  -30.6910    0.8880 N.ar      1 6FX        -0.2973
     13 C6         15.8500  -28.5260    3.5930 C.2       1 6FX         0.1207
     14 O1         15.7890  -27.2100    4.0310 O.3       1 6FX        -0.2608
     15 C9         15.0760  -27.1010    5.1390 C.2       1 6FX         0.1153
     16 C12        14.8300  -25.9070    5.8290 C.2       1 6FX        -0.0093
     17 N2         13.5590  -27.5270    7.3280 N.am      1 6FX        -0.2274
     18 O2         13.3530  -29.8600    6.9920 O.2       1 6FX        -0.4102
     19 C8         14.6090  -28.4190    5.4790 C.2       1 6FX         0.0538
     20 C7         15.1270  -29.3170    4.5100 C.2       1 6FX        -0.0414
     21 H1         13.7982  -25.4746    7.6818 H         1 6FX         0.1151
     22 H2         18.6215  -23.9902   -0.7528 H         1 6FX         0.0575
     23 H3         18.4763  -25.1492   -2.1174 H         1 6FX         0.0575
     24 H4         19.8839  -25.2429   -1.0054 H         1 6FX         0.0575
     25 H5         18.4607  -29.8364   -0.7446 H         1 6FX         0.0820
     26 H6         16.8203  -26.8500    1.7885 H         1 6FX         0.0748
     27 H7         16.4199  -31.2058    2.7744 H         1 6FX         0.0815
     28 H8         15.1614  -24.9071    5.5527 H         1 6FX         0.0343
     29 H9         12.9890  -27.5980    8.1466 H         1 6FX         0.2512
     30 H10        14.9934  -30.3974    4.4804 H         1 6FX         0.0420
@<TRIPOS>BOND
     1   17    1 am 
     2    1   18 2  
     3    1   19 1  
     4   16    2 2  
     5    2   17 am 
     6    4    3 2  
     7    4    5 1  
     8    7    4 1  
     9    5    6 1  
    10    7    8 ar 
    11    9    7 ar 
    12   12    8 ar 
    13   10    9 ar 
    14   10   11 ar 
    15   13   10 1  
    16   11   12 ar 
    17   14   13 1  
    18   13   20 2  
    19   15   14 1  
    20   15   16 1  
    21   15   19 2  
    22   19   20 1  
    23    2   21 1  
    24    6   22 1  
    25    6   23 1  
    26    6   24 1  
    27    8   25 1  
    28    9   26 1  
    29   11   27 1  
    30   16   28 1  
    31   17   29 1  
    32   20   30 1  
@<TRIPOS>SUBSTRUCTURE
     1 6FX         1

