### 
### Created by X-TOOL on Mon Sep 10 21:13:31 2018
### 

@<TRIPOS>MOLECULE
5b5o_ligand
   30    32     1     0     0
SMALL
GAST_HUCK


@<TRIPOS>ATOM
      1 C17        14.5800   12.8320   23.5000 C.ar      1 WMM        -0.0733
      2 C16        13.7120   13.7500   24.0450 C.ar      1 WMM        -0.0714
      3 C18        14.3860   12.3850   22.2120 C.ar      1 WMM        -0.0714
      4 C15        12.6620   14.2090   23.2770 C.ar      1 WMM        -0.0379
      5 C19        13.3280   12.8440   21.4600 C.ar      1 WMM        -0.0379
      6 C4         11.1970   13.9800   17.4880 C.2       1 WMM        -0.0102
      7 C10         7.2420   12.2840   15.1150 C.2       1 WMM         0.1119
      8 C14        12.4430   13.7600   21.9890 C.ar      1 WMM         0.0677
      9 C3         10.1890   14.7780   17.9700 C.2       1 WMM        -0.0115
     10 C8          7.3010   13.6920   16.7410 C.2       1 WMM         0.1984
     11 C1         11.1710   14.2780   19.9250 C.2       1 WMM         0.1958
     12 C6          9.1970   15.4560   17.1180 C.3       1 WMM         0.0433
     13 N11         6.9960   11.6480   16.2360 N.2       1 WMM        -0.2695
     14 N2         10.1850   14.9250   19.3380 N.2       1 WMM        -0.3091
     15 N12         7.0340   12.5280   17.2880 N.2       1 WMM        -0.2596
     16 N9          7.4450   13.6000   15.3900 N.pl3     1 WMM        -0.2211
     17 N13        11.3630   14.3040   21.2770 N.pl3     1 WMM        -0.2375
     18 S5         12.1430   13.4110   18.7960 S.3       1 WMM         0.0003
     19 S7          7.4780   15.1980   17.5580 S.3       1 WMM        -0.0304
     20 H1         15.4150   12.4613   24.0834 H         1 WMM         0.0519
     21 H2         13.8507   14.1061   25.0594 H         1 WMM         0.0587
     22 H3         15.0738   11.6638   21.7855 H         1 WMM         0.0587
     23 H4         11.9871   14.9456   23.6977 H         1 WMM         0.0537
     24 H5         13.1899   12.4836   20.4470 H         1 WMM         0.0537
     25 H6         11.3678   13.7459   16.4383 H         1 WMM         0.0445
     26 H7          7.2778   11.8314   14.1252 H         1 WMM         0.1260
     27 H8          9.3380   15.0988   16.0872 H         1 WMM         0.0541
     28 H9          9.3974   16.5367   17.1623 H         1 WMM         0.0541
     29 H10         7.6595   14.3573   14.7256 H         1 WMM         0.2466
     30 H11        10.6358   14.7741   21.8348 H         1 WMM         0.2213
@<TRIPOS>BOND
     1    2    1 ar 
     2    3    1 ar 
     3    4    2 ar 
     4    5    3 ar 
     5    8    4 ar 
     6    8    5 ar 
     7    9    6 2  
     8    6   18 1  
     9    7   13 2  
    10   16    7 1  
    11   17    8 1  
    12   12    9 1  
    13    9   14 1  
    14   10   15 2  
    15   10   16 1  
    16   19   10 1  
    17   14   11 2  
    18   11   17 1  
    19   11   18 1  
    20   12   19 1  
    21   13   15 1  
    22    1   20 1  
    23    2   21 1  
    24    3   22 1  
    25    4   23 1  
    26    5   24 1  
    27    6   25 1  
    28    7   26 1  
    29   12   27 1  
    30   12   28 1  
    31   16   29 1  
    32   17   30 1  
@<TRIPOS>SUBSTRUCTURE
     1 WMM         1

