### 
### Created by X-TOOL on Mon Sep 10 21:13:31 2018
### 

@<TRIPOS>MOLECULE
5b5p_ligand
   48    51     1     0     0
SMALL
GAST_HUCK


@<TRIPOS>ATOM
      1 C3        -48.4700   30.3120    6.4510 C.ar      1 WNN        -0.0620
      2 C2        -47.1000   30.1750    6.3460 C.ar      1 WNN        -0.0628
      3 C18       -44.5360   30.4860   15.2990 C.ar      1 WNN        -0.0771
      4 C4        -49.0020   30.9420    7.5540 C.ar      1 WNN        -0.0464
      5 C17       -44.4670   31.0480   14.0380 C.ar      1 WNN        -0.0695
      6 C1        -46.2640   30.6640    7.3270 C.ar      1 WNN        -0.0473
      7 C19       -43.8230   30.9990   16.3640 C.ar      1 WNN        -0.0401
      8 C21       -42.9650   32.6640   14.8800 C.ar      1 WNN        -0.0303
      9 C28       -38.5720   30.0210   20.7140 C.2       1 WNN         0.0487
     10 C5        -48.1570   31.4290    8.5250 C.ar      1 WNN         0.0666
     11 C16       -43.6730   32.1620   13.8260 C.ar      1 WNN        -0.0299
     12 C6        -46.7860   31.2980    8.4310 C.ar      1 WNN         0.0321
     13 C20       -43.0300   32.1050   16.1270 C.ar      1 WNN         0.0845
     14 C26       -38.9730   31.4220   19.2120 C.2       1 WNN         0.2052
     15 C10       -48.7470   32.0980    9.6870 C.2       1 WNN         0.2383
     16 C8        -46.4870   32.3730   10.4130 C.2       1 WNN         0.2410
     17 C12       -45.6610   32.9190   11.5200 C.2       1 WNN         0.2782
     18 C15       -43.4930   32.8890   12.5340 C.3       1 WNN         0.0625
     19 C23       -42.1020   32.0690   18.2650 C.3       1 WNN         0.0821
     20 C24       -41.2010   32.9490   19.1140 C.3       1 WNN         0.0436
     21 N27       -39.0200   31.2450   20.5670 N.2       1 WNN        -0.2873
     22 N30       -38.5180   30.3720   18.5040 N.pl3     1 WNN        -0.1819
     23 N7        -45.9210   31.7830    9.4080 N.2       1 WNN        -0.2737
     24 N29       -38.2750   29.5020   19.4960 N.2       1 WNN        -0.2036
     25 N9        -47.8360   32.5520   10.6000 N.am      1 WNN        -0.1876
     26 N14       -44.3570   32.5240   11.4560 N.am      1 WNN        -0.2654
     27 O11       -49.9600   32.2120    9.7750 O.2       1 WNN        -0.3852
     28 O13       -46.1890   33.5910   12.3910 O.2       1 WNN        -0.3598
     29 O22       -42.2470   32.7680   17.0500 O.3       1 WNN        -0.3188
     30 S25       -39.4920   32.9420   18.4900 S.3       1 WNN        -0.0334
     31 H1        -49.1200   29.9276    5.6733 H         1 WNN         0.0581
     32 H2        -46.6766   29.6767    5.4814 H         1 WNN         0.0636
     33 H3        -45.1672   29.6188   15.4559 H         1 WNN         0.0572
     34 H4        -50.0754   31.0532    7.6564 H         1 WNN         0.0652
     35 H5        -45.0321   30.6183   13.2188 H         1 WNN         0.0465
     36 H6        -45.1907   30.5485    7.2282 H         1 WNN         0.0586
     37 H7        -43.8831   30.5508   17.3492 H         1 WNN         0.0486
     38 H8        -42.3329   33.5308   14.7242 H         1 WNN         0.0479
     39 H9        -38.4565   29.5025   21.6647 H         1 WNN         0.0831
     40 H10       -42.4582   32.7212   12.2007 H         1 WNN         0.0682
     41 H11       -43.6452   33.9602   12.7325 H         1 WNN         0.0682
     42 H12       -43.0788   31.9310   18.7515 H         1 WNN         0.0624
     43 H13       -41.6356   31.0876   18.0940 H         1 WNN         0.0624
     44 H14       -41.2063   32.5749   20.1484 H         1 WNN         0.0437
     45 H15       -41.5852   33.9795   19.0947 H         1 WNN         0.0437
     46 H16       -38.3919   30.2661   17.4873 H         1 WNN         0.2593
     47 H17       -48.1584   33.0240   11.4206 H         1 WNN         0.2543
     48 H18       -44.0162   31.9953   10.6786 H         1 WNN         0.1885
@<TRIPOS>BOND
     1    2    1 ar 
     2    4    1 ar 
     3    6    2 ar 
     4    3    5 ar 
     5    7    3 ar 
     6   10    4 ar 
     7   11    5 ar 
     8   12    6 ar 
     9   13    7 ar 
    10    8   11 ar 
    11   13    8 ar 
    12   21    9 1  
    13    9   24 2  
    14   12   10 ar 
    15   15   10 1  
    16   11   18 1  
    17   23   12 1  
    18   29   13 1  
    19   14   21 2  
    20   14   22 1  
    21   30   14 1  
    22   25   15 am 
    23   15   27 2  
    24   17   16 1  
    25   16   23 2  
    26   16   25 1  
    27   26   17 am 
    28   17   28 2  
    29   18   26 1  
    30   20   19 1  
    31   19   29 1  
    32   20   30 1  
    33   22   24 1  
    34    1   31 1  
    35    2   32 1  
    36    3   33 1  
    37    4   34 1  
    38    5   35 1  
    39    6   36 1  
    40    7   37 1  
    41    8   38 1  
    42    9   39 1  
    43   18   40 1  
    44   18   41 1  
    45   19   42 1  
    46   19   43 1  
    47   20   44 1  
    48   20   45 1  
    49   22   46 1  
    50   25   47 1  
    51   26   48 1  
@<TRIPOS>SUBSTRUCTURE
     1 WNN         1

