### 
### Created by X-TOOL on Mon Sep 10 21:13:24 2018
### 

@<TRIPOS>MOLECULE
5bml_ligand
   43    45     1     0     0
SMALL
GAST_HUCK


@<TRIPOS>ATOM
      1 C1         51.7520  107.6620   37.7850 C.3       1 4TW         0.0788
      2 S2         49.9670  107.8570   37.5130 S.o2      1 4TW         0.0572
      3 O3         49.2620  106.9420   38.3600 O.2       1 4TW        -0.1501
      4 O4         49.6770  109.2520   37.4180 O.2       1 4TW        -0.1501
      5 N5         49.5840  107.3460   35.9840 N.am      1 4TW        -0.1934
      6 C6         49.8280  106.0360   35.5790 C.ar      1 4TW         0.0557
      7 C7         48.9440  104.9840   35.8970 C.ar      1 4TW        -0.0521
      8 C8         49.2230  103.6990   35.4440 C.ar      1 4TW        -0.0838
      9 C9         50.3960  103.4720   34.7160 C.ar      1 4TW        -0.0752
     10 C10        51.2860  104.5180   34.4220 C.ar      1 4TW        -0.0398
     11 C11        50.9940  105.8000   34.8420 C.ar      1 4TW        -0.0425
     12 C12        52.5350  104.3030   33.6100 C.3       1 4TW         0.0735
     13 C13        52.1690  104.4360   32.1580 C.2       1 4TW         0.2200
     14 O14        52.0400  105.5590   31.7070 O.2       1 4TW        -0.3796
     15 N15        51.9590  103.3200   31.4010 N.am      1 4TW        -0.2171
     16 C16        51.5940  103.3530   30.0280 C.2       1 4TW         0.1267
     17 C17        51.4270  102.2710   29.2580 C.2       1 4TW        -0.0562
     18 C18        51.0100  102.5220   27.9550 C.2       1 4TW        -0.0505
     19 C19        50.8440  103.8330   27.6810 C.2       1 4TW        -0.0116
     20 S20        51.2500  104.8010   29.0740 S.3       1 4TW        -0.0157
     21 C21        50.8370  101.4750   26.9000 C.ar      1 4TW        -0.0249
     22 C22        50.5070  101.8340   25.5740 C.ar      1 4TW        -0.0406
     23 C23        50.3680  100.8690   24.5960 C.ar      1 4TW         0.0002
     24 N24        50.5750   99.5990   24.8940 N.ar      1 4TW        -0.2720
     25 C25        50.9090   99.2170   26.1260 C.ar      1 4TW         0.2071
     26 C26        51.0740  100.1270   27.1560 C.ar      1 4TW         0.0024
     27 F27        51.0720   97.9030   26.3920 F         1 4TW        -0.1555
     28 H1         51.9966  106.5922   37.8611 H         1 4TW         0.0487
     29 H2         52.0386  108.1709   38.7171 H         1 4TW         0.0487
     30 H3         52.3020  108.1047   36.9415 H         1 4TW         0.0487
     31 H4         49.1702  107.9899   35.3404 H         1 4TW         0.2157
     32 H5         48.0560  105.1751   36.4886 H         1 4TW         0.0429
     33 H6         48.5401  102.8834   35.6524 H         1 4TW         0.0556
     34 H7         50.6224  102.4692   34.3721 H         1 4TW         0.0419
     35 H8         51.6633  106.6184   34.6026 H         1 4TW         0.0420
     36 H9         52.9385  103.2981   33.8034 H         1 4TW         0.0662
     37 H10        53.2889  105.0584   33.8763 H         1 4TW         0.0662
     38 H11        52.0683  102.4272   31.8379 H         1 4TW         0.2334
     39 H12        51.6056  101.2620   29.6269 H         1 4TW         0.0156
     40 H13        50.5046  104.2302   26.7255 H         1 4TW         0.0584
     41 H14        50.3614  102.8781   25.3216 H         1 4TW         0.0624
     42 H15        50.0900  101.1528   23.5874 H         1 4TW         0.0786
     43 H16        51.3814   99.7969   28.1417 H         1 4TW         0.0642
@<TRIPOS>BOND
     1    1    2 1  
     2    2    3 2  
     3    2    4 2  
     4    2    5 am 
     5    5    6 1  
     6    6    7 ar 
     7    6   11 ar 
     8    7    8 ar 
     9    8    9 ar 
    10    9   10 ar 
    11   10   11 ar 
    12   10   12 1  
    13   12   13 1  
    14   13   14 2  
    15   13   15 am 
    16   15   16 1  
    17   16   17 2  
    18   16   20 1  
    19   17   18 1  
    20   18   19 2  
    21   18   21 1  
    22   19   20 1  
    23   21   22 ar 
    24   21   26 ar 
    25   22   23 ar 
    26   23   24 ar 
    27   24   25 ar 
    28   25   26 ar 
    29   25   27 1  
    30    1   28 1  
    31    1   29 1  
    32    1   30 1  
    33    5   31 1  
    34    7   32 1  
    35    8   33 1  
    36    9   34 1  
    37   11   35 1  
    38   12   36 1  
    39   12   37 1  
    40   15   38 1  
    41   17   39 1  
    42   19   40 1  
    43   22   41 1  
    44   23   42 1  
    45   26   43 1  
@<TRIPOS>SUBSTRUCTURE
     1 4TW         1

