### 
### Created by X-TOOL on Mon Sep 10 21:13:29 2018
### 

@<TRIPOS>MOLECULE
5bmm_ligand
   94    97     1     0     0
SMALL
GAST_HUCK


@<TRIPOS>ATOM
      1 C2        -17.8220   -2.7150   -2.5840 C.2       1 FUM         0.2081
      2 O3        -18.5000   -1.8800   -3.0910 O.2       1 FUM        -0.3810
      3 C4        -18.4740   -3.9300   -1.9730 C.2       1 FUM         0.0331
      4 C5        -19.8760   -3.9520   -1.7740 C.2       1 FUM         0.0332
      5 C6        -20.5570   -5.2360   -1.2130 C.2       1 FUM         0.2087
      6 O7        -20.3100   -5.6100   -0.0860 O.2       1 FUM        -0.3810
      7 N         -21.4950   -5.9920   -2.0460 N.am      1 ALC        -0.2643
      8 CA        -22.1080   -7.1620   -1.5370 C.3       1 ALC         0.1307
      9 C         -21.3870   -8.3800   -2.1150 C.2       1 ALC         0.2040
     10 O         -20.8490   -9.1790   -1.3730 O.2       1 ALC        -0.3944
     11 CB        -23.5800   -7.1850   -1.9340 C.3       1 ALC        -0.0096
     12 CG        -24.4840   -7.8700   -0.8540 C.3       1 ALC        -0.0368
     13 CD2       -25.9540   -7.6380   -1.2020 C.3       1 ALC        -0.0500
     14 CE2       -26.3900   -6.1970   -0.9710 C.3       1 ALC        -0.0528
     15 CZ        -26.0780   -5.7340    0.4430 C.3       1 ALC        -0.0530
     16 CE1       -24.5990   -5.9180    0.7790 C.3       1 ALC        -0.0528
     17 CD1       -24.1240   -7.3430    0.5330 C.3       1 ALC        -0.0500
     18 N         -21.3400   -8.5780   -3.5550 N.am      1 PFF        -0.2620
     19 CA        -20.6570   -9.7190   -4.1050 C.3       1 PFF         0.1399
     20 C         -19.6370   -9.2210   -5.1550 C.2       1 PFF         0.2060
     21 O         -18.6910   -9.9290   -5.4960 O.2       1 PFF        -0.3942
     22 CB        -21.6330  -10.6470   -4.7390 C.3       1 PFF         0.0196
     23 CG        -22.6760  -11.1480   -3.7300 C.ar      1 PFF        -0.0424
     24 CD1       -22.4010  -12.2630   -2.9550 C.ar      1 PFF        -0.0618
     25 CD2       -23.9020  -10.4790   -3.5940 C.ar      1 PFF        -0.0618
     26 CE1       -23.3480  -12.7230   -2.0350 C.ar      1 PFF        -0.0349
     27 CE2       -24.8420  -10.9370   -2.6800 C.ar      1 PFF        -0.0349
     28 CZ        -24.5640  -12.0620   -1.8990 C.ar      1 PFF         0.1248
     29 F         -25.4750  -12.5060   -1.0120 F         1 PFF        -0.1893
     30 N         -19.8180   -7.8690   -5.7410 N.am      1 PPN        -0.2617
     31 CA        -18.9060   -7.3620   -6.6960 C.3       1 PPN         0.1411
     32 C         -18.1310   -6.2240   -6.0210 C.2       1 PPN         0.2039
     33 O         -18.7410   -5.3390   -5.4240 O.2       1 PPN        -0.3943
     34 CB        -19.6450   -6.8050   -7.8880 C.3       1 PPN         0.0242
     35 CG        -20.3230   -7.8790   -8.7850 C.ar      1 PPN        -0.0326
     36 CD1       -21.6030   -8.3520   -8.4720 C.ar      1 PPN        -0.0515
     37 CD2       -19.6630   -8.3620   -9.9010 C.ar      1 PPN        -0.0515
     38 CE1       -22.2090   -9.3070   -9.2800 C.ar      1 PPN        -0.0253
     39 CE2       -20.2710   -9.3190  -10.7100 C.ar      1 PPN        -0.0253
     40 CZ        -21.5490   -9.7900  -10.3950 C.ar      1 PPN         0.1925
     41 N1        -22.1710  -10.7750  -11.2280 N.2       1 PPN         0.3095
     42 O1        -21.6880  -11.0460  -12.3300 O.2       1 PPN         0.1751
     43 O2        -23.1740  -11.3390  -10.8520 O.2       1 PPN         0.1751
     44 N         -16.4060   -2.6630   -2.7320 N.am      1 ORN        -0.2701
     45 CA        -15.5830   -3.6540   -2.1340 C.3       1 ORN         0.0939
     46 CB        -14.8520   -4.4090   -3.2170 C.3       1 ORN        -0.0162
     47 CG        -15.7530   -5.4270   -3.9360 C.3       1 ORN        -0.0291
     48 CD        -15.9620   -5.1000   -5.4270 C.3       1 ORN         0.0311
     49 NE        -16.6730   -6.1870   -6.0770 N.am      1 ORN        -0.2849
     50 C         -14.5660   -2.9990   -1.2130 C.2       1 ORN         0.0600
     51 O         -13.3670   -2.8830   -1.5800 O.co2     1 ORN        -0.5666
     52 OXT       -14.9220   -2.5730   -0.0760 O.co2     1 ORN        -0.5666
     53 H1        -17.8683   -4.7882   -1.6856 H         1 FUM         0.0827
     54 H2        -20.4757   -3.0748   -2.0122 H         1 FUM         0.0827
     55 H3        -21.7023   -5.6818   -2.9738 H         1 ALC         0.1875
     56 H4        -22.0274   -7.1737   -0.4400 H         1 ALC         0.0799
     57 H5        -23.6813   -7.7372   -2.8799 H         1 ALC         0.0315
     58 H6        -23.9231   -6.1495   -2.0753 H         1 ALC         0.0315
     59 H7        -24.2936   -8.9533   -0.8689 H         1 ALC         0.0303
     60 H8        -26.5727   -8.2979   -0.5761 H         1 ALC         0.0268
     61 H9        -26.1087   -7.8872   -2.2622 H         1 ALC         0.0268
     62 H10       -27.4744   -6.1214   -1.1395 H         1 ALC         0.0265
     63 H11       -25.8619   -5.5463   -1.6836 H         1 ALC         0.0265
     64 H12       -26.6812   -6.3198    1.1522 H         1 ALC         0.0265
     65 H13       -26.3356   -4.6686    0.5353 H         1 ALC         0.0265
     66 H14       -24.4438   -5.6715    1.8397 H         1 ALC         0.0265
     67 H15       -24.0063   -5.2346    0.1532 H         1 ALC         0.0265
     68 H16       -23.0299   -7.3700    0.6434 H         1 ALC         0.0268
     69 H17       -24.5848   -7.9992    1.2860 H         1 ALC         0.0268
     70 H18       -21.7831   -7.9201   -4.1640 H         1 PFF         0.1885
     71 H19       -20.1256  -10.2497   -3.3013 H         1 PFF         0.0823
     72 H20       -21.0894  -11.5110   -5.1488 H         1 PFF         0.0466
     73 H21       -22.1499  -10.1189   -5.5538 H         1 PFF         0.0466
     74 H22       -21.4531  -12.7779   -3.0617 H         1 PFF         0.0547
     75 H23       -24.1149   -9.6065   -4.2011 H         1 PFF         0.0547
     76 H24       -23.1344  -13.5951   -1.4276 H         1 PFF         0.0587
     77 H25       -25.7901  -10.4225   -2.5726 H         1 PFF         0.0587
     78 H26       -20.5959   -7.3087   -5.4565 H         1 PPN         0.1885
     79 H27       -18.2181   -8.1562   -7.0216 H         1 PPN         0.0825
     80 H28       -18.9280   -6.2443   -8.5056 H         1 PPN         0.0486
     81 H29       -20.4250   -6.1221   -7.5204 H         1 PPN         0.0486
     82 H30       -22.1219   -7.9732   -7.5989 H         1 PPN         0.0574
     83 H31       -18.6726   -7.9956  -10.1458 H         1 PPN         0.0574
     84 H32       -23.1996   -9.6733   -9.0359 H         1 PPN         0.0676
     85 H33       -19.7534   -9.6985  -11.5836 H         1 PPN         0.0676
     86 H34       -15.9887   -1.9237   -3.2605 H         1 ORN         0.1867
     87 H35       -16.2082   -4.3496   -1.5550 H         1 ORN         0.0725
     88 H36       -14.0057   -4.9456   -2.7633 H         1 ORN         0.0306
     89 H37       -14.4746   -3.6877   -3.9568 H         1 ORN         0.0306
     90 H38       -16.7343   -5.4387   -3.4391 H         1 ORN         0.0286
     91 H39       -15.2901   -6.4217   -3.8571 H         1 ORN         0.0286
     92 H40       -14.9837   -4.9633   -5.9110 H         1 ORN         0.0520
     93 H41       -16.5489   -4.1742   -5.5185 H         1 ORN         0.0520
     94 H42       -16.1682   -6.9035   -6.5585 H         1 ORN         0.1851
@<TRIPOS>BOND
     1    1    2 2  
     2    1    3 1  
     3    1   44 am 
     4    3    4 2  
     5    4    5 1  
     6    5    6 2  
     7    5    7 am 
     8    7    8 1  
     9    8    9 1  
    10    8   11 1  
    11    9   10 2  
    12    9   18 am 
    13   11   12 1  
    14   12   13 1  
    15   12   17 1  
    16   13   14 1  
    17   14   15 1  
    18   15   16 1  
    19   16   17 1  
    20   18   19 1  
    21   19   20 1  
    22   19   22 1  
    23   20   21 2  
    24   20   30 am 
    25   22   23 1  
    26   23   24 ar 
    27   23   25 ar 
    28   24   26 ar 
    29   25   27 ar 
    30   26   28 ar 
    31   27   28 ar 
    32   28   29 1  
    33   30   31 1  
    34   31   32 1  
    35   31   34 1  
    36   32   33 2  
    37   32   49 am 
    38   34   35 1  
    39   35   36 ar 
    40   35   37 ar 
    41   36   38 ar 
    42   37   39 ar 
    43   38   40 ar 
    44   39   40 ar 
    45   40   41 1  
    46   41   42 2  
    47   41   43 2  
    48   44   45 1  
    49   45   46 1  
    50   45   50 1  
    51   46   47 1  
    52   47   48 1  
    53   48   49 1  
    54   50   51 ar 
    55   50   52 ar 
    56    3   53 1  
    57    4   54 1  
    58    7   55 1  
    59    8   56 1  
    60   11   57 1  
    61   11   58 1  
    62   12   59 1  
    63   13   60 1  
    64   13   61 1  
    65   14   62 1  
    66   14   63 1  
    67   15   64 1  
    68   15   65 1  
    69   16   66 1  
    70   16   67 1  
    71   17   68 1  
    72   17   69 1  
    73   18   70 1  
    74   19   71 1  
    75   22   72 1  
    76   22   73 1  
    77   24   74 1  
    78   25   75 1  
    79   26   76 1  
    80   27   77 1  
    81   30   78 1  
    82   31   79 1  
    83   34   80 1  
    84   34   81 1  
    85   36   82 1  
    86   37   83 1  
    87   38   84 1  
    88   39   85 1  
    89   44   86 1  
    90   45   87 1  
    91   46   88 1  
    92   46   89 1  
    93   47   90 1  
    94   47   91 1  
    95   48   92 1  
    96   48   93 1  
    97   49   94 1  
@<TRIPOS>SUBSTRUCTURE
     1 FUM         1

