### 
### Created by X-TOOL on Mon Sep 10 21:13:23 2018
### 

@<TRIPOS>MOLECULE
5bms_ligand
   44    48     1     0     0
SMALL
GAST_HUCK


@<TRIPOS>ATOM
      1 C4        -32.4630   15.6050  -11.2790 C.ar      1 4T6         0.0400
      2 C5        -33.3170   15.7740  -12.3800 C.ar      1 4T6         0.0424
      3 C6        -33.9540   14.6750  -12.9320 C.ar      1 4T6        -0.0207
      4 C7        -34.8780   14.8300  -14.1170 C.3       1 4T6         0.0593
      5 C13       -37.0590   11.4770  -15.2010 C.ar      1 4T6         0.1305
      6 C17       -34.0720   11.3050  -16.2490 C.2       1 4T6        -0.0253
      7 C22       -31.7050   11.6170  -17.1930 C.3       1 4T6         0.0197
      8 C24       -31.6110   13.1420  -17.2640 C.3       1 4T6        -0.0344
      9 C1        -33.7440   13.4090  -12.4020 C.ar      1 4T6        -0.0686
     10 C2        -32.9060   13.2290  -11.3200 C.ar      1 4T6        -0.0437
     11 C3        -32.2590   14.3190  -10.7480 C.ar      1 4T6         0.0780
     12 N8        -36.2850   14.6550  -13.7280 N.pl3     1 4T6        -0.2822
     13 C9        -37.0030   13.5300  -14.1220 C.ar      1 4T6         0.1756
     14 N10       -38.2870   13.4350  -13.7970 N.ar      1 4T6        -0.2730
     15 C11       -39.0080   12.3780  -14.1500 C.ar      1 4T6        -0.0003
     16 C12       -38.4120   11.3600  -14.8670 C.ar      1 4T6        -0.0033
     17 N14       -36.3990   12.5680  -14.8110 N.ar      1 4T6        -0.2390
     18 N15       -36.4500   10.4480  -15.9230 N.pl3     1 4T6        -0.2583
     19 C16       -35.1890   10.5030  -16.5590 C.2       1 4T6         0.0972
     20 C18       -33.0820   11.0060  -17.1290 C.2       1 4T6         0.0620
     21 N19       -33.5380   10.0520  -17.9600 N.pl3     1 4T6        -0.2332
     22 N21       -34.8500    9.7540  -17.5810 N.2       1 4T6        -0.2284
     23 C23       -31.2170   12.4100  -15.9780 C.3       1 4T6        -0.0344
     24 CL1       -33.5610   17.3690  -13.0250 Cl        1 4T6        -0.0845
     25 N26       -31.7160   16.4630  -10.5310 N.2       1 4T6        -0.3086
     26 C27       -31.0860   15.8040   -9.6030 C.2       1 4T6         0.1019
     27 N28       -31.3840   14.4780   -9.6890 N.pl3     1 4T6        -0.2537
     28 H1        -34.6195   14.0744  -14.8734 H         1 4T6         0.0670
     29 H2        -34.7473   15.8355  -14.5434 H         1 4T6         0.0670
     30 H3        -34.0133   12.0365  -15.4444 H         1 4T6         0.0219
     31 H4        -31.0184   10.9767  -17.7662 H         1 4T6         0.0507
     32 H5        -32.5280   13.7488  -17.2925 H         1 4T6         0.0295
     33 H6        -30.8376   13.6170  -17.8854 H         1 4T6         0.0295
     34 H7        -34.2431   12.5534  -12.8423 H         1 4T6         0.0500
     35 H8        -32.7518   12.2353  -10.9151 H         1 4T6         0.0542
     36 H9        -36.7463   15.3761  -13.1551 H         1 4T6         0.1885
     37 H10       -40.0553   12.3147  -13.8777 H         1 4T6         0.0845
     38 H11       -38.9815   10.4872  -15.1652 H         1 4T6         0.0575
     39 H12       -36.9708    9.5626  -15.9994 H         1 4T6         0.2126
     40 H13       -33.0153    9.6195  -18.7350 H         1 4T6         0.2454
     41 H14       -30.1606   12.3588  -15.6757 H         1 4T6         0.0295
     42 H15       -31.8511   12.4906  -15.0828 H         1 4T6         0.0295
     43 H16       -30.4184   16.2475   -8.8657 H         1 4T6         0.1347
     44 H17       -31.0240   13.7311   -9.0779 H         1 4T6         0.2329
@<TRIPOS>BOND
     1    2    1 ar 
     2    1   11 ar 
     3    1   25 1  
     4    3    2 ar 
     5    2   24 1  
     6    4    3 1  
     7    3    9 ar 
     8   12    4 1  
     9    5   16 ar 
    10    5   17 ar 
    11   18    5 1  
    12   19    6 1  
    13    6   20 2  
    14    7    8 1  
    15   20    7 1  
    16    7   23 1  
    17   23    8 1  
    18    9   10 ar 
    19   10   11 ar 
    20   11   27 1  
    21   13   12 1  
    22   13   14 ar 
    23   17   13 ar 
    24   15   14 ar 
    25   16   15 ar 
    26   18   19 1  
    27   19   22 2  
    28   20   21 1  
    29   21   22 1  
    30   25   26 2  
    31   26   27 1  
    32    4   28 1  
    33    4   29 1  
    34    6   30 1  
    35    7   31 1  
    36    8   32 1  
    37    8   33 1  
    38    9   34 1  
    39   10   35 1  
    40   12   36 1  
    41   15   37 1  
    42   16   38 1  
    43   18   39 1  
    44   21   40 1  
    45   23   41 1  
    46   23   42 1  
    47   26   43 1  
    48   27   44 1  
@<TRIPOS>SUBSTRUCTURE
     1 4T6         1

