### 
### Created by X-TOOL on Mon Sep 10 21:13:25 2018
### 

@<TRIPOS>MOLECULE
5bnj_ligand
   54    58     1     0     0
SMALL
GAST_HUCK


@<TRIPOS>ATOM
      1 C1         37.5450   55.8820   45.9430 C.3       1 4TV         0.0615
      2 C3         38.8030   56.9580   47.8320 C.2       1 4TV         0.0641
      3 C4         39.7420   56.5680   48.7420 C.2       1 4TV         0.0012
      4 C5         40.0140   55.2090   48.4870 C.2       1 4TV         0.0063
      5 C7         40.3650   57.4170   49.8010 C.ar      1 4TV        -0.0357
      6 C8         40.4500   58.8130   49.6500 C.ar      1 4TV        -0.0625
      7 C11        41.4690   57.6060   51.9350 C.ar      1 4TV        -0.0603
      8 C12        40.8870   56.8250   50.9580 C.ar      1 4TV        -0.0625
      9 C16        43.5310   61.2680   54.7360 C.ar      1 4TV         0.0096
     10 C17        42.3710   60.6310   55.1280 C.ar      1 4TV         0.0846
     11 C19        41.6590   59.8610   54.1940 C.ar      1 4TV         0.0841
     12 C21        40.5660   58.0030   55.4170 C.3       1 4TV         0.0299
     13 C23        38.0210   58.1310   55.6090 C.3       1 4TV         0.0568
     14 C24        37.6330   56.9590   54.6780 C.3       1 4TV        -0.0202
     15 C27        36.9070   58.1590   56.6250 C.2       1 4TV         0.2020
     16 O28        36.6290   59.1020   57.3350 O.2       1 4TV        -0.3443
     17 C30        39.2420   59.4320   53.8520 C.3       1 4TV         0.0299
     18 N2         38.5060   55.9010   47.0500 N.pl3     1 4TV        -0.2055
     19 N6         39.2780   54.8210   47.4800 N.2       1 4TV        -0.2133
     20 C9         41.0350   59.5970   50.6330 C.ar      1 4TV        -0.0603
     21 C10        41.5470   58.9960   51.7860 C.ar      1 4TV        -0.0210
     22 C13        42.1820   59.7880   52.8670 C.ar      1 4TV         0.0260
     23 C14        43.3710   60.4680   52.5710 C.ar      1 4TV         0.0038
     24 N15        43.9960   61.1760   53.4960 N.ar      1 4TV        -0.3157
     25 CL1        41.8370   60.8110   56.7760 Cl        1 4TV        -0.0723
     26 N20        40.4830   59.2300   54.6120 N.pl3     1 4TV        -0.2986
     27 C22        39.3450   57.8860   56.3410 C.3       1 4TV        -0.0201
     28 C25        36.8520   56.0530   55.6500 C.3       1 4TV         0.0306
     29 N26        36.2680   56.9740   56.6320 N.am      1 4TV        -0.2859
     30 C29        38.0660   59.4470   54.8310 C.3       1 4TV        -0.0201
     31 H1         37.0878   56.8769   45.8373 H         1 4TV         0.0607
     32 H2         36.7613   55.1385   46.1505 H         1 4TV         0.0607
     33 H3         38.0648   55.6165   45.0107 H         1 4TV         0.0607
     34 H4         38.3679   57.9531   47.7513 H         1 4TV         0.1040
     35 H5         40.7189   54.5871   49.0368 H         1 4TV         0.0675
     36 H6         40.0541   59.2808   48.7559 H         1 4TV         0.0574
     37 H7         41.8700   57.1387   52.8271 H         1 4TV         0.0601
     38 H8         40.8335   55.7499   51.0862 H         1 4TV         0.0574
     39 H9         44.0777   61.8600   55.4610 H         1 4TV         0.0776
     40 H10        41.4809   58.0308   56.0270 H         1 4TV         0.0521
     41 H11        40.5984   57.1313   54.7469 H         1 4TV         0.0521
     42 H12        38.5224   56.4498   54.2783 H         1 4TV         0.0277
     43 H13        36.9993   57.2980   53.8452 H         1 4TV         0.0277
     44 H14        39.1123   58.6125   53.1298 H         1 4TV         0.0521
     45 H15        39.2887   60.3905   53.3144 H         1 4TV         0.0521
     46 H16        41.0949   60.6720   50.5074 H         1 4TV         0.0601
     47 H17        43.7837   60.4127   51.5702 H         1 4TV         0.0777
     48 H18        39.4427   58.6269   57.1481 H         1 4TV         0.0277
     49 H19        39.3262   56.8743   56.7723 H         1 4TV         0.0277
     50 H20        37.5283   55.3389   56.1426 H         1 4TV         0.0520
     51 H21        36.0625   55.5026   55.1174 H         1 4TV         0.0520
     52 H22        35.4967   56.7507   57.2281 H         1 4TV         0.1857
     53 H23        38.1880   60.2832   55.5351 H         1 4TV         0.0277
     54 H24        37.1272   59.5726   54.2717 H         1 4TV         0.0277
@<TRIPOS>BOND
     1   18    1 1  
     2    3    2 2  
     3    2   18 1  
     4    3    4 1  
     5    5    3 1  
     6    4   19 2  
     7    6    5 ar 
     8    8    5 ar 
     9   20    6 ar 
    10    7    8 ar 
    11   21    7 ar 
    12   10    9 ar 
    13    9   24 ar 
    14   11   10 ar 
    15   10   25 1  
    16   22   11 ar 
    17   11   26 1  
    18   26   12 1  
    19   12   27 1  
    20   13   14 1  
    21   13   15 1  
    22   27   13 1  
    23   30   13 1  
    24   14   28 1  
    25   15   16 2  
    26   15   29 am 
    27   26   17 1  
    28   17   30 1  
    29   19   18 1  
    30   21   20 ar 
    31   21   22 1  
    32   22   23 ar 
    33   23   24 ar 
    34   28   29 1  
    35    1   31 1  
    36    1   32 1  
    37    1   33 1  
    38    2   34 1  
    39    4   35 1  
    40    6   36 1  
    41    7   37 1  
    42    8   38 1  
    43    9   39 1  
    44   12   40 1  
    45   12   41 1  
    46   14   42 1  
    47   14   43 1  
    48   17   44 1  
    49   17   45 1  
    50   20   46 1  
    51   23   47 1  
    52   27   48 1  
    53   27   49 1  
    54   28   50 1  
    55   28   51 1  
    56   29   52 1  
    57   30   53 1  
    58   30   54 1  
@<TRIPOS>SUBSTRUCTURE
     1 4TV         1

