### 
### Created by X-TOOL on Mon Sep 10 21:13:22 2018
### 

@<TRIPOS>MOLECULE
5boj_ligand
   39    39     1     0     0
SMALL
GAST_HUCK


@<TRIPOS>ATOM
      1 C8         -0.2170   -0.7090    8.5210 C.ar      1 4TX        -0.0385
      2 C6         -0.9080    0.8040    6.0700 C.3       1 4TX         0.0686
      3 C5          0.2090    0.4180    5.1340 C.3       1 4TX        -0.0254
      4 C1          0.7320    0.1510    2.6760 C.3       1 4TX         0.0105
      5 C9          0.0040   -1.2670    9.7780 C.ar      1 4TX        -0.0616
      6 C10         0.3510   -0.4610   10.8480 C.ar      1 4TX        -0.0783
      7 C11         0.4930    0.9060   10.6810 C.ar      1 4TX        -0.0755
      8 O          -1.1820    0.0790    1.2840 O.co2     1 4TX        -0.5475
      9 C           0.0290   -0.0370    1.3540 C.2       1 4TX         0.0504
     10 O1          0.6990   -0.3190    0.2400 O.co2     1 4TX        -0.5475
     11 C2          1.5570   -1.0790    3.0220 C.3       1 4TX        -0.0553
     12 C3          1.6370    1.3660    2.5690 C.3       1 4TX        -0.0553
     13 C4         -0.3470    0.3440    3.7260 C.3       1 4TX        -0.0410
     14 O2         -0.2620    1.3460    7.2040 O.3       1 4TX        -0.3234
     15 C7         -0.0780    0.6720    8.3700 C.ar      1 4TX         0.0862
     16 C12         0.2670    1.4670    9.4300 C.ar      1 4TX        -0.0234
     17 C13         0.4030    2.9400    9.1490 C.3       1 4TX        -0.0362
     18 C14        -0.1450   -2.7450   10.0060 C.3       1 4TX        -0.0367
     19 H1         -0.4910   -1.3334    7.6783 H         1 4TX         0.0461
     20 H2         -1.5021   -0.0789    6.3483 H         1 4TX         0.0611
     21 H3         -1.5628    1.5541    5.6024 H         1 4TX         0.0611
     22 H4          0.6146   -0.5623    5.4247 H         1 4TX         0.0290
     23 H5          1.0077    1.1730    5.1782 H         1 4TX         0.0290
     24 H6          0.5129   -0.9033   11.8243 H         1 4TX         0.0446
     25 H7          0.7778    1.5328   11.5183 H         1 4TX         0.0510
     26 H8          2.0609   -0.9229    3.9873 H         1 4TX         0.0227
     27 H9          2.3102   -1.2477    2.2383 H         1 4TX         0.0227
     28 H10         0.8966   -1.9560    3.0908 H         1 4TX         0.0227
     29 H11         1.0341    2.2513    2.3187 H         1 4TX         0.0227
     30 H12         2.3855    1.1974    1.7808 H         1 4TX         0.0227
     31 H13         2.1468    1.5293    3.5300 H         1 4TX         0.0227
     32 H14        -0.8834    1.2798    3.5105 H         1 4TX         0.0263
     33 H15        -1.0478   -0.5019    3.6690 H         1 4TX         0.0263
     34 H16         0.6814    3.4656   10.0743 H         1 4TX         0.0355
     35 H17        -0.5554    3.3327    8.7785 H         1 4TX         0.0355
     36 H18         1.1824    3.0979    8.3890 H         1 4TX         0.0355
     37 H19        -0.4215   -3.2357    9.0611 H         1 4TX         0.0376
     38 H20        -0.9305   -2.9231   10.7552 H         1 4TX         0.0376
     39 H21         0.8079   -3.1580   10.3684 H         1 4TX         0.0376
@<TRIPOS>BOND
     1    1    5 ar 
     2   15    1 ar 
     3    2    3 1  
     4   14    2 1  
     5    3   13 1  
     6    4    9 1  
     7    4   11 1  
     8    4   12 1  
     9   13    4 1  
    10    5    6 ar 
    11    5   18 1  
    12    6    7 ar 
    13    7   16 ar 
    14    9    8 ar 
    15    9   10 ar 
    16   14   15 1  
    17   15   16 ar 
    18   16   17 1  
    19    1   19 1  
    20    2   20 1  
    21    2   21 1  
    22    3   22 1  
    23    3   23 1  
    24    6   24 1  
    25    7   25 1  
    26   11   26 1  
    27   11   27 1  
    28   11   28 1  
    29   12   29 1  
    30   12   30 1  
    31   12   31 1  
    32   13   32 1  
    33   13   33 1  
    34   17   34 1  
    35   17   35 1  
    36   17   36 1  
    37   18   37 1  
    38   18   38 1  
    39   18   39 1  
@<TRIPOS>SUBSTRUCTURE
     1 4TX         1

