### 
### Created by X-TOOL on Mon Sep 10 21:13:22 2018
### 

@<TRIPOS>MOLECULE
5bot_ligand
   29    30     1     0     0
SMALL
GAST_HUCK


@<TRIPOS>ATOM
      1 C10        -7.1070   27.4260   52.3360 C.2       1 4UM         0.2853
      2 C11       -11.0830   27.4880   46.0100 C.2       1 4UM         0.1946
      3 C16        -7.2700   27.5800   54.7090 C.3       1 4UM         0.0727
      4 C17        -6.6920   26.4800   55.6050 C.3       1 4UM        -0.0373
      5 C1         -9.1400   27.3810   49.2490 C.ar      1 4UM        -0.0104
      6 C2         -8.0350   28.1820   48.8900 C.ar      1 4UM         0.0721
      7 C3         -8.9430   26.9710   50.6050 C.2       1 4UM        -0.0357
      8 C4        -10.1400   27.1550   48.2970 C.ar      1 4UM        -0.0496
      9 N5         -7.2160   28.2590   49.9820 N.pl3     1 4UM        -0.2640
     10 C6         -7.9500   28.7370   47.6160 C.ar      1 4UM        -0.0355
     11 C7         -7.7550   27.5140   51.0170 C.2       1 4UM         0.1455
     12 C8        -10.0280   27.7060   47.0220 C.ar      1 4UM         0.0355
     13 C9         -8.9310   28.5110   46.6980 C.ar      1 4UM        -0.0545
     14 O12        -7.7460   27.0060   53.4520 O.3       1 4UM        -0.2769
     15 O13        -5.9640   27.8220   52.4440 O.2       1 4UM        -0.3563
     16 N14       -12.2830   28.0810   46.1710 N.am      1 4UM        -0.3015
     17 O15       -10.8870   26.7690   45.0510 O.2       1 4UM        -0.3892
     18 H1         -6.4882   28.3240   54.4961 H         1 4UM         0.0608
     19 H2         -8.1090   28.0676   55.2269 H         1 4UM         0.0608
     20 H3         -6.3373   26.9232   56.5472 H         1 4UM         0.0255
     21 H4         -5.8515   25.9917   55.0902 H         1 4UM         0.0255
     22 H5         -7.4722   25.7353   55.8210 H         1 4UM         0.0255
     23 H6         -9.6103   26.3463   51.1969 H         1 4UM         0.0411
     24 H7        -11.0030   26.5505   48.5516 H         1 4UM         0.0624
     25 H8         -6.3342   28.7893   50.0276 H         1 4UM         0.2272
     26 H9         -7.0977   29.3530   47.3527 H         1 4UM         0.0560
     27 H10        -8.8611   28.9569   45.7124 H         1 4UM         0.0594
     28 H11       -13.0048   27.9412   45.4932 H         1 4UM         0.1806
     29 H12       -12.4513   28.6607   46.9683 H         1 4UM         0.1806
@<TRIPOS>BOND
     1   11    1 1  
     2    1   14 1  
     3    1   15 2  
     4   12    2 1  
     5    2   16 am 
     6    2   17 2  
     7    3    4 1  
     8   14    3 1  
     9    5    6 ar 
    10    5    7 1  
    11    8    5 ar 
    12    6    9 1  
    13    6   10 ar 
    14    7   11 2  
    15    8   12 ar 
    16    9   11 1  
    17   10   13 ar 
    18   12   13 ar 
    19    3   18 1  
    20    3   19 1  
    21    4   20 1  
    22    4   21 1  
    23    4   22 1  
    24    7   23 1  
    25    8   24 1  
    26    9   25 1  
    27   10   26 1  
    28   13   27 1  
    29   16   28 1  
    30   16   29 1  
@<TRIPOS>SUBSTRUCTURE
     1 4UM         1

