### 
### Created by X-TOOL on Mon Sep 10 21:13:21 2018
### 

@<TRIPOS>MOLECULE
5boy_ligand
   35    37     1     0     0
SMALL
GAST_HUCK


@<TRIPOS>ATOM
      1 C1        -10.3190   26.8500   46.3440 C.ar      1 4UE        -0.0120
      2 C2         -9.1790   27.6450   46.1320 C.ar      1 4UE        -0.0654
      3 C3         -8.2500   27.7930   47.1220 C.ar      1 4UE        -0.0402
      4 C5         -9.5790   26.3550   48.5760 C.ar      1 4UE        -0.0179
      5 N7         -7.6970   27.1160   49.5020 N.pl3     1 4UE        -0.2663
      6 C9         -9.4890   25.8380   49.8940 C.2       1 4UE        -0.0379
      7 C10        -7.8450   26.0740   51.7850 C.2       1 4UE         0.2850
      8 C14        -6.4430   27.0800   54.6490 C.3       1 4UE        -0.0373
      9 C15       -12.6750   26.7320   45.4200 C.2       1 4UE        -0.0136
     10 C16       -11.3230   26.6700   45.2720 C.2       1 4UE         0.0735
     11 C18       -12.2920   26.2940   43.3360 C.2       1 4UE         0.0984
     12 C20        -9.7840   26.2120   43.2940 C.3       1 4UE         0.0466
     13 O11        -8.4100   25.2850   52.5170 O.2       1 4UE        -0.3564
     14 O12        -6.7940   26.7660   52.2550 O.3       1 4UE        -0.2770
     15 C13        -7.0980   27.6310   53.3830 C.3       1 4UE         0.0727
     16 C8         -8.3370   26.3200   50.4280 C.2       1 4UE         0.1443
     17 C6         -8.4380   27.1540   48.3500 C.ar      1 4UE         0.0675
     18 C4        -10.5140   26.2000   47.5570 C.ar      1 4UE        -0.0635
     19 N17       -11.0880   26.3740   43.9440 N.pl3     1 4UE        -0.2493
     20 N19       -13.2280   26.5010   44.2230 N.2       1 4UE        -0.3254
     21 H1         -9.0369   28.1423   45.1793 H         1 4UE         0.0547
     22 H2         -7.3701   28.4039   46.9556 H         1 4UE         0.0552
     23 H3         -6.8030   27.6049   49.6524 H         1 4UE         0.2263
     24 H4        -10.2061   25.1807   50.3836 H         1 4UE         0.0404
     25 H5         -6.6764   27.7383   55.4988 H         1 4UE         0.0255
     26 H6         -5.3530   27.0354   54.5083 H         1 4UE         0.0255
     27 H7         -6.8282   26.0697   54.8513 H         1 4UE         0.0255
     28 H8        -13.2107   26.9335   46.3465 H         1 4UE         0.0476
     29 H9        -12.4553   26.0902   42.2788 H         1 4UE         0.1231
     30 H10        -8.9849   26.3303   44.0407 H         1 4UE         0.0582
     31 H11        -9.6682   26.9741   42.5093 H         1 4UE         0.0582
     32 H12        -9.7203   25.2101   42.8445 H         1 4UE         0.0582
     33 H13        -6.7125   28.6415   53.1825 H         1 4UE         0.0608
     34 H14        -8.1878   27.6758   53.5255 H         1 4UE         0.0608
     35 H15       -11.3880   25.5769   47.7082 H         1 4UE         0.0542
@<TRIPOS>BOND
     1    1    2 ar 
     2    1   10 1  
     3   18    1 ar 
     4    3    2 ar 
     5   17    3 ar 
     6    6    4 1  
     7    4   17 ar 
     8    4   18 ar 
     9   16    5 1  
    10    5   17 1  
    11   16    6 2  
    12    7   13 2  
    13   14    7 1  
    14    7   16 1  
    15   15    8 1  
    16   10    9 2  
    17    9   20 1  
    18   10   19 1  
    19   19   11 1  
    20   11   20 2  
    21   19   12 1  
    22   14   15 1  
    23    2   21 1  
    24    3   22 1  
    25    5   23 1  
    26    6   24 1  
    27    8   25 1  
    28    8   26 1  
    29    8   27 1  
    30    9   28 1  
    31   11   29 1  
    32   12   30 1  
    33   12   31 1  
    34   12   32 1  
    35   15   33 1  
    36   15   34 1  
    37   18   35 1  
@<TRIPOS>SUBSTRUCTURE
     1 4UE         1

