### 
### Created by X-TOOL on Mon Sep 10 21:13:25 2018
### 

@<TRIPOS>MOLECULE
5bpa_ligand
   54    57     1     0     0
SMALL
GAST_HUCK


@<TRIPOS>ATOM
      1 C1        -10.7770   23.6220   47.6710 C.ar      1 4UF        -0.0592
      2 C2        -10.6930   24.1290   46.3820 C.ar      1 4UF        -0.0026
      3 C3         -9.5690   24.8600   45.9820 C.ar      1 4UF        -0.0622
      4 C4         -8.5630   25.1040   46.8560 C.ar      1 4UF        -0.0384
      5 C5         -9.7470   23.8650   48.5760 C.ar      1 4UF        -0.0150
      6 C6         -8.6310   24.6110   48.1600 C.ar      1 4UF         0.0694
      7 C8         -8.3230   24.0130   50.2810 C.2       1 4UF         0.1449
      8 C9         -9.5270   23.5020   49.9310 C.2       1 4UF        -0.0370
      9 C10        -7.7040   23.9200   51.5910 C.2       1 4UF         0.2851
     10 C13        -7.4930   22.9320   53.6840 C.3       1 4UF         0.0727
     11 C14        -7.9030   23.6370   54.9740 C.3       1 4UF        -0.0373
     12 C15       -11.7850   23.8380   45.4370 C.2       1 4UF         0.0881
     13 C18       -13.7400   23.5110   44.4980 C.2       1 4UF         0.1082
     14 C19       -13.1250   23.9070   45.6960 C.2       1 4UF        -0.0237
     15 C20       -10.3700   23.1780   43.4690 C.3       1 4UF         0.0606
     16 C21       -15.1890   23.3920   44.2720 C.2       1 4UF         0.2120
     17 O23       -15.9680   23.9960   44.9810 O.2       1 4UF        -0.3851
     18 O33       -18.9870   16.5710   45.4030 O.co2     1 4UF        -0.5625
     19 C31       -18.8530   17.7550   46.0240 C.2       1 4UF         0.0584
     20 O32       -19.1220   17.8450   47.2070 O.co2     1 4UF        -0.5625
     21 C28       -18.3890   18.9320   45.2570 C.ar      1 4UF         0.0032
     22 C27       -17.9820   20.0890   45.9250 C.ar      1 4UF        -0.0542
     23 C26       -17.5530   21.1810   45.1970 C.ar      1 4UF        -0.0546
     24 C29       -18.3570   18.8970   43.8590 C.ar      1 4UF        -0.0542
     25 C30       -17.9280   20.0010   43.1440 C.ar      1 4UF        -0.0546
     26 C25       -17.5250   21.1430   43.8110 C.ar      1 4UF        -0.0182
     27 C24       -17.0510   22.3690   43.0550 C.3       1 4UF         0.0653
     28 N22       -15.6190   22.5500   43.3080 N.am      1 4UF        -0.2742
     29 N17       -12.7910   23.2200   43.6240 N.2       1 4UF        -0.1920
     30 N16       -11.6450   23.4000   44.1530 N.pl3     1 4UF        -0.2004
     31 N7         -7.7840   24.7020   49.2180 N.pl3     1 4UF        -0.2653
     32 O12        -6.5920   24.3710   51.7820 O.2       1 4UF        -0.3564
     33 O11        -8.3700   23.3710   52.6170 O.3       1 4UF        -0.2770
     34 H1        -11.6403   23.0396   47.9720 H         1 4UF         0.0571
     35 H2         -9.5027   25.2334   44.9665 H         1 4UF         0.0563
     36 H3         -7.7027   25.6838   46.5416 H         1 4UF         0.0556
     37 H4        -10.1971   22.9243   50.5659 H         1 4UF         0.0407
     38 H5         -7.5823   21.8432   53.8124 H         1 4UF         0.0608
     39 H6         -6.4522   23.1879   53.4368 H         1 4UF         0.0608
     40 H7         -7.2451   23.3131   55.7939 H         1 4UF         0.0255
     41 H8         -8.9448   23.3806   55.2168 H         1 4UF         0.0255
     42 H9         -7.8146   24.7253   54.8411 H         1 4UF         0.0255
     43 H10       -13.6085   24.2035   46.6257 H         1 4UF         0.0385
     44 H11       -10.5601   22.8257   42.4444 H         1 4UF         0.0602
     45 H12        -9.7879   22.4210   44.0150 H         1 4UF         0.0602
     46 H13        -9.8039   24.1205   43.4335 H         1 4UF         0.0602
     47 H14       -18.0028   20.1295   47.0080 H         1 4UF         0.0634
     48 H15       -17.2344   22.0784   45.7149 H         1 4UF         0.0565
     49 H16       -18.6695   18.0016   43.3339 H         1 4UF         0.0634
     50 H17       -17.9078   19.9706   42.0606 H         1 4UF         0.0565
     51 H18       -17.6033   23.2547   43.4019 H         1 4UF         0.0689
     52 H19       -17.2220   22.2290   41.9775 H         1 4UF         0.0689
     53 H20       -14.9525   22.0441   42.7604 H         1 4UF         0.1873
     54 H21        -6.8850   25.2046   49.2240 H         1 4UF         0.2267
@<TRIPOS>BOND
     1    2    1 ar 
     2    1    5 ar 
     3    2    3 ar 
     4   12    2 1  
     5    3    4 ar 
     6    4    6 ar 
     7    5    6 ar 
     8    5    8 1  
     9    6   31 1  
    10    8    7 2  
    11    7    9 1  
    12   31    7 1  
    13    9   32 2  
    14    9   33 1  
    15   10   11 1  
    16   33   10 1  
    17   14   12 2  
    18   12   30 1  
    19   13   14 1  
    20   16   13 1  
    21   13   29 2  
    22   30   15 1  
    23   16   17 2  
    24   28   16 am 
    25   19   18 ar 
    26   19   20 ar 
    27   21   19 1  
    28   22   21 ar 
    29   24   21 ar 
    30   23   22 ar 
    31   26   23 ar 
    32   25   24 ar 
    33   26   25 ar 
    34   27   26 1  
    35   27   28 1  
    36   29   30 1  
    37    1   34 1  
    38    3   35 1  
    39    4   36 1  
    40    8   37 1  
    41   10   38 1  
    42   10   39 1  
    43   11   40 1  
    44   11   41 1  
    45   11   42 1  
    46   14   43 1  
    47   15   44 1  
    48   15   45 1  
    49   15   46 1  
    50   22   47 1  
    51   23   48 1  
    52   24   49 1  
    53   25   50 1  
    54   27   51 1  
    55   27   52 1  
    56   28   53 1  
    57   31   54 1  
@<TRIPOS>SUBSTRUCTURE
     1 4UF         1

