### 
### Created by X-TOOL on Mon Sep 10 21:13:21 2018
### 

@<TRIPOS>MOLECULE
5bpe_ligand
   70    72     1     0     0
SMALL
GAST_HUCK


@<TRIPOS>ATOM
      1 C5         14.7360   11.0470   25.2440 C.2       1 E22         0.1803
      2 O2         15.3980   10.0270   25.1550 O.2       1 E22        -0.3967
      3 C9         14.7180   11.8260   26.5560 C.3       1 E22         0.0470
      4 C16        13.6050   11.4120   27.5110 C.3       1 E22        -0.0022
      5 C21        13.7710   11.7670   28.9880 C.ar      1 E22        -0.0408
      6 C14        13.0660   11.0330   29.9520 C.ar      1 E22        -0.0602
      7 C8         13.1740   11.3250   31.3150 C.ar      1 E22        -0.0686
      8 C4         14.0040   12.3700   31.7210 C.ar      1 E22        -0.0687
      9 C10        14.7120   13.1090   30.7680 C.ar      1 E22        -0.0686
     10 C26        14.5980   12.8100   29.4110 C.ar      1 E22        -0.0602
     11 N1         13.9960   11.5110   24.1120 N.am      1 E22        -0.2637
     12 C1         13.9900   10.8080   22.8630 C.3       1 E22         0.1402
     13 C3         15.3040   10.9520   22.1330 C.2       1 E22         0.2041
     14 O1         15.7780   12.0300   21.8640 O.2       1 E22        -0.3943
     15 C2         12.9340   11.3530   21.9190 C.3       1 E22         0.0214
     16 C7         11.5350   11.1610   22.4410 C.ar      1 E22        -0.0386
     17 C12        10.6910   12.2600   22.5740 C.ar      1 E22        -0.0601
     18 C18        11.1100    9.8850   22.8000 C.ar      1 E22        -0.0601
     19 C22         9.4030   12.0850   23.0760 C.ar      1 E22        -0.0686
     20 C23         9.8210    9.6980   23.2900 C.ar      1 E22        -0.0686
     21 C20         8.9760   10.7970   23.4280 C.ar      1 E22        -0.0687
     22 C6         19.1740   11.2200   25.0250 C.3       1 E22        -0.0120
     23 C11        17.2180   10.0360   21.1070 C.3       1 E22         0.0930
     24 C13        18.7540   10.8080   23.6230 C.3       1 E22        -0.0378
     25 C15        19.4140    8.4890   24.1390 C.3       1 E22         0.0832
     26 C17        18.2170    9.0610   21.9840 C.3       1 E22        -0.0149
     27 C19        18.1190    9.6530   18.9050 C.1       1 E22         0.1242
     28 C24        16.9050    9.9440   19.6520 C.3       1 E22         0.2018
     29 C25        18.4870    9.5260   23.4590 C.3       1 E22         0.0306
     30 C27        20.3910   10.4080   25.4830 C.3       1 E22        -0.0312
     31 N2         18.9960    9.4790   18.3530 N.1       1 E22        -0.3007
     32 N3         16.0250    9.8180   21.7330 N.am      1 E22        -0.2772
     33 N4         20.1210    8.9680   25.3120 N.4       1 E22         0.2492
     34 O3         16.2960   11.1040   19.2130 O.3       1 E22        -0.3655
     35 O4         19.5640    7.2780   23.6230 O.3       1 E22        -0.3528
     36 H1         14.5929   12.8935   26.3221 H         1 E22         0.0525
     37 H2         15.6824   11.6721   27.0623 H         1 E22         0.0525
     38 H3         13.5044   10.3186   27.4448 H         1 E22         0.0451
     39 H4         12.6770   11.8875   27.1607 H         1 E22         0.0451
     40 H5         12.4226   10.2208   29.6335 H         1 E22         0.0557
     41 H6         12.6203   10.7472   32.0462 H         1 E22         0.0599
     42 H7         14.1001   12.6090   32.7740 H         1 E22         0.0559
     43 H8         15.3550   13.9213   31.0871 H         1 E22         0.0599
     44 H9         15.1531   13.3890   28.6818 H         1 E22         0.0557
     45 H10        13.4648   12.3543   24.1945 H         1 E22         0.1884
     46 H11        13.7934    9.7444   23.0632 H         1 E22         0.0823
     47 H12        13.0237   10.8344   20.9531 H         1 E22         0.0474
     48 H13        13.1116   12.4290   21.7754 H         1 E22         0.0474
     49 H14        11.0343   13.2477   22.2883 H         1 E22         0.0557
     50 H15        11.7810    9.0397   22.6982 H         1 E22         0.0557
     51 H16         8.7395   12.9342   23.1929 H         1 E22         0.0599
     52 H17         9.4776    8.7064   23.5618 H         1 E22         0.0599
     53 H18         7.9730   10.6540   23.8135 H         1 E22         0.0559
     54 H19        18.3393   11.0433   25.7193 H         1 E22         0.0317
     55 H20        19.4316   12.2894   25.0259 H         1 E22         0.0317
     56 H21        17.5695   11.0654   21.2705 H         1 E22         0.0604
     57 H22        19.5692   11.0742   22.9341 H         1 E22         0.0272
     58 H23        17.8506   11.3777   23.3597 H         1 E22         0.0272
     59 H24        18.5904    8.1165   24.7659 H         1 E22         0.1186
     60 H25        19.1840    9.0087   21.4623 H         1 E22         0.0294
     61 H26        17.7658    8.0585   22.0215 H         1 E22         0.0294
     62 H27        16.2014    9.1123   19.4998 H         1 E22         0.0924
     63 H28        17.5216    9.4076   23.9728 H         1 E22         0.0382
     64 H29        20.5930   10.6186   26.5436 H         1 E22         0.0814
     65 H30        21.2667   10.6899   24.8799 H         1 E22         0.0814
     66 H31        15.6815    8.8935   21.8985 H         1 E22         0.1856
     67 H32        21.0152    8.5028   25.3211 H         1 E22         0.2041
     68 H33        19.5828    8.6773   26.1132 H         1 E22         0.2041
     69 H34        15.5097   11.2600   19.7228 H         1 E22         0.2124
     70 H35        19.0032    7.1878   22.8614 H         1 E22         0.2154
@<TRIPOS>BOND
     1    1    2 2  
     2    1    3 1  
     3   11    1 am 
     4    3    4 1  
     5    4    5 1  
     6    5    6 ar 
     7    5   10 ar 
     8    6    7 ar 
     9    7    8 ar 
    10    9    8 ar 
    11   10    9 ar 
    12   12   11 1  
    13   13   12 1  
    14   12   15 1  
    15   13   14 2  
    16   32   13 am 
    17   15   16 1  
    18   16   17 ar 
    19   16   18 ar 
    20   17   19 ar 
    21   18   20 ar 
    22   19   21 ar 
    23   20   21 ar 
    24   24   22 1  
    25   22   30 1  
    26   26   23 1  
    27   23   28 1  
    28   23   32 1  
    29   29   24 1  
    30   29   25 1  
    31   25   33 1  
    32   25   35 1  
    33   26   29 1  
    34   28   27 1  
    35   27   31 3  
    36   28   34 1  
    37   30   33 1  
    38    3   36 1  
    39    3   37 1  
    40    4   38 1  
    41    4   39 1  
    42    6   40 1  
    43    7   41 1  
    44    8   42 1  
    45    9   43 1  
    46   10   44 1  
    47   11   45 1  
    48   12   46 1  
    49   15   47 1  
    50   15   48 1  
    51   17   49 1  
    52   18   50 1  
    53   19   51 1  
    54   20   52 1  
    55   21   53 1  
    56   22   54 1  
    57   22   55 1  
    58   23   56 1  
    59   24   57 1  
    60   24   58 1  
    61   25   59 1  
    62   26   60 1  
    63   26   61 1  
    64   28   62 1  
    65   29   63 1  
    66   30   64 1  
    67   30   65 1  
    68   32   66 1  
    69   33   67 1  
    70   33   68 1  
    71   34   69 1  
    72   35   70 1  
@<TRIPOS>SUBSTRUCTURE
     1 E22         1

