### 
### Created by X-TOOL on Mon Sep 10 21:13:27 2018
### 

@<TRIPOS>MOLECULE
5bpp_ligand
   33    33     1     0     0
SMALL
GAST_HUCK


@<TRIPOS>ATOM
      1 C1         34.8570   91.6880    0.7220 C.3       1 A4Z         0.0671
      2 C2         33.7950   90.7920    0.1340 C.ar      1 A4Z        -0.0350
      3 C3         32.4760   91.0380    0.3660 C.ar      1 A4Z        -0.0664
      4 C4         31.4690   90.2010   -0.1100 C.ar      1 A4Z        -0.0391
      5 C5         31.7240   89.0950   -0.8890 C.ar      1 A4Z         0.0844
      6 C6         33.0730   88.8550   -1.1650 C.ar      1 A4Z        -0.0391
      7 C7         34.0920   89.6880   -0.6530 C.ar      1 A4Z        -0.0664
      8 C8         35.2050   91.3150    2.1620 C.2       1 A4Z         0.2086
      9 O9         36.3040   90.8450    2.5540 O.2       1 A4Z        -0.3944
     10 N10        34.1560   91.2470    2.9080 N.am      1 A4Z        -0.1628
     11 O11        33.1370   90.4690    2.3840 O.3       1 A4Z        -0.2716
     12 O12        30.6950   88.2900   -1.3770 O.3       1 A4Z        -0.3223
     13 C13        29.3180   88.7430   -1.5800 C.3       1 A4Z         0.0690
     14 C14        28.1400   87.8420   -1.1760 C.3       1 A4Z        -0.0255
     15 C15        27.9220   87.5570    0.3290 C.3       1 A4Z        -0.0535
     16 C16        26.4870   87.1700    0.6760 C.3       1 A4Z        -0.0652
     17 H1         34.4924   92.7257    0.7046 H         1 A4Z         0.0638
     18 H2         35.7658   91.6083    0.1075 H         1 A4Z         0.0638
     19 H3         32.2001   91.9148    0.9405 H         1 A4Z         0.0534
     20 H4         30.4405   90.4306    0.1440 H         1 A4Z         0.0526
     21 H5         33.3435   88.0093   -1.7869 H         1 A4Z         0.0526
     22 H6         35.1274   89.4605   -0.8793 H         1 A4Z         0.0534
     23 H7         34.0842   91.7153    3.7886 H         1 A4Z         0.2218
     24 H8         32.4014   90.4658    2.9852 H         1 A4Z         0.2490
     25 H9         29.2068   88.9461   -2.6553 H         1 A4Z         0.0611
     26 H10        29.2069   89.6810   -1.0162 H         1 A4Z         0.0611
     27 H11        28.2850   86.8721   -1.6742 H         1 A4Z         0.0291
     28 H12        27.2221   88.3152   -1.5549 H         1 A4Z         0.0291
     29 H13        28.1848   88.4622    0.8960 H         1 A4Z         0.0263
     30 H14        28.5862   86.7322    0.6265 H         1 A4Z         0.0263
     31 H15        26.4088   86.9834    1.7572 H         1 A4Z         0.0230
     32 H16        26.2097   86.2588    0.1257 H         1 A4Z         0.0230
     33 H17        25.8083   87.9888    0.3952 H         1 A4Z         0.0230
@<TRIPOS>BOND
     1    1    2 1  
     2    1    8 1  
     3    2    3 ar 
     4    2    7 ar 
     5    3    4 ar 
     6    4    5 ar 
     7    5    6 ar 
     8    5   12 1  
     9    6    7 ar 
    10    8    9 2  
    11    8   10 am 
    12   10   11 1  
    13   12   13 1  
    14   13   14 1  
    15   14   15 1  
    16   15   16 1  
    17    1   17 1  
    18    1   18 1  
    19    3   19 1  
    20    4   20 1  
    21    6   21 1  
    22    7   22 1  
    23   10   23 1  
    24   11   24 1  
    25   13   25 1  
    26   13   26 1  
    27   14   27 1  
    28   14   28 1  
    29   15   29 1  
    30   15   30 1  
    31   16   31 1  
    32   16   32 1  
    33   16   33 1  
@<TRIPOS>SUBSTRUCTURE
     1 A4Z         1

