### 
### Created by X-TOOL on Mon Sep 10 21:13:23 2018
### 

@<TRIPOS>MOLECULE
5bq0_ligand
   52    55     1     0     0
SMALL
GAST_HUCK


@<TRIPOS>ATOM
      1 C13       -23.6890    6.6910    2.0310 C.ar      1 4US        -0.0627
      2 C18       -24.1560    6.9260    8.6690 C.3       1 4US        -0.0447
      3 C17       -23.9030    8.5720    6.9340 C.3       1 4US        -0.0447
      4 C16       -22.7600    7.6970    6.4180 C.3       1 4US         0.0305
      5 C15       -23.9350    7.3330   -1.3150 C.ar      1 4US        -0.0043
      6 C19       -23.3660    5.8510    7.9300 C.3       1 4US         0.0305
      7 C21       -24.9400    6.6260   -1.9790 C.ar      1 4US        -0.0530
      8 C22       -26.1820    7.1940   -2.1910 C.ar      1 4US        -0.0605
      9 C23       -26.4680    8.4550   -1.7080 C.ar      1 4US        -0.0608
     10 C24       -25.5030    9.1630   -1.0110 C.ar      1 4US        -0.0467
     11 C11       -22.8490    5.7870    4.1220 C.ar      1 4US         0.0389
     12 C12       -23.8520    6.4250    3.3870 C.ar      1 4US        -0.0554
     13 C1        -20.7170    5.7640    0.0620 C.ar      1 4US         0.0878
     14 C2        -22.0210    6.3160    0.0300 C.ar      1 4US         0.0124
     15 C3        -22.5720    6.7280   -1.2010 C.ar      1 4US        -0.0180
     16 C4        -21.8030    6.5830   -2.3590 C.ar      1 4US        -0.0601
     17 C5        -20.5140    6.0540   -2.3060 C.ar      1 4US        -0.0511
     18 C6        -19.9370    5.6460   -1.0930 C.ar      1 4US         0.0714
     19 C7        -18.5980    4.9690   -1.0140 C.2       1 4US         0.1960
     20 O1        -18.3290    4.2540   -0.0130 O.2       1 4US        -0.3911
     21 N1        -17.7790    5.0110   -2.0520 N.am      1 4US        -0.3020
     22 N2        -20.3940    5.4580    1.3680 N.pl3     1 4US        -0.2692
     23 C8        -21.4550    5.7860    2.1830 C.ar      1 4US         0.0728
     24 C9        -22.4930    6.3370    1.4000 C.ar      1 4US         0.0024
     25 C10       -21.6100    5.5410    3.5360 C.ar      1 4US        -0.0197
     26 C14       -23.0830    5.3610    5.5340 C.2       1 4US         0.2030
     27 O2        -23.3280    4.1840    5.7370 O.2       1 4US        -0.3858
     28 N3        -23.0640    6.2590    6.5390 N.am      1 4US        -0.2735
     29 C25       -24.2460    8.6000   -0.8250 C.ar      1 4US         0.0489
     30 CL1       -23.0720    9.4970    0.0630 Cl        1 4US        -0.0688
     31 H1        -24.4830    7.1688    1.4686 H         1 4US         0.0586
     32 H2        -24.3616    6.5892    9.6958 H         1 4US         0.0249
     33 H3        -25.1063    7.1077    8.1456 H         1 4US         0.0249
     34 H4        -23.5700    7.8564    8.6987 H         1 4US         0.0249
     35 H5        -23.6316    9.6323    6.8238 H         1 4US         0.0249
     36 H6        -24.0853    8.3487    7.9955 H         1 4US         0.0249
     37 H7        -24.8143    8.3646    6.3538 H         1 4US         0.0249
     38 H8        -21.8534    7.9180    7.0003 H         1 4US         0.0519
     39 H9        -22.5823    7.9340    5.3587 H         1 4US         0.0519
     40 H10       -23.9569    4.9234    7.9100 H         1 4US         0.0519
     41 H11       -22.4206    5.6721    8.4632 H         1 4US         0.0519
     42 H12       -24.7436    5.6201   -2.3322 H         1 4US         0.0628
     43 H13       -26.9376    6.6448   -2.7410 H         1 4US         0.0620
     44 H14       -27.4466    8.8906   -1.8740 H         1 4US         0.0622
     45 H15       -25.7260   10.1469   -0.6143 H         1 4US         0.0625
     46 H16       -24.7715    6.7172    3.8812 H         1 4US         0.0565
     47 H17       -22.2155    6.8869   -3.3143 H         1 4US         0.0542
     48 H18       -19.9441    5.9555   -3.2228 H         1 4US         0.0631
     49 H19       -16.8869    4.5617   -2.0035 H         1 4US         0.1803
     50 H20       -18.0520    5.4920   -2.8851 H         1 4US         0.1803
     51 H21       -19.5024    5.0497    1.6831 H         1 4US         0.2183
     52 H22       -20.7834    5.1651    4.1280 H         1 4US         0.0597
@<TRIPOS>BOND
     1   12    1 ar 
     2    1   24 ar 
     3    6    2 1  
     4    4    3 1  
     5   28    4 1  
     6    5    7 ar 
     7   15    5 1  
     8    5   29 ar 
     9   28    6 1  
    10    7    8 ar 
    11    8    9 ar 
    12   10    9 ar 
    13   29   10 ar 
    14   11   12 ar 
    15   11   25 ar 
    16   26   11 1  
    17   14   13 ar 
    18   13   18 ar 
    19   22   13 1  
    20   14   15 ar 
    21   24   14 1  
    22   15   16 ar 
    23   16   17 ar 
    24   18   17 ar 
    25   18   19 1  
    26   19   20 2  
    27   19   21 am 
    28   23   22 1  
    29   23   24 ar 
    30   25   23 ar 
    31   26   27 2  
    32   26   28 am 
    33   29   30 1  
    34    1   31 1  
    35    2   32 1  
    36    2   33 1  
    37    2   34 1  
    38    3   35 1  
    39    3   36 1  
    40    3   37 1  
    41    4   38 1  
    42    4   39 1  
    43    6   40 1  
    44    6   41 1  
    45    7   42 1  
    46    8   43 1  
    47    9   44 1  
    48   10   45 1  
    49   12   46 1  
    50   16   47 1  
    51   17   48 1  
    52   21   49 1  
    53   21   50 1  
    54   22   51 1  
    55   25   52 1  
@<TRIPOS>SUBSTRUCTURE
     1 4US         1

