### 
### Created by X-TOOL on Mon Sep 10 21:13:26 2018
### 

@<TRIPOS>MOLECULE
5bqg_ligand
   32    34     1     0     0
SMALL
GAST_HUCK


@<TRIPOS>ATOM
      1 C7         10.4320   13.1310   34.3140 C.ar      1 4UJ        -0.0571
      2 C6         11.6840   12.6100   34.5930 C.ar      1 4UJ        -0.0422
      3 C1         17.0990   17.5230   30.7310 C.2       1 4UJ         0.0071
      4 N1         14.0110   15.6600   31.8220 N.am      1 4UJ        -0.1931
      5 C5         12.8160   13.3190   34.2210 C.ar      1 4UJ         0.0612
      6 C4         12.7210   14.5450   33.5640 C.ar      1 4UJ         0.0719
      7 C3         13.9280   15.3330   33.1570 C.2       1 4UJ         0.2442
      8 C2         15.0880   16.3130   31.2600 C.2       1 4UJ         0.2073
      9 CL         14.3680   12.6370   34.5910 Cl        1 4UJ        -0.0647
     10 C8         10.3140   14.3440   33.6660 C.ar      1 4UJ        -0.0561
     11 C9         11.4460   15.0510   33.2960 C.ar      1 4UJ        -0.0409
     12 O          14.7840   15.6530   33.9760 O.2       1 4UJ        -0.3680
     13 S          16.3530   17.0390   32.1980 S.3       1 4UJ         0.0186
     14 N          15.2120   16.4250   29.9590 N.2       1 4UJ        -0.3154
     15 C          16.3810   17.1280   29.6490 C.2       1 4UJ         0.0006
     16 C10        16.7330   17.3790   28.2390 C.ar      1 4UJ        -0.0265
     17 C15        17.6850   18.3420   27.9050 C.ar      1 4UJ        -0.0586
     18 C14        18.0150   18.5750   26.5800 C.ar      1 4UJ        -0.0646
     19 C13        17.4050   17.8540   25.5730 C.ar      1 4UJ        -0.0647
     20 C12        16.4610   16.8970   25.8900 C.ar      1 4UJ        -0.0646
     21 C11        16.1250   16.6580   27.2120 C.ar      1 4UJ        -0.0586
     22 H1          9.5421   12.5849   34.6052 H         1 4UJ         0.0652
     23 H2         11.7785   11.6556   35.0982 H         1 4UJ         0.0635
     24 H3         18.0338   18.0789   30.6748 H         1 4UJ         0.0647
     25 H4         13.2475   15.4100   31.2265 H         1 4UJ         0.2407
     26 H5          9.3312   14.7449   33.4458 H         1 4UJ         0.0630
     27 H6         11.3421   16.0060   32.7937 H         1 4UJ         0.0669
     28 H7         18.1705   18.9126   28.6884 H         1 4UJ         0.0595
     29 H8         18.7556   19.3269   26.3327 H         1 4UJ         0.0609
     30 H9         17.6660   18.0384   24.5372 H         1 4UJ         0.0592
     31 H10        15.9809   16.3304   25.1004 H         1 4UJ         0.0609
     32 H11        15.3833   15.9043   27.4504 H         1 4UJ         0.0595
@<TRIPOS>BOND
     1    2    1 ar 
     2    1   10 ar 
     3    5    2 ar 
     4   13    3 1  
     5    3   15 2  
     6    4    7 am 
     7    8    4 1  
     8    6    5 ar 
     9    5    9 1  
    10    7    6 1  
    11    6   11 ar 
    12    7   12 2  
    13    8   13 1  
    14    8   14 2  
    15   10   11 ar 
    16   14   15 1  
    17   15   16 1  
    18   16   17 ar 
    19   16   21 ar 
    20   17   18 ar 
    21   18   19 ar 
    22   19   20 ar 
    23   20   21 ar 
    24    1   22 1  
    25    2   23 1  
    26    3   24 1  
    27    4   25 1  
    28   10   26 1  
    29   11   27 1  
    30   17   28 1  
    31   18   29 1  
    32   19   30 1  
    33   20   31 1  
    34   21   32 1  
@<TRIPOS>SUBSTRUCTURE
     1 4UJ         1

