### 
### Created by X-TOOL on Mon Sep 10 21:13:26 2018
### 

@<TRIPOS>MOLECULE
5bqh_ligand
   52    54     1     0     0
SMALL
GAST_HUCK


@<TRIPOS>ATOM
      1 O1          8.7010   16.2700   30.3830 O.2       1 4UK        -0.3967
      2 C7         16.7500   17.1740   25.1220 C.ar      1 4UK        -0.0532
      3 C6         17.7300   18.1040   24.8500 C.ar      1 4UK         0.0349
      4 C1         17.0210   17.9670   30.0470 C.2       1 4UK         0.0353
      5 N1         16.3320   17.4710   31.1230 N.pl3     1 4UK        -0.2404
      6 C5         18.3300   18.8290   25.8580 C.ar      1 4UK        -0.0532
      7 C4         17.9400   18.6150   27.1680 C.ar      1 4UK        -0.0617
      8 C3         16.9520   17.6820   27.4740 C.ar      1 4UK        -0.0345
      9 C2         16.5370   17.4520   28.8700 C.2       1 4UK         0.0006
     10 F1         15.5350   12.8340   33.7300 F         1 4UK        -0.1935
     11 C21        14.9050   13.7070   34.5600 C.3       1 4UK         0.2750
     12 F          14.8940   13.1480   35.7980 F         1 4UK        -0.1935
     13 C11        13.4860   13.9630   34.0330 C.ar      1 4UK         0.0365
     14 C12        12.4180   13.1680   34.4420 C.ar      1 4UK        -0.0553
     15 C13        11.1380   13.3980   33.9650 C.ar      1 4UK        -0.0602
     16 C14        10.8830   14.4240   33.0650 C.ar      1 4UK        -0.0221
     17 C16         9.4930   14.6670   32.5300 C.3       1 4UK         0.0624
     18 N3          9.3610   14.2610   31.1370 N.am      1 4UK        -0.2764
     19 C17         9.0570   15.1160   30.1570 C.2       1 4UK         0.1802
     20 C18         9.1670   14.5730   28.7460 C.3       1 4UK         0.0431
     21 C20        10.2190   15.3440   27.9620 C.3       1 4UK        -0.0456
     22 C19         7.8080   14.6130   28.0520 C.3       1 4UK        -0.0456
     23 C15        11.9450   15.2180   32.6460 C.ar      1 4UK        -0.0443
     24 C10        13.2370   14.9970   33.1220 C.ar      1 4UK         0.0573
     25 C9         14.3400   15.8920   32.6450 C.2       1 4UK         0.2330
     26 O          15.0190   16.5490   33.4300 O.2       1 4UK        -0.3750
     27 N2         14.5240   15.9350   31.2840 N.am      1 4UK        -0.1920
     28 C          15.4430   16.6610   30.5700 C.2       1 4UK         0.2349
     29 N          15.5190   16.6060   29.2210 N.2       1 4UK        -0.3230
     30 C8         16.3630   16.9660   26.4340 C.ar      1 4UK        -0.0617
     31 CL         18.2190   18.3700   23.1990 Cl        1 4UK        -0.0752
     32 H1         16.2881   16.6124   24.3180 H         1 4UK         0.0609
     33 H2         17.8443   18.6765   30.1166 H         1 4UK         0.0822
     34 H3         16.4723   17.6787   32.1221 H         1 4UK         0.2371
     35 H4         19.0982   19.5580   25.6266 H         1 4UK         0.0609
     36 H5         18.4088   19.1800   27.9656 H         1 4UK         0.0574
     37 H6         15.4541   14.6596   34.5929 H         1 4UK         0.1189
     38 H7         12.5907   12.3590   35.1425 H         1 4UK         0.0554
     39 H8         10.3226   12.7670   34.2997 H         1 4UK         0.0577
     40 H9          9.2654   15.7403   32.6093 H         1 4UK         0.0670
     41 H10         8.7751   14.0942   33.1355 H         1 4UK         0.0670
     42 H11         9.5044   13.2991   30.9042 H         1 4UK         0.1876
     43 H12         9.4882   13.5226   28.8049 H         1 4UK         0.0532
     44 H13        10.2864   14.9383   26.9418 H         1 4UK         0.0257
     45 H14        11.1942   15.2448   28.4612 H         1 4UK         0.0257
     46 H15         9.9369   16.4062   27.9162 H         1 4UK         0.0257
     47 H16         7.0759   14.0468   28.6465 H         1 4UK         0.0257
     48 H17         7.8938   14.1639   27.0515 H         1 4UK         0.0257
     49 H18         7.4749   15.6571   27.9579 H         1 4UK         0.0257
     50 H19        11.7660   16.0202   31.9393 H         1 4UK         0.0589
     51 H20        13.9075   15.3623   30.7436 H         1 4UK         0.2341
     52 H21        15.5920   16.2369   26.6555 H         1 4UK         0.0574
@<TRIPOS>BOND
     1   19    1 2  
     2    2    3 ar 
     3   30    2 ar 
     4    6    3 ar 
     5    3   31 1  
     6    5    4 1  
     7    4    9 2  
     8   28    5 1  
     9    7    6 ar 
    10    8    7 ar 
    11    9    8 1  
    12    8   30 ar 
    13    9   29 1  
    14   11   10 1  
    15   11   12 1  
    16   13   11 1  
    17   13   14 ar 
    18   24   13 ar 
    19   14   15 ar 
    20   16   15 ar 
    21   16   17 1  
    22   23   16 ar 
    23   17   18 1  
    24   18   19 am 
    25   19   20 1  
    26   20   21 1  
    27   20   22 1  
    28   24   23 ar 
    29   25   24 1  
    30   25   26 2  
    31   27   25 am 
    32   27   28 1  
    33   28   29 2  
    34    2   32 1  
    35    4   33 1  
    36    5   34 1  
    37    6   35 1  
    38    7   36 1  
    39   11   37 1  
    40   14   38 1  
    41   15   39 1  
    42   17   40 1  
    43   17   41 1  
    44   18   42 1  
    45   20   43 1  
    46   21   44 1  
    47   21   45 1  
    48   21   46 1  
    49   22   47 1  
    50   22   48 1  
    51   22   49 1  
    52   23   50 1  
    53   27   51 1  
    54   30   52 1  
@<TRIPOS>SUBSTRUCTURE
     1 4UK         1

