### 
### Created by X-TOOL on Mon Sep 10 21:13:26 2018
### 

@<TRIPOS>MOLECULE
5bqi_ligand
   57    59     1     0     0
SMALL
GAST_HUCK


@<TRIPOS>ATOM
      1 O1          8.8210   16.2070   30.5320 O.2       1 4UL        -0.3966
      2 C7         17.7360   18.0650   25.0870 C.ar      1 4UL         0.0140
      3 C6         16.5080   17.4940   25.3930 C.ar      1 4UL        -0.0467
      4 C1         17.0270   17.8860   30.3760 C.2       1 4UL         0.0911
      5 N1         16.3140   17.3290   31.4170 N.pl3     1 4UL        -0.2103
      6 C5         16.1240   17.2990   26.7080 C.ar      1 4UL        -0.0376
      7 C4         16.9560   17.6860   27.7560 C.ar      1 4UL        -0.0065
      8 C3         16.5600   17.4480   29.1580 C.2       1 4UL         0.0399
      9 C2         18.1330   18.8420   30.6810 C.3       1 4UL         0.0081
     10 F4         15.3300   14.2070   35.4480 F         1 4UL        -0.1906
     11 C22        14.7610   13.2310   34.6940 C.3       1 4UL         0.2898
     12 F3         15.6010   13.0580   33.6380 F         1 4UL        -0.1906
     13 C13        13.3890   13.6670   34.1390 C.ar      1 4UL         0.1074
     14 N3         12.3490   12.9020   34.4970 N.ar      1 4UL        -0.2937
     15 C14        11.1310   13.2230   34.0370 C.ar      1 4UL         0.0103
     16 C15        10.8680   14.3030   33.2150 C.ar      1 4UL         0.0049
     17 C17         9.4750   14.5870   32.7130 C.3       1 4UL         0.0682
     18 N4          9.2930   14.1630   31.3300 N.am      1 4UL        -0.2752
     19 C18         9.0880   15.0260   30.3290 C.2       1 4UL         0.1803
     20 C19         9.1930   14.4560   28.9270 C.3       1 4UL         0.0431
     21 C21         7.8490   14.5630   28.2040 C.3       1 4UL        -0.0456
     22 C20        10.3140   15.1460   28.1460 C.3       1 4UL        -0.0456
     23 C16        11.9510   15.0850   32.8320 C.ar      1 4UL        -0.0248
     24 C12        13.2330   14.7870   33.2900 C.ar      1 4UL         0.0856
     25 C11        14.3390   15.6960   32.8460 C.2       1 4UL         0.2431
     26 O          15.0220   16.3180   33.6570 O.2       1 4UL        -0.3706
     27 N2         14.5170   15.7980   31.4860 N.am      1 4UL        -0.1878
     28 C          15.4380   16.5520   30.8010 C.2       1 4UL         0.2435
     29 N          15.5400   16.5750   29.4540 N.2       1 4UL        -0.3165
     30 C9         18.1960   18.2420   27.4480 C.ar      1 4UL        -0.0376
     31 C8         18.5740   18.4370   26.1310 C.ar      1 4UL        -0.0467
     32 C10        18.1490   18.2710   23.6660 C.3       1 4UL         0.3399
     33 F2         17.6590   17.3420   22.8480 F         1 4UL        -0.2548
     34 F1         17.7460   19.4400   23.1770 F         1 4UL        -0.2548
     35 F          19.4690   18.2330   23.5040 F         1 4UL        -0.2548
     36 H1         15.8414   17.1971   24.5914 H         1 4UL         0.0786
     37 H2         16.4343   17.4810   32.4286 H         1 4UL         0.2462
     38 H3         15.1660   16.8404   26.9248 H         1 4UL         0.0644
     39 H4         18.5899   19.1859   29.7413 H         1 4UL         0.0488
     40 H5         18.8936   18.3387   31.2959 H         1 4UL         0.0488
     41 H6         17.7301   19.7056   31.2304 H         1 4UL         0.0488
     42 H7         14.6549   12.3045   35.2774 H         1 4UL         0.1219
     43 H8         10.2977   12.5942   34.3289 H         1 4UL         0.0774
     44 H9          9.2877   15.6689   32.7798 H         1 4UL         0.0685
     45 H10         8.7535   14.0501   33.3463 H         1 4UL         0.0685
     46 H11         9.3227   13.1855   31.1210 H         1 4UL         0.1878
     47 H12         9.4477   13.3891   29.0101 H         1 4UL         0.0532
     48 H13         7.9436   14.1457   27.1906 H         1 4UL         0.0257
     49 H14         7.5507   15.6198   28.1389 H         1 4UL         0.0257
     50 H15         7.0864   14.0005   28.7625 H         1 4UL         0.0257
     51 H16        11.2603   15.0465   28.6979 H         1 4UL         0.0257
     52 H17        10.0722   16.2119   28.0220 H         1 4UL         0.0257
     53 H18        10.4152   14.6754   27.1569 H         1 4UL         0.0257
     54 H19        11.7977   15.9319   32.1730 H         1 4UL         0.0709
     55 H20        13.8956   15.2528   30.9234 H         1 4UL         0.2373
     56 H21        18.8711   18.5245   28.2477 H         1 4UL         0.0644
     57 H22        19.5360   18.8856   25.9112 H         1 4UL         0.0786
@<TRIPOS>BOND
     1   19    1 2  
     2    3    2 ar 
     3    2   31 ar 
     4    2   32 1  
     5    6    3 ar 
     6    5    4 1  
     7    4    8 2  
     8    4    9 1  
     9   28    5 1  
    10    7    6 ar 
    11    8    7 1  
    12    7   30 ar 
    13    8   29 1  
    14   11   10 1  
    15   11   12 1  
    16   13   11 1  
    17   13   14 ar 
    18   24   13 ar 
    19   14   15 ar 
    20   16   15 ar 
    21   16   17 1  
    22   23   16 ar 
    23   17   18 1  
    24   18   19 am 
    25   19   20 1  
    26   20   21 1  
    27   20   22 1  
    28   24   23 ar 
    29   25   24 1  
    30   25   26 2  
    31   27   25 am 
    32   27   28 1  
    33   28   29 2  
    34   30   31 ar 
    35   32   33 1  
    36   32   34 1  
    37   32   35 1  
    38    3   36 1  
    39    5   37 1  
    40    6   38 1  
    41    9   39 1  
    42    9   40 1  
    43    9   41 1  
    44   11   42 1  
    45   15   43 1  
    46   17   44 1  
    47   17   45 1  
    48   18   46 1  
    49   20   47 1  
    50   21   48 1  
    51   21   49 1  
    52   21   50 1  
    53   22   51 1  
    54   22   52 1  
    55   22   53 1  
    56   23   54 1  
    57   27   55 1  
    58   30   56 1  
    59   31   57 1  
@<TRIPOS>SUBSTRUCTURE
     1 4UL         1

