### 
### Created by X-TOOL on Mon Sep 10 21:13:29 2018
### 

@<TRIPOS>MOLECULE
5bqs_ligand
   42    44     1     0     0
SMALL
GAST_HUCK


@<TRIPOS>ATOM
      1 C1          5.8180  -18.7570   -0.5230 C.ar      1 4VN        -0.0549
      2 C2          4.7530  -19.4630    0.0170 C.ar      1 4VN         0.0393
      3 C3          3.4240  -19.2270   -0.3960 C.ar      1 4VN        -0.0121
      4 C7          2.2310  -19.9800    0.0970 C.ar      1 4VN        -0.0049
      5 C8          2.0290  -21.3190   -0.2320 C.ar      1 4VN        -0.0460
      6 C9          0.8720  -21.9780    0.1450 C.ar      1 4VN        -0.0148
      7 C10        -0.0960  -21.2460    0.8700 C.ar      1 4VN         0.1150
      8 C11         1.2240  -19.3570    0.8260 C.ar      1 4VN         0.0047
      9 C12        -1.6530  -23.2160    0.9410 C.3       1 4VN         0.0318
     10 C13        -2.4530  -23.8850    2.0660 C.3       1 4VN        -0.0182
     11 C14        -3.7090  -23.0550    2.3730 C.3       1 4VN         0.0155
     12 C15        -3.3010  -21.6200    2.7390 C.3       1 4VN        -0.0182
     13 C16        -2.4750  -21.0140    1.5960 C.3       1 4VN         0.0318
     14 CL          5.1100  -20.7090    1.1600 Cl        1 4VN        -0.0767
     15 C4          3.2400  -18.2450   -1.3750 C.ar      1 4VN        -0.0517
     16 C5          4.3010  -17.5290   -1.9320 C.ar      1 4VN        -0.0182
     17 C6          4.0440  -16.4070   -2.8940 C.3       1 4VN         0.0780
     18 O           4.3670  -15.1640   -2.3000 O.3       1 4VN        -0.3825
     19 C           5.5880  -17.8100   -1.5010 C.ar      1 4VN        -0.0584
     20 N           0.0810  -19.9520    1.2070 N.ar      1 4VN        -0.2831
     21 N1         -1.2970  -21.8320    1.2780 N.pl3     1 4VN        -0.2932
     22 C17        -4.6080  -23.6950    3.4120 C.2       1 4VN         0.0380
     23 O2         -4.0190  -23.9530    4.5520 O.co2     1 4VN        -0.5687
     24 O1         -5.7800  -23.9390    3.1930 O.co2     1 4VN        -0.5687
     25 H1          6.8277  -18.9482   -0.1782 H         1 4VN         0.0604
     26 H2          2.7892  -21.8521   -0.7914 H         1 4VN         0.0707
     27 H3          0.7133  -23.0203   -0.1071 H         1 4VN         0.0613
     28 H4          1.3712  -18.3202    1.1062 H         1 4VN         0.0794
     29 H5         -2.2600  -23.2148    0.0237 H         1 4VN         0.0522
     30 H6         -0.7304  -23.7899    0.7695 H         1 4VN         0.0522
     31 H7         -1.8287  -23.9510    2.9692 H         1 4VN         0.0305
     32 H8         -2.7509  -24.8961    1.7514 H         1 4VN         0.0305
     33 H9         -4.2957  -22.9994    1.4442 H         1 4VN         0.0467
     34 H10        -2.6984  -21.6338    3.6591 H         1 4VN         0.0305
     35 H11        -4.2036  -21.0124    2.9008 H         1 4VN         0.0305
     36 H12        -2.1404  -20.0091    1.8930 H         1 4VN         0.0522
     37 H13        -3.1086  -20.9396    0.6999 H         1 4VN         0.0522
     38 H14         2.2330  -18.0314   -1.7148 H         1 4VN         0.0551
     39 H15         2.9809  -16.4082   -3.1766 H         1 4VN         0.0722
     40 H16         4.6624  -16.5509   -3.7923 H         1 4VN         0.0722
     41 H17         5.2854  -15.1596   -2.0570 H         1 4VN         0.2126
     42 H18         6.4258  -17.2787   -1.9380 H         1 4VN         0.0551
@<TRIPOS>BOND
     1    2    1 ar 
     2    1   19 ar 
     3    3    2 ar 
     4    2   14 1  
     5    4    3 1  
     6    3   15 ar 
     7    5    4 ar 
     8    8    4 ar 
     9    6    5 ar 
    10    7    6 ar 
    11    7   20 ar 
    12   21    7 1  
    13   20    8 ar 
    14    9   10 1  
    15    9   21 1  
    16   10   11 1  
    17   11   12 1  
    18   11   22 1  
    19   12   13 1  
    20   13   21 1  
    21   15   16 ar 
    22   16   17 1  
    23   16   19 ar 
    24   17   18 1  
    25   22   23 ar 
    26   22   24 ar 
    27    1   25 1  
    28    5   26 1  
    29    6   27 1  
    30    8   28 1  
    31    9   29 1  
    32    9   30 1  
    33   10   31 1  
    34   10   32 1  
    35   11   33 1  
    36   12   34 1  
    37   12   35 1  
    38   13   36 1  
    39   13   37 1  
    40   15   38 1  
    41   17   39 1  
    42   17   40 1  
    43   18   41 1  
    44   19   42 1  
@<TRIPOS>SUBSTRUCTURE
     1 4VN         1

