### 
### Created by X-TOOL on Mon Sep 10 21:13:21 2018
### 

@<TRIPOS>MOLECULE
5bry_ligand
   83    86     1     0     0
SMALL
GAST_HUCK


@<TRIPOS>ATOM
      1 C2         21.0980   27.7820   14.7140 C.ar      1 4UY         0.0908
      2 C3         19.7430   27.7480   14.3810 C.ar      1 4UY        -0.0313
      3 C4         18.9560   26.6410   14.6860 C.ar      1 4UY        -0.0440
      4 C5         19.5030   25.5270   15.3360 C.ar      1 4UY         0.0971
      5 C6         20.8600   25.5650   15.6660 C.ar      1 4UY        -0.0440
      6 C7         21.6430   26.6760   15.3580 C.ar      1 4UY        -0.0313
      7 S8         18.5050   24.1400   15.7140 S.o2      1 4UY         0.0657
      8 O9         17.4030   24.0310   14.7120 O.2       1 4UY        -0.1515
      9 O10        19.3380   22.9030   15.8050 O.2       1 4UY        -0.1515
     10 N11        17.8100   24.3160   17.2040 N.am      1 4UY        -0.2325
     11 C12        18.7330   24.6360   18.2770 C.3       1 4UY         0.0319
     12 C13        18.4020   23.9830   19.6270 C.3       1 4UY        -0.0296
     13 C14        18.4280   22.4480   19.5450 C.3       1 4UY        -0.0612
     14 C15        19.4070   24.4340   20.7020 C.3       1 4UY        -0.0612
     15 C16        16.5760   25.0840   17.2040 C.3       1 4UY         0.0578
     16 C17        15.4170   24.2080   17.6990 C.3       1 4UY         0.0967
     17 O18        14.2720   25.0260   17.9930 O.3       1 4UY        -0.3877
     18 C19        15.0420   23.1060   16.7120 C.3       1 4UY         0.0807
     19 N20        14.1660   22.1240   17.3330 N.am      1 4UY        -0.2550
     20 C21        14.4080   20.8540   17.6560 C.2       1 4UY         0.3203
     21 O22        15.5200   20.3520   17.4750 O.2       1 4UY        -0.3775
     22 O23        13.3280   20.2280   18.1940 O.3       1 4UY        -0.2576
     23 C24        13.4430   18.8330   18.5090 C.3       1 4UY         0.1240
     24 C25        12.9500   18.6650   19.9660 C.3       1 4UY         0.0818
     25 O26        11.5300   18.7350   19.8470 O.3       1 4UY        -0.3478
     26 C27        11.1190   18.1620   18.6070 C.3       1 4UY         0.1703
     27 O28        10.2710   19.1190   17.9350 O.3       1 4UY        -0.3452
     28 C29        10.9240   19.5800   16.7640 C.3       1 4UY         0.0938
     29 C30        12.0090   18.5540   16.3900 C.3       1 4UY         0.0115
     30 C31        12.3800   18.0000   17.7850 C.3       1 4UY         0.0874
     31 N41        11.3980   17.4650   15.6110 N.4       1 4UY         0.2290
     32 C42        11.3780   17.7300   14.1610 C.3       1 4UY        -0.0445
     33 C32        14.3020   23.6460   15.4790 C.3       1 4UY         0.0064
     34 C33        12.6990   22.0360   14.3260 C.ar      1 4UY        -0.0603
     35 C34        12.4160   20.9360   13.5060 C.ar      1 4UY        -0.0686
     36 C35        13.4530   20.2880   12.8470 C.ar      1 4UY        -0.0687
     37 C36        14.7680   20.7090   13.0590 C.ar      1 4UY        -0.0686
     38 C37        15.0400   21.8040   13.8920 C.ar      1 4UY        -0.0603
     39 C38        13.9990   22.4720   14.5300 C.ar      1 4UY        -0.0408
     40 O39        21.7960   28.8990   14.3830 O.3       1 4UY        -0.3212
     41 C40        23.1890   28.8970   14.6470 C.3       1 4UY         0.0594
     42 H1         19.2963   28.5973   13.8768 H         1 4UY         0.0542
     43 H2         17.9059   26.6409   14.4170 H         1 4UY         0.0608
     44 H3         21.3108   24.7173   16.1693 H         1 4UY         0.0608
     45 H4         22.6937   26.6783   15.6246 H         1 4UY         0.0542
     46 H5         18.7320   25.7273   18.4153 H         1 4UY         0.0480
     47 H6         19.7376   24.3057   17.9742 H         1 4UY         0.0480
     48 H7         17.3925   24.3018   19.9259 H         1 4UY         0.0311
     49 H8         18.1861   22.0240   20.5308 H         1 4UY         0.0233
     50 H9         19.4302   22.1141   19.2382 H         1 4UY         0.0233
     51 H10        17.6863   22.1076   18.8075 H         1 4UY         0.0233
     52 H11        19.4001   25.5317   20.7728 H         1 4UY         0.0233
     53 H12        20.4155   24.0906   20.4283 H         1 4UY         0.0233
     54 H13        19.1236   24.0022   21.6732 H         1 4UY         0.0233
     55 H14        16.3614   25.4299   16.1821 H         1 4UY         0.0504
     56 H15        16.6868   25.9528   17.8695 H         1 4UY         0.0504
     57 H16        15.7404   23.7229   18.6318 H         1 4UY         0.0634
     58 H17        14.0026   25.4861   17.2067 H         1 4UY         0.2100
     59 H18        15.9678   22.6105   16.3843 H         1 4UY         0.0604
     60 H19        13.2460   22.4506   17.5495 H         1 4UY         0.1873
     61 H20        14.4651   18.4643   18.3377 H         1 4UY         0.0677
     62 H21        13.3313   19.4743   20.6060 H         1 4UY         0.0590
     63 H22        13.2627   17.6940   20.3775 H         1 4UY         0.0590
     64 H23        10.6020   17.2022   18.7532 H         1 4UY         0.0915
     65 H24        11.3865   20.5595   16.9554 H         1 4UY         0.0617
     66 H25        10.1978   19.6715   15.9429 H         1 4UY         0.0617
     67 H26        12.8617   19.0025   15.8593 H         1 4UY         0.0879
     68 H27        12.6985   16.9497   17.7119 H         1 4UY         0.0436
     69 H28        10.4492   17.3382   15.9268 H         1 4UY         0.2014
     70 H29        11.9225   16.6200   15.7752 H         1 4UY         0.2014
     71 H30        10.9108   16.8815   13.6396 H         1 4UY         0.0777
     72 H31        12.4080   17.8612   13.7980 H         1 4UY         0.0777
     73 H32        10.8002   18.6449   13.9634 H         1 4UY         0.0777
     74 H33        14.9327   24.3851   14.9633 H         1 4UY         0.0449
     75 H34        13.3606   24.1215   15.7914 H         1 4UY         0.0449
     76 H35        11.8828   22.5581   14.8121 H         1 4UY         0.0557
     77 H36        11.3947   20.5928   13.3866 H         1 4UY         0.0599
     78 H37        13.2439   19.4637   12.1748 H         1 4UY         0.0559
     79 H38        15.5848   20.1851   12.5758 H         1 4UY         0.0599
     80 H39        16.0631   22.1307   14.0392 H         1 4UY         0.0557
     81 H40        23.6234   29.8570   14.3313 H         1 4UY         0.0577
     82 H41        23.6666   28.0776   14.0899 H         1 4UY         0.0577
     83 H42        23.3578   28.7550   15.7246 H         1 4UY         0.0577
@<TRIPOS>BOND
     1    2    1 ar 
     2    6    1 ar 
     3    1   40 1  
     4    3    2 ar 
     5    4    3 ar 
     6    4    5 ar 
     7    7    4 1  
     8    5    6 ar 
     9    7    8 2  
    10    7    9 2  
    11   10    7 am 
    12   10   11 1  
    13   15   10 1  
    14   11   12 1  
    15   12   13 1  
    16   12   14 1  
    17   16   15 1  
    18   16   17 1  
    19   18   16 1  
    20   18   19 1  
    21   33   18 1  
    22   19   20 am 
    23   20   21 2  
    24   20   22 1  
    25   22   23 1  
    26   23   24 1  
    27   23   30 1  
    28   24   25 1  
    29   26   25 1  
    30   26   27 1  
    31   30   26 1  
    32   28   27 1  
    33   29   28 1  
    34   30   29 1  
    35   29   31 1  
    36   31   32 1  
    37   39   33 1  
    38   34   35 ar 
    39   34   39 ar 
    40   35   36 ar 
    41   36   37 ar 
    42   37   38 ar 
    43   38   39 ar 
    44   40   41 1  
    45    2   42 1  
    46    3   43 1  
    47    5   44 1  
    48    6   45 1  
    49   11   46 1  
    50   11   47 1  
    51   12   48 1  
    52   13   49 1  
    53   13   50 1  
    54   13   51 1  
    55   14   52 1  
    56   14   53 1  
    57   14   54 1  
    58   15   55 1  
    59   15   56 1  
    60   16   57 1  
    61   17   58 1  
    62   18   59 1  
    63   19   60 1  
    64   23   61 1  
    65   24   62 1  
    66   24   63 1  
    67   26   64 1  
    68   28   65 1  
    69   28   66 1  
    70   29   67 1  
    71   30   68 1  
    72   31   69 1  
    73   31   70 1  
    74   32   71 1  
    75   32   72 1  
    76   32   73 1  
    77   33   74 1  
    78   33   75 1  
    79   34   76 1  
    80   35   77 1  
    81   36   78 1  
    82   37   79 1  
    83   38   80 1  
    84   41   81 1  
    85   41   82 1  
    86   41   83 1  
@<TRIPOS>SUBSTRUCTURE
     1 4UY         1

