### 
### Created by X-TOOL on Mon Sep 10 21:13:22 2018
### 

@<TRIPOS>MOLECULE
5bs4_ligand
   81    84     1     0     0
SMALL
GAST_HUCK


@<TRIPOS>ATOM
      1 N1         11.6570   17.4710   21.2510 N.pl3     1 4UX        -0.3369
      2 C2         12.6330   18.1060   20.6300 C.ar      1 4UX         0.0353
      3 C4         14.4770   19.6460   20.6830 C.ar      1 4UX        -0.0471
      4 C6         13.8230   18.5370   18.6260 C.ar      1 4UX        -0.0471
      5 C7         12.8370   17.8130   19.2730 C.ar      1 4UX        -0.0429
      6 O10        16.3220   19.5540   17.2810 O.2       1 4UX        -0.1518
      7 N11        15.1800   21.6880   17.7570 N.am      1 4UX        -0.2327
      8 C13        14.2010   22.4580   15.5750 C.3       1 4UX        -0.0296
      9 C14        15.4890   22.3400   14.7320 C.3       1 4UX        -0.0612
     10 C15        13.0070   22.2330   14.6230 C.3       1 4UX        -0.0612
     11 C16        14.9920   22.7760   18.7010 C.3       1 4UX         0.0578
     12 C17        15.8480   23.9780   18.3530 C.3       1 4UX         0.0967
     13 O18        15.3590   25.1450   19.0230 O.3       1 4UX        -0.3877
     14 C21        18.9320   24.7710   17.0410 C.2       1 4UX         0.3203
     15 O28        21.6110   28.2140   17.7190 O.3       1 4UX        -0.3452
     16 C29        21.6290   27.0180   18.5200 C.3       1 4UX         0.0938
     17 C30        22.2170   25.9190   17.6680 C.3       1 4UX         0.0115
     18 C31        21.9230   26.3810   16.2390 C.3       1 4UX         0.0874
     19 C32        17.6530   23.7150   20.1630 C.3       1 4UX         0.0064
     20 C3         13.4840   18.9280   21.3620 C.ar      1 4UX        -0.0429
     21 C5         14.5920   19.4580   19.3030 C.ar      1 4UX         0.0949
     22 S8         15.8080   20.3260   18.4080 S.o2      1 4UX         0.0648
     23 O9         16.8380   20.7770   19.4150 O.2       1 4UX        -0.1518
     24 C12        14.1960   21.4250   16.7190 C.3       1 4UX         0.0319
     25 C19        17.3370   23.8050   18.6530 C.3       1 4UX         0.0807
     26 N20        18.0720   24.8960   18.0470 N.am      1 4UX        -0.2550
     27 O22        19.1190   23.7790   16.3310 O.2       1 4UX        -0.3775
     28 O23        19.6190   25.9040   16.8280 O.3       1 4UX        -0.2576
     29 C24        20.5470   25.9540   15.7450 C.3       1 4UX         0.1240
     30 C25        20.1670   27.1720   14.9040 C.3       1 4UX         0.0818
     31 O26        20.7010   28.3030   15.6030 O.3       1 4UX        -0.3478
     32 C27        21.8430   27.8840   16.3490 C.3       1 4UX         0.1703
     33 C33        19.9380   24.5480   20.8730 C.ar      1 4UX        -0.0603
     34 C34        21.3160   24.3450   21.0460 C.ar      1 4UX        -0.0686
     35 C35        21.8900   23.1230   20.7130 C.ar      1 4UX        -0.0687
     36 C36        21.1230   22.0860   20.1760 C.ar      1 4UX        -0.0686
     37 C37        19.7480   22.2870   20.0160 C.ar      1 4UX        -0.0603
     38 C38        19.1670   23.5090   20.3720 C.ar      1 4UX        -0.0408
     39 N51        23.6850   25.9020   17.8060 N.4       1 4UX         0.2290
     40 C52        24.2030   25.2430   18.9920 C.3       1 4UX        -0.0445
     41 H1         11.0205   16.8597   20.7199 H         1 4UX         0.1719
     42 H2         11.5317   17.5867   22.2668 H         1 4UX         0.1719
     43 H3         15.1354   20.3260   21.2114 H         1 4UX         0.0602
     44 H4         13.9933   18.3766   17.5675 H         1 4UX         0.0602
     45 H5         12.2527   17.0588   18.7583 H         1 4UX         0.0515
     46 H6         14.1383   23.4667   16.0093 H         1 4UX         0.0311
     47 H7         15.4681   23.0862   13.9241 H         1 4UX         0.0233
     48 H8         15.5520   21.3313   14.2978 H         1 4UX         0.0233
     49 H9         16.3647   22.5185   15.3734 H         1 4UX         0.0233
     50 H10        12.0671   22.3097   15.1893 H         1 4UX         0.0233
     51 H11        13.0820   21.2331   14.1707 H         1 4UX         0.0233
     52 H12        13.0209   22.9959   13.8307 H         1 4UX         0.0233
     53 H13        15.2636   22.4250   19.7075 H         1 4UX         0.0504
     54 H14        13.9342   23.0774   18.6908 H         1 4UX         0.0504
     55 H15        15.7509   24.1407   17.2694 H         1 4UX         0.0634
     56 H16        15.3868   25.0046   19.9621 H         1 4UX         0.2100
     57 H17        20.6057   26.7525   18.8240 H         1 4UX         0.0617
     58 H18        22.2489   27.1733   19.4153 H         1 4UX         0.0617
     59 H19        21.7787   24.9369   17.8987 H         1 4UX         0.0879
     60 H20        22.7094   26.0465   15.5465 H         1 4UX         0.0436
     61 H21        17.1059   22.8666   20.6000 H         1 4UX         0.0449
     62 H22        17.3403   24.6467   20.6571 H         1 4UX         0.0449
     63 H23        13.3806   19.0113   22.4378 H         1 4UX         0.0515
     64 H24        13.1976   21.4249   17.1807 H         1 4UX         0.0480
     65 H25        14.4019   20.4331   16.2904 H         1 4UX         0.0480
     66 H26        17.6666   22.8639   18.1886 H         1 4UX         0.0604
     67 H27        17.9209   25.8140   18.4136 H         1 4UX         0.1873
     68 H28        20.5665   25.0106   15.1796 H         1 4UX         0.0677
     69 H29        19.0734   27.2542   14.8190 H         1 4UX         0.0590
     70 H30        20.6084   27.0980   13.8992 H         1 4UX         0.0590
     71 H31        22.7614   28.3606   15.9756 H         1 4UX         0.0915
     72 H32        19.4843   25.4994   21.1262 H         1 4UX         0.0557
     73 H33        21.9346   25.1431   21.4403 H         1 4UX         0.0599
     74 H34        22.9515   22.9723   20.8729 H         1 4UX         0.0559
     75 H35        21.5830   21.1471   19.8899 H         1 4UX         0.0599
     76 H36        19.1297   21.4923   19.6143 H         1 4UX         0.0557
     77 H37        24.0051   26.8577   17.8191 H         1 4UX         0.2014
     78 H38        24.0656   25.4312   17.0000 H         1 4UX         0.2014
     79 H39        25.3019   25.2918   18.9881 H         1 4UX         0.0777
     80 H40        23.8828   24.1907   18.9962 H         1 4UX         0.0777
     81 H41        23.8168   25.7474   19.8900 H         1 4UX         0.0777
@<TRIPOS>BOND
     1    2    1 1  
     2    5    2 ar 
     3   20    2 ar 
     4    3   20 ar 
     5   21    3 ar 
     6    4    5 ar 
     7   21    4 ar 
     8   22    6 2  
     9   11    7 1  
    10    7   22 am 
    11    7   24 1  
    12    8    9 1  
    13    8   10 1  
    14   24    8 1  
    15   12   11 1  
    16   12   13 1  
    17   25   12 1  
    18   26   14 am 
    19   14   27 2  
    20   14   28 1  
    21   15   16 1  
    22   32   15 1  
    23   17   16 1  
    24   18   17 1  
    25   17   39 1  
    26   29   18 1  
    27   18   32 1  
    28   19   25 1  
    29   38   19 1  
    30   22   21 1  
    31   22   23 2  
    32   25   26 1  
    33   28   29 1  
    34   29   30 1  
    35   30   31 1  
    36   31   32 1  
    37   33   34 ar 
    38   33   38 ar 
    39   34   35 ar 
    40   35   36 ar 
    41   36   37 ar 
    42   37   38 ar 
    43   39   40 1  
    44    1   41 1  
    45    1   42 1  
    46    3   43 1  
    47    4   44 1  
    48    5   45 1  
    49    8   46 1  
    50    9   47 1  
    51    9   48 1  
    52    9   49 1  
    53   10   50 1  
    54   10   51 1  
    55   10   52 1  
    56   11   53 1  
    57   11   54 1  
    58   12   55 1  
    59   13   56 1  
    60   16   57 1  
    61   16   58 1  
    62   17   59 1  
    63   18   60 1  
    64   19   61 1  
    65   19   62 1  
    66   20   63 1  
    67   24   64 1  
    68   24   65 1  
    69   25   66 1  
    70   26   67 1  
    71   29   68 1  
    72   30   69 1  
    73   30   70 1  
    74   32   71 1  
    75   33   72 1  
    76   34   73 1  
    77   35   74 1  
    78   36   75 1  
    79   37   76 1  
    80   39   77 1  
    81   39   78 1  
    82   40   79 1  
    83   40   80 1  
    84   40   81 1  
@<TRIPOS>SUBSTRUCTURE
     1 4UX         1

