### 
### Created by X-TOOL on Mon Sep 10 21:13:23 2018
### 

@<TRIPOS>MOLECULE
5bue_ligand
   50    54     1     0     0
SMALL
GAST_HUCK


@<TRIPOS>ATOM
      1 C2         17.8200   -0.7380   14.5510 C.2       1 4V8         0.0408
      2 C3         16.4610   -0.8510   14.0240 C.2       1 4V8         0.0000
      3 C11        19.9080   -1.5500   15.6750 C.ar      1 4V8        -0.0294
      4 C12        20.5700   -2.2490   16.6890 C.ar      1 4V8         0.0082
      5 C14        18.5020   -2.7680   17.7350 C.ar      1 4V8         0.0082
      6 C15        17.7940   -2.0970   16.7280 C.ar      1 4V8        -0.0294
      7 C16        12.9110   -1.8480   14.1680 C.2       1 4V8         0.0227
      8 C17        12.8060   -2.5780   15.4700 C.2       1 4V8        -0.0174
      9 C18        11.6330   -2.9840   15.9660 C.2       1 4V8         0.0669
     10 C20        10.4330   -2.0020   14.1700 C.2       1 4V8         0.1773
     11 C21        11.7130   -1.5450   13.5900 C.2       1 4V8        -0.0117
     12 C23         9.2480   -3.3340   15.9230 C.3       1 4V8         0.1019
     13 C24         8.8940   -4.6150   15.1470 C.ar      1 4V8        -0.0109
     14 C25         7.5570   -4.8600   14.7620 C.ar      1 4V8        -0.0575
     15 C26         7.2130   -6.0170   14.0350 C.ar      1 4V8        -0.0685
     16 C27         8.2050   -6.9500   13.6740 C.ar      1 4V8        -0.0687
     17 C28         9.5460   -6.7230   14.0450 C.ar      1 4V8        -0.0685
     18 C29         9.8770   -5.5600   14.7760 C.ar      1 4V8        -0.0575
     19 N1         18.3920    0.1270   13.8240 N.2       1 4V8        -0.2240
     20 C4         16.4050    0.0270   13.0040 C.2       1 4V8         0.0699
     21 N5         17.5540    0.6090   12.8840 N.pl3     1 4V8        -0.2233
     22 C6         15.3190   -1.7320   14.4490 C.3       1 4V8         0.0466
     23 N7         14.0970   -1.5220   13.6570 N.pl3     1 4V8        -0.3019
     24 C8         14.2580   -0.9680   12.2890 C.3       1 4V8         0.0419
     25 C9         15.1830    0.2730   12.1590 C.3       1 4V8         0.0252
     26 C10        18.5040   -1.4770   15.6840 C.ar      1 4V8         0.0005
     27 N13        19.8540   -2.8310   17.6760 N.ar      1 4V8        -0.3009
     28 N19        10.4600   -2.7520   15.3190 N.am      1 4V8        -0.2029
     29 O22         9.4280   -1.7410   13.5270 O.2       1 4V8        -0.4360
     30 H1         20.4740   -1.0672   14.8866 H         1 4V8         0.0698
     31 H2         21.6514   -2.3235   16.6833 H         1 4V8         0.0815
     32 H3         17.9703   -3.2341   18.5567 H         1 4V8         0.0815
     33 H4         16.7111   -2.0564   16.7537 H         1 4V8         0.0698
     34 H5         13.7154   -2.7854   16.0321 H         1 4V8         0.0343
     35 H6         11.6165   -3.5161   16.9160 H         1 4V8         0.1232
     36 H7         11.6996   -0.9509   12.6774 H         1 4V8         0.0158
     37 H8          9.4381   -3.5782   16.9786 H         1 4V8         0.0804
     38 H9          8.4170   -2.6163   15.8565 H         1 4V8         0.0804
     39 H10         6.7848   -4.1478   15.0297 H         1 4V8         0.0558
     40 H11         6.1809   -6.1899   13.7523 H         1 4V8         0.0599
     41 H12         7.9383   -7.8386   13.1134 H         1 4V8         0.0559
     42 H13        10.3167   -7.4347   13.7718 H         1 4V8         0.0599
     43 H14        10.9093   -5.3886   15.0589 H         1 4V8         0.0558
     44 H15        17.7907    1.3255   12.1830 H         1 4V8         0.2531
     45 H16        15.0911   -1.5235   15.5047 H         1 4V8         0.0592
     46 H17        15.6289   -2.7819   14.3412 H         1 4V8         0.0592
     47 H18        13.2608   -0.6838   11.9219 H         1 4V8         0.0545
     48 H19        14.6708   -1.7631   11.6508 H         1 4V8         0.0545
     49 H20        15.4766    0.4123   11.1081 H         1 4V8         0.0468
     50 H21        14.6566    1.1709   12.5148 H         1 4V8         0.0468
@<TRIPOS>BOND
     1    2    1 1  
     2    1   19 2  
     3    1   26 1  
     4    2   20 2  
     5   22    2 1  
     6    3    4 ar 
     7   26    3 ar 
     8    4   27 ar 
     9    6    5 ar 
    10    5   27 ar 
    11   26    6 ar 
    12    7    8 1  
    13    7   11 2  
    14   23    7 1  
    15    8    9 2  
    16    9   28 1  
    17   11   10 1  
    18   10   28 am 
    19   10   29 2  
    20   12   13 1  
    21   28   12 1  
    22   13   14 ar 
    23   13   18 ar 
    24   14   15 ar 
    25   15   16 ar 
    26   17   16 ar 
    27   18   17 ar 
    28   21   19 1  
    29   20   21 1  
    30   20   25 1  
    31   22   23 1  
    32   23   24 1  
    33   24   25 1  
    34    3   30 1  
    35    4   31 1  
    36    5   32 1  
    37    6   33 1  
    38    8   34 1  
    39    9   35 1  
    40   11   36 1  
    41   12   37 1  
    42   12   38 1  
    43   14   39 1  
    44   15   40 1  
    45   16   41 1  
    46   17   42 1  
    47   18   43 1  
    48   21   44 1  
    49   22   45 1  
    50   22   46 1  
    51   24   47 1  
    52   24   48 1  
    53   25   49 1  
    54   25   50 1  
@<TRIPOS>SUBSTRUCTURE
     1 4V8         1

