### 
### Created by X-TOOL on Mon Sep 10 21:13:22 2018
### 

@<TRIPOS>MOLECULE
5bui_ligand
   37    40     1     0     0
SMALL
GAST_HUCK


@<TRIPOS>ATOM
      1 C1        -12.8260    2.0930   14.9400 C.ar      1 4V9         0.1149
      2 C2        -10.5290    2.2360   14.8700 C.ar      1 4V9        -0.0042
      3 C3        -10.4590    2.6720   16.1800 C.ar      1 4V9        -0.0480
      4 C11       -17.7500    0.8370   14.5950 C.2       1 4V9         0.0820
      5 C12       -18.5450    1.4430   15.6920 C.ar      1 4V9        -0.0024
      6 C13       -17.9360    1.9860   16.8250 C.ar      1 4V9        -0.0565
      7 C14       -18.6910    2.5560   17.8360 C.ar      1 4V9        -0.0296
      8 C15       -20.0520    2.5830   17.6910 C.ar      1 4V9         0.1307
      9 C16       -20.6930    2.0650   16.6000 C.ar      1 4V9        -0.0296
     10 C17       -19.9310    1.4830   15.6020 C.ar      1 4V9        -0.0565
     11 F         -20.8140    3.1220   18.6990 F         1 4V9        -0.1846
     12 C7        -16.3660    1.0430   14.2730 C.2       1 4V9         0.0040
     13 C6        -15.3330    1.9060   14.9310 C.3       1 4V9         0.0519
     14 N4        -18.2610   -0.0370   13.7210 N.pl3     1 4V9        -0.2312
     15 N3        -17.2630   -0.3920   12.8540 N.2       1 4V9        -0.2313
     16 C8        -16.0900    0.2600   13.1610 C.2       1 4V9         0.0194
     17 C9        -14.7680    0.2080   12.4650 C.3       1 4V9         0.0043
     18 C10       -14.0030    1.4830   12.8200 C.3       1 4V9         0.0395
     19 N1        -14.0000    1.8070   14.2540 N.pl3     1 4V9        -0.2863
     20 C5        -12.8530    2.5450   16.2690 C.ar      1 4V9        -0.0159
     21 C4        -11.6390    2.8330   16.8770 C.ar      1 4V9        -0.0542
     22 N2        -11.6820    1.9410   14.2420 N.ar      1 4V9        -0.2852
     23 H1         -9.6029    2.1255   14.3175 H         1 4V9         0.0781
     24 H2         -9.5034    2.8816   16.6468 H         1 4V9         0.0597
     25 H3        -16.8560    1.9609   16.9145 H         1 4V9         0.0594
     26 H4        -18.2171    2.9698   18.7187 H         1 4V9         0.0600
     27 H5        -21.7730    2.1092   16.5186 H         1 4V9         0.0600
     28 H6        -20.4227    1.0520   14.7374 H         1 4V9         0.0594
     29 H7        -15.2226    1.5903   15.9789 H         1 4V9         0.0616
     30 H8        -15.6711    2.9522   14.8968 H         1 4V9         0.0616
     31 H9        -19.2316   -0.3813   13.7035 H         1 4V9         0.2450
     32 H10       -14.9198    0.1533   11.3769 H         1 4V9         0.0424
     33 H11       -14.2025   -0.6736   12.8011 H         1 4V9         0.0424
     34 H12       -14.4625    2.3227   12.2781 H         1 4V9         0.0540
     35 H13       -12.9601    1.3617   12.4921 H         1 4V9         0.0540
     36 H14       -13.7894    2.6649   16.8017 H         1 4V9         0.0610
     37 H15       -11.6178    3.1853   17.9019 H         1 4V9         0.0699
@<TRIPOS>BOND
     1   19    1 1  
     2    1   20 ar 
     3    1   22 ar 
     4    2    3 ar 
     5   22    2 ar 
     6    3   21 ar 
     7    4    5 1  
     8   12    4 2  
     9    4   14 1  
    10    5    6 ar 
    11    5   10 ar 
    12    6    7 ar 
    13    7    8 ar 
    14    9    8 ar 
    15    8   11 1  
    16   10    9 ar 
    17   13   12 1  
    18   12   16 1  
    19   13   19 1  
    20   14   15 1  
    21   15   16 2  
    22   16   17 1  
    23   17   18 1  
    24   18   19 1  
    25   20   21 ar 
    26    2   23 1  
    27    3   24 1  
    28    6   25 1  
    29    7   26 1  
    30    9   27 1  
    31   10   28 1  
    32   13   29 1  
    33   13   30 1  
    34   14   31 1  
    35   17   32 1  
    36   17   33 1  
    37   18   34 1  
    38   18   35 1  
    39   20   36 1  
    40   21   37 1  
@<TRIPOS>SUBSTRUCTURE
     1 4V9         1

