### 
### Created by X-TOOL on Mon Sep 10 21:13:22 2018
### 

@<TRIPOS>MOLECULE
5buj_ligand
   37    40     1     0     0
SMALL
GAST_HUCK


@<TRIPOS>ATOM
      1 C2        -17.7200    1.1420   14.6690 C.2       1 4VB         0.0941
      2 C3        -16.3730    1.3040   14.1990 C.2       1 4VB         0.0130
      3 C11       -17.7060    2.3430   16.8780 C.ar      1 4VB        -0.0296
      4 C12       -18.4160    2.9500   17.8940 C.ar      1 4VB         0.0058
      5 C14       -20.4060    2.5440   16.8680 C.ar      1 4VB         0.0058
      6 C15       -19.7890    1.9100   15.8070 C.ar      1 4VB        -0.0296
      7 C16       -12.7590    2.0790   14.4280 C.2       1 4VB         0.0876
      8 C17       -12.5250    2.7030   15.6910 C.2       1 4VB        -0.0135
      9 C18       -11.2610    2.8240   16.1470 C.2       1 4VB        -0.0166
     10 C20       -10.3190    1.7700   14.2030 C.2       1 4VB         0.1633
     11 C21       -11.6530    1.6040   13.7240 C.3       1 4VB         0.1016
     12 N1        -18.3310    0.2400   13.9000 N.pl3     1 4VB        -0.2266
     13 C4        -16.2400    0.4660   13.1050 C.2       1 4VB         0.0258
     14 N5        -17.4450   -0.1770   12.9630 N.2       1 4VB        -0.2249
     15 C6        -15.2300    2.1060   14.7350 C.3       1 4VB         0.0654
     16 N7        -14.0580    1.9870   13.8650 N.pl3     1 4VB        -0.2666
     17 C8        -14.3310    1.7430   12.4410 C.3       1 4VB         0.0507
     18 C9        -15.0090    0.3980   12.2640 C.3       1 4VB         0.0077
     19 C10       -18.4020    1.8120   15.7980 C.ar      1 4VB         0.0188
     20 N13       -19.7490    3.0610   17.9080 N.ar      1 4VB        -0.3038
     21 N19       -10.2040    2.3890   15.4190 N.2       1 4VB        -0.3001
     22 O22        -9.2910    1.4260   13.6000 O.2       1 4VB        -0.3975
     23 H1        -16.6246    2.2814   16.9213 H         1 4VB         0.0686
     24 H2        -17.8609    3.3609   18.7296 H         1 4VB         0.0807
     25 H3        -21.4868    2.6263   16.8549 H         1 4VB         0.0807
     26 H4        -20.3761    1.4960   14.9953 H         1 4VB         0.0686
     27 H5        -13.3598    3.0781   16.2812 H         1 4VB         0.0318
     28 H6        -11.0866    3.2806   17.1201 H         1 4VB         0.0992
     29 H7        -11.6870    2.0871   12.7364 H         1 4VB         0.0814
     30 H8        -11.8050    0.5208   13.6078 H         1 4VB         0.0814
     31 H9        -19.3040   -0.0827   14.0004 H         1 4VB         0.2465
     32 H10       -14.9720    1.7396   15.7396 H         1 4VB         0.0656
     33 H11       -15.5282    3.1631   14.7956 H         1 4VB         0.0656
     34 H12       -13.3834    1.7491   11.8825 H         1 4VB         0.0568
     35 H13       -14.9890    2.5357   12.0555 H         1 4VB         0.0568
     36 H14       -15.2716    0.2345   11.2084 H         1 4VB         0.0427
     37 H15       -14.3512   -0.4137   12.6081 H         1 4VB         0.0427
@<TRIPOS>BOND
     1    2    1 2  
     2    1   12 1  
     3    1   19 1  
     4    2   13 1  
     5   15    2 1  
     6    3    4 ar 
     7   19    3 ar 
     8    4   20 ar 
     9    6    5 ar 
    10    5   20 ar 
    11   19    6 ar 
    12    7    8 2  
    13    7   11 1  
    14   16    7 1  
    15    8    9 1  
    16    9   21 2  
    17   11   10 1  
    18   10   21 1  
    19   10   22 2  
    20   14   12 1  
    21   13   14 2  
    22   13   18 1  
    23   15   16 1  
    24   16   17 1  
    25   17   18 1  
    26    3   23 1  
    27    4   24 1  
    28    5   25 1  
    29    6   26 1  
    30    8   27 1  
    31    9   28 1  
    32   11   29 1  
    33   11   30 1  
    34   12   31 1  
    35   15   32 1  
    36   15   33 1  
    37   17   34 1  
    38   17   35 1  
    39   18   36 1  
    40   18   37 1  
@<TRIPOS>SUBSTRUCTURE
     1 4VB         1

