### 
### Created by X-TOOL on Mon Sep 10 21:13:22 2018
### 

@<TRIPOS>MOLECULE
5bvd_ligand
   59    63     1     0     0
SMALL
GAST_HUCK


@<TRIPOS>ATOM
      1 C2         12.2940   -2.7200   14.9120 C.2       1 4VF         0.1330
      2 C3         12.4170   -3.6850   17.1220 C.3       1 4VF         0.0781
      3 C12        18.0380   -1.2760   14.4790 C.ar      1 4VF         0.1810
      4 C15        13.0750   -2.0840   14.0110 C.2       1 4VF        -0.0444
      5 C16        14.4050   -2.1090   14.6470 C.2       1 4VF        -0.0006
      6 C17        14.2710   -2.7420   15.8210 C.2       1 4VF         0.0496
      7 C18         8.9590   -4.3120   15.6610 C.3       1 4VF         0.1006
      8 C19         8.7140   -5.3830   14.5870 C.ar      1 4VF        -0.0153
      9 C20         7.3950   -5.7250   14.2610 C.ar      1 4VF        -0.0442
     10 C21         7.1350   -6.7090   13.3060 C.ar      1 4VF         0.0338
     11 C22         8.1920   -7.3390   12.6450 C.ar      1 4VF        -0.0548
     12 C23         9.5190   -6.9950   12.9480 C.ar      1 4VF        -0.0680
     13 C24         9.7720   -6.0190   13.9240 C.ar      1 4VF        -0.0579
     14 C25        19.2370   -2.6550   16.1620 C.3       1 4VF         0.0459
     15 C26        20.6910   -3.1730   16.3500 C.3       1 4VF        -0.0060
     16 C27        20.7640   -4.1730   17.5280 C.3       1 4VF         0.0498
     17 C29        18.8620   -3.2170   18.5890 C.3       1 4VF         0.0498
     18 C30        18.7760   -2.0940   17.5330 C.3       1 4VF        -0.0060
     19 CL1         5.4720   -7.1650   12.9870 Cl        1 4VF        -0.0725
     20 O28        20.2480   -3.6000   18.7430 O.3       1 4VF        -0.3796
     21 O32         8.5370   -3.9130   18.0080 O.3       1 4VF        -0.3906
     22 N5         10.3850   -3.9820   15.7180 N.am      1 4VF        -0.2539
     23 C31         8.3420   -4.8800   16.9720 C.3       1 4VF         0.0769
     24 C8         15.7000   -1.4780   14.1870 C.ar      1 4VF         0.0320
     25 C6         10.8660   -3.0450   14.8570 C.2       1 4VF         0.2232
     26 N13        16.8510   -1.8270   14.8200 N.ar      1 4VF        -0.2630
     27 N14        19.1730   -1.6090   15.1380 N.pl3     1 4VF        -0.2875
     28 C4         11.3070   -4.6490   16.6510 C.3       1 4VF         0.0640
     29 C10        16.9870   -0.0030   12.8170 C.ar      1 4VF         0.0055
     30 O7         10.1760   -2.4720   14.0180 O.2       1 4VF        -0.3907
     31 C9         15.7420   -0.5560   13.1410 C.ar      1 4VF        -0.0269
     32 N1         13.0100   -3.0640   15.9390 N.pl3     1 4VF        -0.2523
     33 N11        18.0920   -0.3660   13.4970 N.ar      1 4VF        -0.2639
     34 H1         13.1863   -4.2437   17.6752 H         1 4VF         0.0648
     35 H2         11.9866   -2.9104   17.7737 H         1 4VF         0.0648
     36 H3         12.7914   -1.6573   13.0501 H         1 4VF         0.0408
     37 H4         15.0625   -2.9486   16.5398 H         1 4VF         0.1018
     38 H5          8.4169   -3.3929   15.3941 H         1 4VF         0.0743
     39 H6          6.5709   -5.2220   14.7538 H         1 4VF         0.0562
     40 H7          7.9872   -8.0955   11.8961 H         1 4VF         0.0565
     41 H8         10.3407   -7.4790   12.4327 H         1 4VF         0.0599
     42 H9         10.7948   -5.7548   14.1672 H         1 4VF         0.0559
     43 H10        18.5846   -3.4883   15.8621 H         1 4VF         0.0561
     44 H11        21.3546   -2.3206   16.5576 H         1 4VF         0.0310
     45 H12        21.0178   -3.6760   15.4279 H         1 4VF         0.0310
     46 H13        21.8136   -4.4610   17.6870 H         1 4VF         0.0560
     47 H14        20.1730   -5.0657   17.2754 H         1 4VF         0.0560
     48 H15        18.2726   -4.0843   18.2566 H         1 4VF         0.0560
     49 H16        18.4691   -2.8531   19.5498 H         1 4VF         0.0560
     50 H17        17.7378   -1.7386   17.4561 H         1 4VF         0.0310
     51 H18        19.4285   -1.2591   17.8283 H         1 4VF         0.0310
     52 H19         8.1063   -3.1013   17.7671 H         1 4VF         0.2097
     53 H20         8.8416   -5.8221   17.2420 H         1 4VF         0.0603
     54 H21         7.2667   -5.0628   16.8298 H         1 4VF         0.0603
     55 H22        20.0379   -1.0996   14.9070 H         1 4VF         0.1864
     56 H23        10.7406   -4.9994   17.5264 H         1 4VF         0.0552
     57 H24        11.7695   -5.5093   16.1451 H         1 4VF         0.0552
     58 H25        17.0622    0.7215   12.0142 H         1 4VF         0.0867
     59 H26        14.8449   -0.2782   12.5996 H         1 4VF         0.0616
@<TRIPOS>BOND
     1    4    1 2  
     2    1   25 1  
     3   32    1 1  
     4    2   28 1  
     5   32    2 1  
     6   26    3 ar 
     7    3   27 1  
     8    3   33 ar 
     9    5    4 1  
    10    5    6 2  
    11   24    5 1  
    12    6   32 1  
    13    7    8 1  
    14   22    7 1  
    15    7   23 1  
    16    8    9 ar 
    17    8   13 ar 
    18    9   10 ar 
    19   10   11 ar 
    20   10   19 1  
    21   12   11 ar 
    22   13   12 ar 
    23   14   15 1  
    24   14   18 1  
    25   27   14 1  
    26   15   16 1  
    27   16   20 1  
    28   18   17 1  
    29   17   20 1  
    30   23   21 1  
    31   25   22 am 
    32   28   22 1  
    33   24   26 ar 
    34   24   31 ar 
    35   25   30 2  
    36   31   29 ar 
    37   29   33 ar 
    38    2   34 1  
    39    2   35 1  
    40    4   36 1  
    41    6   37 1  
    42    7   38 1  
    43    9   39 1  
    44   11   40 1  
    45   12   41 1  
    46   13   42 1  
    47   14   43 1  
    48   15   44 1  
    49   15   45 1  
    50   16   46 1  
    51   16   47 1  
    52   17   48 1  
    53   17   49 1  
    54   18   50 1  
    55   18   51 1  
    56   21   52 1  
    57   23   53 1  
    58   23   54 1  
    59   27   55 1  
    60   28   56 1  
    61   28   57 1  
    62   29   58 1  
    63   31   59 1  
@<TRIPOS>SUBSTRUCTURE
     1 4VF         1

