### 
### Created by X-TOOL on Mon Sep 10 21:13:23 2018
### 

@<TRIPOS>MOLECULE
5bve_ligand
   62    66     1     0     0
SMALL
GAST_HUCK


@<TRIPOS>ATOM
      1 C1         12.2470   -2.9980   15.1010 C.2       1 4VG         0.1329
      2 C3         10.8350   -3.3750   14.9630 C.2       1 4VG         0.2232
      3 C12        18.0070   -1.5960   14.5930 C.ar      1 4VG         0.1810
      4 C15        12.1740   -3.2210   17.5300 C.3       1 4VG         0.0596
      5 C16        11.8100   -4.7170   17.6820 C.3       1 4VG        -0.0038
      6 C17        11.3940   -5.3200   16.3080 C.3       1 4VG         0.0382
      7 C19         8.9600   -4.7890   15.5530 C.3       1 4VG         0.1005
      8 C20         8.6540   -5.8520   14.4930 C.ar      1 4VG        -0.0153
      9 C21         7.3280   -6.2630   14.3150 C.ar      1 4VG        -0.0442
     10 C22         7.0290   -7.2290   13.3600 C.ar      1 4VG         0.0338
     11 C23         8.0270   -7.7990   12.5750 C.ar      1 4VG        -0.0548
     12 C24         9.3500   -7.3850   12.7340 C.ar      1 4VG        -0.0680
     13 C25         9.6580   -6.4130   13.6860 C.ar      1 4VG        -0.0579
     14 C26         8.3200   -5.2610   16.8900 C.3       1 4VG         0.0769
     15 C28        19.1800   -2.9840   16.2450 C.3       1 4VG         0.0459
     16 C29        20.6420   -3.4800   16.4360 C.3       1 4VG        -0.0060
     17 C30        20.6900   -4.4880   17.6060 C.3       1 4VG         0.0498
     18 N2         12.8550   -2.9680   16.2520 N.pl3     1 4VG        -0.2541
     19 C8         15.6650   -1.7900   14.3590 C.ar      1 4VG         0.0320
     20 C6         14.1200   -2.6390   16.1460 C.2       1 4VG         0.0495
     21 C5         14.3670   -2.3690   14.8570 C.2       1 4VG        -0.0006
     22 N13        16.8200   -2.1150   14.9890 N.ar      1 4VG        -0.2630
     23 N14        19.1390   -1.9370   15.2390 N.pl3     1 4VG        -0.2875
     24 C4         13.1000   -2.6060   14.1360 C.2       1 4VG        -0.0444
     25 C32        18.7950   -3.4770   18.6880 C.3       1 4VG         0.0498
     26 C10        16.9460   -0.3670   12.9060 C.ar      1 4VG         0.0055
     27 O7         10.1480   -2.6790   14.2330 O.2       1 4VG        -0.3907
     28 O31        20.1710   -3.8940   18.8140 O.3       1 4VG        -0.3796
     29 C9         15.7050   -0.8880   13.2910 C.ar      1 4VG        -0.0269
     30 N18        10.3980   -4.4990   15.5870 N.am      1 4VG        -0.2566
     31 CL1         5.3630   -7.6800   13.1290 Cl        1 4VG        -0.0725
     32 C33        18.7220   -2.3850   17.6030 C.3       1 4VG        -0.0060
     33 N11        18.0720   -0.7280   13.5620 N.ar      1 4VG        -0.2639
     34 O27         8.4350   -4.2170   17.8560 O.3       1 4VG        -0.3906
     35 H1         12.8392   -2.9277   18.3555 H         1 4VG         0.0629
     36 H2         11.2527   -2.6214   17.5707 H         1 4VG         0.0629
     37 H3         10.9730   -4.8158   18.3888 H         1 4VG         0.0313
     38 H4         12.6825   -5.2643   18.0681 H         1 4VG         0.0313
     39 H5         10.9649   -6.3181   16.4802 H         1 4VG         0.0524
     40 H6         12.2925   -5.4104   15.6799 H         1 4VG         0.0524
     41 H7          8.4567   -3.8548   15.2633 H         1 4VG         0.0743
     42 H8          6.5380   -5.8306   14.9184 H         1 4VG         0.0562
     43 H9          7.7780   -8.5601   11.8444 H         1 4VG         0.0565
     44 H10        10.1336   -7.8161   12.1215 H         1 4VG         0.0599
     45 H11        10.6848   -6.0864   13.8046 H         1 4VG         0.0559
     46 H12         8.8435   -6.1579   17.2527 H         1 4VG         0.0603
     47 H13         7.2580   -5.4969   16.7271 H         1 4VG         0.0603
     48 H14        18.5274   -3.8185   15.9487 H         1 4VG         0.0561
     49 H15        21.2942   -2.6235   16.6619 H         1 4VG         0.0310
     50 H16        20.9871   -3.9706   15.5139 H         1 4VG         0.0310
     51 H17        21.7325   -4.7960   17.7744 H         1 4VG         0.0560
     52 H18        20.0843   -5.3693   17.3482 H         1 4VG         0.0560
     53 H19        14.8413   -2.5934   16.9606 H         1 4VG         0.1018
     54 H20        20.0093   -1.4357   15.0106 H         1 4VG         0.1864
     55 H21        12.9019   -2.4905   13.0714 H         1 4VG         0.0408
     56 H22        18.4385   -3.0736   19.6472 H         1 4VG         0.0560
     57 H23        18.1709   -4.3345   18.3962 H         1 4VG         0.0560
     58 H24        17.0046    0.3296   12.0775 H         1 4VG         0.0867
     59 H25        14.7971   -0.5993   12.7739 H         1 4VG         0.0616
     60 H26        17.6873   -2.0222   17.5150 H         1 4VG         0.0310
     61 H27        19.3817   -1.5487   17.8776 H         1 4VG         0.0310
     62 H28         7.9830   -3.4434   17.5400 H         1 4VG         0.2097
@<TRIPOS>BOND
     1    1    2 1  
     2   18    1 1  
     3    1   24 2  
     4    2   27 2  
     5    2   30 am 
     6   22    3 ar 
     7    3   23 1  
     8    3   33 ar 
     9    4    5 1  
    10   18    4 1  
    11    5    6 1  
    12    6   30 1  
    13    7    8 1  
    14    7   14 1  
    15   30    7 1  
    16    8    9 ar 
    17    8   13 ar 
    18    9   10 ar 
    19   10   11 ar 
    20   10   31 1  
    21   12   11 ar 
    22   13   12 ar 
    23   14   34 1  
    24   15   16 1  
    25   23   15 1  
    26   15   32 1  
    27   16   17 1  
    28   17   28 1  
    29   20   18 1  
    30   21   19 1  
    31   19   22 ar 
    32   19   29 ar 
    33   20   21 2  
    34   21   24 1  
    35   28   25 1  
    36   25   32 1  
    37   29   26 ar 
    38   26   33 ar 
    39    4   35 1  
    40    4   36 1  
    41    5   37 1  
    42    5   38 1  
    43    6   39 1  
    44    6   40 1  
    45    7   41 1  
    46    9   42 1  
    47   11   43 1  
    48   12   44 1  
    49   13   45 1  
    50   14   46 1  
    51   14   47 1  
    52   15   48 1  
    53   16   49 1  
    54   16   50 1  
    55   17   51 1  
    56   17   52 1  
    57   20   53 1  
    58   23   54 1  
    59   24   55 1  
    60   25   56 1  
    61   25   57 1  
    62   26   58 1  
    63   29   59 1  
    64   32   60 1  
    65   32   61 1  
    66   34   62 1  
@<TRIPOS>SUBSTRUCTURE
     1 4VG         1

