### 
### Created by X-TOOL on Mon Sep 10 21:13:23 2018
### 

@<TRIPOS>MOLECULE
5bvf_ligand
   62    66     1     0     0
SMALL
GAST_HUCK


@<TRIPOS>ATOM
      1 O2         10.1370   -2.8920   14.3200 O.2       1 4VJ        -0.3907
      2 C11        14.3220   -2.5170   14.9300 C.2       1 4VJ        -0.0006
      3 C12        14.1030   -2.7350   16.2350 C.2       1 4VJ         0.0495
      4 C13        15.6190   -1.9480   14.4220 C.ar      1 4VJ         0.0320
      5 C14        15.6860   -1.1210   13.3010 C.ar      1 4VJ        -0.0269
      6 C15        16.9340   -0.6160   12.9550 C.ar      1 4VJ         0.0055
      7 C16        17.9430   -1.7740   14.7260 C.ar      1 4VJ         0.1810
      8 C17        12.2540   -3.3200   17.6980 C.3       1 4VJ         0.0596
      9 C18        11.8290   -4.7910   17.9000 C.3       1 4VJ        -0.0038
     10 C19        11.3840   -5.4230   16.5600 C.3       1 4VJ         0.0382
     11 C20         8.9640   -4.9660   15.8130 C.3       1 4VJ         0.1005
     12 C21         8.6740   -6.0340   14.7500 C.ar      1 4VJ        -0.0153
     13 C22         7.3560   -6.4360   14.5560 C.ar      1 4VJ        -0.0442
     14 C23         7.0700   -7.4010   13.5950 C.ar      1 4VJ         0.0338
     15 C24         8.0720   -7.9870   12.8150 C.ar      1 4VJ        -0.0548
     16 C25         9.4010   -7.5960   13.0130 C.ar      1 4VJ        -0.0680
     17 C26         9.6930   -6.6280   13.9850 C.ar      1 4VJ        -0.0579
     18 C27         8.3950   -5.4920   17.1620 C.3       1 4VJ         0.0769
     19 C28        19.0200   -3.2020   16.4100 C.3       1 4VJ         0.0442
     20 C29        18.8230   -2.6690   17.8510 C.3       1 4VJ        -0.0035
     21 C30        19.2180   -3.9110   18.6900 C.3       1 4VJ         0.0575
     22 CL1         5.4080   -7.8690   13.3870 Cl        1 4VJ        -0.0725
     23 N3         18.0220   -0.9510   13.6790 N.ar      1 4VJ        -0.2639
     24 N5         10.3930   -4.6400   15.7990 N.am      1 4VJ        -0.2566
     25 C31        20.4820   -4.4560   17.9510 C.3       1 4VJ        -0.0247
     26 C8         12.2300   -3.1330   15.2200 C.2       1 4VJ         0.1329
     27 O34        19.5020   -3.5230   20.0520 O.3       1 4VJ        -0.3917
     28 C32        20.4190   -3.8660   16.5200 C.3       1 4VJ        -0.0272
     29 C10        13.0700   -2.7870   14.2250 C.2       1 4VJ        -0.0444
     30 C9         10.8240   -3.5440   15.0950 C.2       1 4VJ         0.2232
     31 N1         12.8550   -3.0660   16.3750 N.pl3     1 4VJ        -0.2541
     32 N7         19.0500   -2.1140   15.4230 N.pl3     1 4VJ        -0.2876
     33 O6          8.7590   -4.5800   18.2080 O.3       1 4VJ        -0.3906
     34 N4         16.7450   -2.2640   15.0950 N.ar      1 4VJ        -0.2630
     35 H1         14.8388   -2.6498   17.0333 H         1 4VJ         0.1018
     36 H2         14.8007   -0.8817   12.7230 H         1 4VJ         0.0616
     37 H3         17.0331    0.0471   12.1032 H         1 4VJ         0.0867
     38 H4         12.9903   -3.0591   18.4725 H         1 4VJ         0.0629
     39 H5         11.3653   -2.6810   17.8069 H         1 4VJ         0.0629
     40 H6         10.9920   -4.8300   18.6127 H         1 4VJ         0.0313
     41 H7         12.6799   -5.3603   18.3022 H         1 4VJ         0.0313
     42 H8         10.9462   -6.4086   16.7766 H         1 4VJ         0.0524
     43 H9         12.2764   -5.5487   15.9292 H         1 4VJ         0.0524
     44 H10         8.4174   -4.0467   15.5560 H         1 4VJ         0.0743
     45 H11         6.5590   -6.0012   15.1483 H         1 4VJ         0.0562
     46 H12         7.8230   -8.7326   12.0686 H         1 4VJ         0.0565
     47 H13        10.1958   -8.0363   12.4218 H         1 4VJ         0.0599
     48 H14        10.7229   -6.3325   14.1493 H         1 4VJ         0.0559
     49 H15         8.8140   -6.4861   17.3768 H         1 4VJ         0.0603
     50 H16         7.2991   -5.5619   17.0982 H         1 4VJ         0.0603
     51 H17        18.2409   -3.9296   16.1385 H         1 4VJ         0.0561
     52 H18        17.7785   -2.3758   18.0328 H         1 4VJ         0.0313
     53 H19        19.4850   -1.8154   18.0588 H         1 4VJ         0.0313
     54 H20        18.4142   -4.6619   18.6871 H         1 4VJ         0.0594
     55 H21        20.4602   -5.5551   17.9138 H         1 4VJ         0.0291
     56 H22        21.3978   -4.1245   18.4623 H         1 4VJ         0.0291
     57 H23        18.7075   -3.1993   20.4601 H         1 4VJ         0.2098
     58 H24        21.2126   -3.1179   16.3768 H         1 4VJ         0.0289
     59 H25        20.5269   -4.6632   15.7698 H         1 4VJ         0.0289
     60 H26        12.8662   -2.7239   13.1571 H         1 4VJ         0.0408
     61 H27        19.9288   -1.6022   15.2596 H         1 4VJ         0.1864
     62 H28         8.3969   -3.7223   18.0190 H         1 4VJ         0.2097
@<TRIPOS>BOND
     1   30    1 2  
     2    3    2 2  
     3    2    4 1  
     4    2   29 1  
     5   31    3 1  
     6    4    5 ar 
     7    4   34 ar 
     8    5    6 ar 
     9    6   23 ar 
    10    7   23 ar 
    11    7   32 1  
    12   34    7 ar 
    13    9    8 1  
    14    8   31 1  
    15   10    9 1  
    16   24   10 1  
    17   11   12 1  
    18   11   18 1  
    19   24   11 1  
    20   12   13 ar 
    21   12   17 ar 
    22   13   14 ar 
    23   14   15 ar 
    24   14   22 1  
    25   16   15 ar 
    26   17   16 ar 
    27   18   33 1  
    28   19   20 1  
    29   19   28 1  
    30   32   19 1  
    31   20   21 1  
    32   21   25 1  
    33   21   27 1  
    34   24   30 am 
    35   25   28 1  
    36   29   26 2  
    37   26   30 1  
    38   26   31 1  
    39    3   35 1  
    40    5   36 1  
    41    6   37 1  
    42    8   38 1  
    43    8   39 1  
    44    9   40 1  
    45    9   41 1  
    46   10   42 1  
    47   10   43 1  
    48   11   44 1  
    49   13   45 1  
    50   15   46 1  
    51   16   47 1  
    52   17   48 1  
    53   18   49 1  
    54   18   50 1  
    55   19   51 1  
    56   20   52 1  
    57   20   53 1  
    58   21   54 1  
    59   25   55 1  
    60   25   56 1  
    61   27   57 1  
    62   28   58 1  
    63   28   59 1  
    64   29   60 1  
    65   32   61 1  
    66   33   62 1  
@<TRIPOS>SUBSTRUCTURE
     1 4VJ         1

