### 
### Created by X-TOOL on Mon Sep 10 21:13:23 2018
### 

@<TRIPOS>MOLECULE
5bvk_ligand
   30    31     1     0     0
SMALL
GAST_HUCK


@<TRIPOS>ATOM
      1 C2         27.6130   29.5840   35.7710 C.ar      1 4VC         0.0591
      2 C3         27.9630   28.6120   34.8510 C.ar      1 4VC        -0.0617
      3 C5         26.4570   29.5800   33.2630 C.ar      1 4VC        -0.0755
      4 C6         26.1050   30.5540   34.1820 C.ar      1 4VC        -0.0409
      5 C7         26.6800   30.5680   35.4490 C.ar      1 4VC         0.0807
      6 C12        23.9730   33.6330   38.2620 C.3       1 4VC         0.0715
      7 C13        24.0410   35.1370   38.1540 C.ar      1 4VC         0.0068
      8 C14        25.2470   35.7940   37.9640 C.ar      1 4VC        -0.0385
      9 C15        25.2520   37.1660   37.8720 C.ar      1 4VC        -0.0404
     10 C16        24.0680   37.8560   37.9690 C.ar      1 4VC         0.0042
     11 CL1        28.3630   29.5520   37.3360 Cl        1 4VC        -0.0832
     12 C4         27.3820   28.6130   33.5970 C.ar      1 4VC        -0.0767
     13 N8         26.3660   31.5350   36.4360 N.am      1 4VC        -0.2185
     14 C9         25.1910   32.2260   36.6350 C.2       1 4VC         0.2896
     15 O10        24.2440   32.1790   35.8480 O.2       1 4VC        -0.3901
     16 N11        25.1670   32.9610   37.7690 N.am      1 4VC        -0.2552
     17 N17        22.8950   37.2420   38.1520 N.ar      1 4VC        -0.3043
     18 C18        22.8910   35.9060   38.2410 C.ar      1 4VC         0.0144
     19 H1         28.6905   27.8522   35.1128 H         1 4VC         0.0582
     20 H2         26.0042   29.5775   32.2781 H         1 4VC         0.0579
     21 H3         25.3768   31.3105   33.9127 H         1 4VC         0.0501
     22 H4         23.1093   33.2807   37.6789 H         1 4VC         0.0697
     23 H5         23.8348   33.3657   39.3200 H         1 4VC         0.0697
     24 H6         26.1723   35.2344   37.8891 H         1 4VC         0.0679
     25 H7         26.1839   37.6995   37.7239 H         1 4VC         0.0693
     26 H8         24.0858   38.9373   37.8944 H         1 4VC         0.0767
     27 H9         27.6539   27.8521   32.8744 H         1 4VC         0.0487
     28 H10        27.1019   31.7458   37.0795 H         1 4VC         0.2260
     29 H11        26.0123   33.0477   38.2963 H         1 4VC         0.1881
     30 H12        21.9429   35.4015   38.3882 H         1 4VC         0.0766
@<TRIPOS>BOND
     1    1    2 ar 
     2    5    1 ar 
     3    1   11 1  
     4    2   12 ar 
     5    4    3 ar 
     6    3   12 ar 
     7    5    4 ar 
     8   13    5 1  
     9    6    7 1  
    10   16    6 1  
    11    7    8 ar 
    12    7   18 ar 
    13    8    9 ar 
    14    9   10 ar 
    15   10   17 ar 
    16   14   13 am 
    17   14   15 2  
    18   14   16 am 
    19   17   18 ar 
    20    2   19 1  
    21    3   20 1  
    22    4   21 1  
    23    6   22 1  
    24    6   23 1  
    25    8   24 1  
    26    9   25 1  
    27   10   26 1  
    28   12   27 1  
    29   13   28 1  
    30   16   29 1  
    31   18   30 1  
@<TRIPOS>SUBSTRUCTURE
     1 4VC         1

