### 
### Created by X-TOOL on Mon Sep 10 21:13:25 2018
### 

@<TRIPOS>MOLECULE
5bvn_ligand
   51    54     1     0     0
SMALL
GAST_HUCK


@<TRIPOS>ATOM
      1 C1         22.7220   41.1920   38.2990 C.3       1 4VD        -0.0382
      2 C2         22.7040   39.6890   38.1850 C.ar      1 4VD        -0.0309
      3 C3         23.7930   38.9590   38.6570 C.ar      1 4VD        -0.0800
      4 C5         22.7490   36.8870   38.0210 C.ar      1 4VD        -0.0417
      5 C6         22.7560   35.3790   37.9410 C.3       1 4VD         0.0591
      6 C8         23.9640   34.0830   36.2390 C.2       1 4VD         0.2889
      7 O9         22.9870   34.0100   35.5020 O.2       1 4VD        -0.3903
      8 C11        25.3430   32.4250   35.0020 C.ar      1 4VD         0.0645
      9 C12        26.2940   31.4380   35.2320 C.ar      1 4VD        -0.0456
     10 C13        26.5180   30.4540   34.2830 C.ar      1 4VD        -0.0774
     11 C14        25.7800   30.4400   33.1140 C.ar      1 4VD        -0.0438
     12 C15        24.8370   31.4050   32.9190 C.ar      1 4VD         0.1189
     13 C19        21.6290   39.0000   37.6200 C.ar      1 4VD         0.0610
     14 C21        19.2180   39.4830   37.5420 C.2       1 4VD         0.2415
     15 C23        18.1430   40.1330   36.7640 C.2       1 4VD         0.1662
     16 C24        18.1970   40.7960   35.5650 C.2       1 4VD        -0.0068
     17 C26        16.1060   40.7960   36.1290 C.2       1 4VD         0.1412
     18 C27        14.7130   40.9450   36.2770 C.2       1 4VD        -0.0134
     19 C28        14.0620   40.3810   37.3640 C.2       1 4VD        -0.0574
     20 C4         23.8100   37.5770   38.5830 C.ar      1 4VD        -0.0804
     21 N7         23.9700   34.8360   37.3570 N.am      1 4VD        -0.2578
     22 N10        25.1370   33.4130   35.9880 N.am      1 4VD        -0.2203
     23 F16        24.1150   31.3910   31.7640 F         1 4VD        -0.1876
     24 C17        24.6030   32.3980   33.8240 C.ar      1 4VD        -0.0087
     25 C18        21.6650   37.6130   37.5450 C.ar      1 4VD        -0.0446
     26 N20        20.5000   39.7000   37.1390 N.am      1 4VD        -0.2399
     27 O22        18.9560   38.7740   38.5140 O.2       1 4VD        -0.3865
     28 N25        16.9470   41.2140   35.1790 N.2       1 4VD        -0.3326
     29 C29        14.7820   39.7110   38.3360 C.2       1 4VD        -0.0222
     30 C30        16.1310   39.5860   38.2200 C.2       1 4VD         0.0853
     31 N31        16.7960   40.1220   37.1370 N.pl3     1 4VD        -0.1908
     32 H1         23.6615   41.5125   38.7730 H         1 4VD         0.0349
     33 H2         21.8706   41.5235   38.9115 H         1 4VD         0.0349
     34 H3         22.6472   41.6368   37.2957 H         1 4VD         0.0349
     35 H4         24.6393   39.4811   39.0885 H         1 4VD         0.0497
     36 H5         21.9010   35.0588   37.3275 H         1 4VD         0.0666
     37 H6         22.6486   34.9757   38.9587 H         1 4VD         0.0666
     38 H7         26.8615   31.4381   36.1556 H         1 4VD         0.0468
     39 H8         27.2720   29.6949   34.4570 H         1 4VD         0.0567
     40 H9         25.9483   29.6746   32.3651 H         1 4VD         0.0475
     41 H10        19.1089   40.9681   34.9951 H         1 4VD         0.0600
     42 H11        14.1454   41.5050   35.5353 H         1 4VD         0.0593
     43 H12        12.9799   40.4661   37.4523 H         1 4VD         0.0661
     44 H13        24.6623   37.0294   38.9688 H         1 4VD         0.0413
     45 H14        24.8447   35.0284   37.8019 H         1 4VD         0.1878
     46 H15        25.9222   33.6489   36.5606 H         1 4VD         0.2254
     47 H16        23.8519   33.1548   33.6286 H         1 4VD         0.0484
     48 H17        20.8270   37.0850   37.1045 H         1 4VD         0.0419
     49 H18        20.6543   40.4085   36.4504 H         1 4VD         0.2220
     50 H19        14.2680   39.2830   39.1954 H         1 4VD         0.0566
     51 H20        16.6918   39.0576   38.9896 H         1 4VD         0.1228
@<TRIPOS>BOND
     1    2    1 1  
     2    2    3 ar 
     3   13    2 ar 
     4    3   20 ar 
     5    4    5 1  
     6    4   20 ar 
     7   25    4 ar 
     8    5   21 1  
     9    6    7 2  
    10   21    6 am 
    11    6   22 am 
    12    8    9 ar 
    13   22    8 1  
    14    8   24 ar 
    15    9   10 ar 
    16   10   11 ar 
    17   12   11 ar 
    18   12   23 1  
    19   24   12 ar 
    20   13   25 ar 
    21   26   13 1  
    22   15   14 1  
    23   14   26 am 
    24   14   27 2  
    25   16   15 2  
    26   15   31 1  
    27   28   16 1  
    28   17   18 1  
    29   17   28 2  
    30   17   31 1  
    31   18   19 2  
    32   19   29 1  
    33   29   30 2  
    34   30   31 1  
    35    1   32 1  
    36    1   33 1  
    37    1   34 1  
    38    3   35 1  
    39    5   36 1  
    40    5   37 1  
    41    9   38 1  
    42   10   39 1  
    43   11   40 1  
    44   16   41 1  
    45   18   42 1  
    46   19   43 1  
    47   20   44 1  
    48   21   45 1  
    49   22   46 1  
    50   24   47 1  
    51   25   48 1  
    52   26   49 1  
    53   29   50 1  
    54   30   51 1  
@<TRIPOS>SUBSTRUCTURE
     1 4VD         1

