### 
### Created by X-TOOL on Mon Sep 10 21:13:24 2018
### 

@<TRIPOS>MOLECULE
5bvo_ligand
   52    56     1     0     0
SMALL
GAST_HUCK


@<TRIPOS>ATOM
      1 C1         22.2630   34.8620   38.3990 C.3       1 4VE        -0.0323
      2 C2         23.2590   35.6010   37.5150 C.3       1 4VE         0.0708
      3 N4         24.5610   34.9500   37.6610 N.pl3     1 4VE        -0.2512
      4 C5         25.0150   34.0140   36.7810 C.2       1 4VE         0.2774
      5 C7         25.3110   32.6640   35.1330 C.ar      1 4VE         0.0247
      6 C8         25.2840   31.8740   33.9580 C.ar      1 4VE        -0.0334
      7 C11        27.3580   30.8480   34.6540 C.ar      1 4VE        -0.0423
      8 C12        27.3800   31.6260   35.8060 C.ar      1 4VE        -0.0339
      9 C13        26.3420   32.5210   36.0120 C.ar      1 4VE         0.1349
     10 C15        23.2550   37.0900   37.8110 C.ar      1 4VE        -0.0380
     11 C16        24.3150   37.7510   38.4170 C.ar      1 4VE        -0.0800
     12 C19        23.0860   41.3300   38.5820 C.3       1 4VE        -0.0382
     13 C22        19.6240   39.5040   37.6650 C.2       1 4VE         0.2415
     14 C24        18.4970   40.2030   37.0150 C.2       1 4VE         0.1662
     15 C25        18.4760   40.9740   35.8860 C.2       1 4VE        -0.0068
     16 C27        16.4320   40.9500   36.6090 C.2       1 4VE         0.1412
     17 C28        15.0540   41.0890   36.8670 C.2       1 4VE        -0.0134
     18 C31        16.6000   39.5720   38.5820 C.2       1 4VE         0.0853
     19 N32        17.1840   40.1800   37.4900 N.pl3     1 4VE        -0.1908
     20 N6         24.4660   33.6270   35.6400 N.2       1 4VE        -0.2985
     21 C9         26.3180   30.9900   33.7640 C.ar      1 4VE         0.1143
     22 F10        26.3120   30.2200   32.6410 F         1 4VE        -0.1934
     23 O14        26.1860   33.3630   37.0680 O.3       1 4VE        -0.1998
     24 C17        24.2490   39.1140   38.6590 C.ar      1 4VE        -0.0800
     25 C18        23.1200   39.8510   38.3020 C.ar      1 4VE        -0.0309
     26 C20        22.0530   39.1880   37.6920 C.ar      1 4VE         0.0610
     27 N21        20.8810   39.8770   37.3060 N.am      1 4VE        -0.2399
     28 O23        19.4260   38.6200   38.4980 O.2       1 4VE        -0.3865
     29 N26        17.2030   41.4350   35.6350 N.2       1 4VE        -0.3326
     30 C29        14.4840   40.4700   37.9700 C.2       1 4VE        -0.0574
     31 C30        15.2620   39.7150   38.8210 C.2       1 4VE        -0.0222
     32 C33        22.1360   37.8260   37.4570 C.ar      1 4VE        -0.0442
     33 H1         21.2727   35.3322   38.3080 H         1 4VE         0.0273
     34 H2         22.5965   34.9093   39.4461 H         1 4VE         0.0273
     35 H3         22.2003   33.8108   38.0813 H         1 4VE         0.0273
     36 H4         22.9447   35.4822   36.4676 H         1 4VE         0.0710
     37 H5         25.1574   35.2092   38.4597 H         1 4VE         0.1950
     38 H6         24.4780   31.9633   33.2387 H         1 4VE         0.0503
     39 H7         28.1522   30.1366   34.4588 H         1 4VE         0.0513
     40 H8         28.1872   31.5351   36.5237 H         1 4VE         0.0544
     41 H9         25.2014   37.1965   38.7032 H         1 4VE         0.0413
     42 H10        24.0271   41.6336   39.0639 H         1 4VE         0.0349
     43 H11        22.2421   41.5575   39.2498 H         1 4VE         0.0349
     44 H12        22.9641   41.8794   37.6369 H         1 4VE         0.0349
     45 H13        19.3467   41.1934   35.2698 H         1 4VE         0.0600
     46 H14        14.4341   41.6844   36.1983 H         1 4VE         0.0593
     47 H15        17.2093   38.9741   39.2581 H         1 4VE         0.1228
     48 H16        25.0863   39.6141   39.1322 H         1 4VE         0.0497
     49 H17        20.9828   40.6900   36.7327 H         1 4VE         0.2220
     50 H18        13.4182   40.5810   38.1641 H         1 4VE         0.0661
     51 H19        14.8097   39.2314   39.6856 H         1 4VE         0.0566
     52 H20        21.3020   37.3215   36.9827 H         1 4VE         0.0419
@<TRIPOS>BOND
     1    2    1 1  
     2    2    3 1  
     3   10    2 1  
     4    3    4 1  
     5    4   20 2  
     6    4   23 1  
     7    5    6 ar 
     8    9    5 ar 
     9   20    5 1  
    10    6   21 ar 
    11    8    7 ar 
    12    7   21 ar 
    13    9    8 ar 
    14   23    9 1  
    15   11   10 ar 
    16   10   32 ar 
    17   24   11 ar 
    18   25   12 1  
    19   13   14 1  
    20   27   13 am 
    21   13   28 2  
    22   14   15 2  
    23   14   19 1  
    24   15   29 1  
    25   16   17 1  
    26   19   16 1  
    27   16   29 2  
    28   17   30 2  
    29   19   18 1  
    30   18   31 2  
    31   21   22 1  
    32   25   24 ar 
    33   26   25 ar 
    34   26   27 1  
    35   26   32 ar 
    36   30   31 1  
    37    1   33 1  
    38    1   34 1  
    39    1   35 1  
    40    2   36 1  
    41    3   37 1  
    42    6   38 1  
    43    7   39 1  
    44    8   40 1  
    45   11   41 1  
    46   12   42 1  
    47   12   43 1  
    48   12   44 1  
    49   15   45 1  
    50   17   46 1  
    51   18   47 1  
    52   24   48 1  
    53   27   49 1  
    54   30   50 1  
    55   31   51 1  
    56   32   52 1  
@<TRIPOS>SUBSTRUCTURE
     1 4VE         1

