### 
### Created by X-TOOL on Mon Sep 10 21:13:23 2018
### 

@<TRIPOS>MOLECULE
5bvw_ligand
   60    63     1     0     0
SMALL
GAST_HUCK


@<TRIPOS>ATOM
      1 C1         19.1960   38.8680   35.3320 C.2       1 1N1        -0.0104
      2 C2         19.3360   38.1130   36.4430 C.2       1 1N1         0.1128
      3 C3         20.5260   37.4820   37.0470 C.2       1 1N1         0.2261
      4 N6          8.4830   39.1300   37.3220 N.4       1 1N1         0.2397
      5 C7         25.4530   36.2640   37.6950 C.ar      1 1N1        -0.0834
      6 C8         25.1540   37.5860   37.9910 C.ar      1 1N1        -0.0735
      7 C9         23.9160   38.1300   37.6460 C.ar      1 1N1        -0.0235
      8 C10        23.6040   39.5660   37.9890 C.3       1 1N1        -0.0351
      9 C11        14.7800   38.7120   36.8710 C.ar      1 1N1         0.1348
     10 C12        13.4910   39.2640   36.8400 C.ar      1 1N1         0.0208
     11 C13        12.5890   38.7810   37.8020 C.ar      1 1N1         0.1091
     12 C14        14.1820   37.3610   38.6400 C.ar      1 1N1         0.0703
     13 C15        14.5810   36.3130   39.6250 C.3       1 1N1        -0.0028
     14 C16        10.3670   38.4460   38.7100 C.3       1 1N1         0.0716
     15 C19        10.7180   39.8080   36.6260 C.3       1 1N1         0.0716
     16 C20         7.0400   39.3770   37.2460 C.3       1 1N1        -0.0080
     17 C21         6.2190   38.1420   37.5430 C.3       1 1N1         0.0841
     18 N          15.7610   39.1000   35.9670 N.pl3     1 1N1        -0.2165
     19 C          17.0920   38.8290   35.9860 C.2       1 1N1         0.2125
     20 N1         17.9100   39.2780   35.0760 N.2       1 1N1        -0.2981
     21 S          17.8310   37.8690   37.2230 S.3       1 1N1         0.0354
     22 N2         21.7330   37.8620   36.5650 N.am      1 1N1        -0.2384
     23 C4         23.0010   37.3290   36.9590 C.ar      1 1N1         0.0817
     24 C5         23.3100   36.0020   36.6830 C.ar      1 1N1         0.0531
     25 C6         24.5330   35.4680   37.0400 C.ar      1 1N1        -0.0685
     26 CL         22.1700   35.0020   35.8430 Cl        1 1N1        -0.0853
     27 O          20.4150   36.6530   37.9450 O.2       1 1N1        -0.3859
     28 N3         12.9310   37.8250   38.6880 N.ar      1 1N1        -0.2701
     29 N4         15.1030   37.7640   37.7700 N.ar      1 1N1        -0.2662
     30 N5         11.2710   39.2600   37.8770 N.pl3     1 1N1        -0.2818
     31 C17         8.9330   38.9440   38.6990 C.3       1 1N1        -0.0108
     32 C18         9.2620   40.2230   36.7460 C.3       1 1N1        -0.0108
     33 O1          4.8500   38.4880   37.6920 O.3       1 1N1        -0.3898
     34 H1         20.0356   39.1309   34.6902 H         1 1N1         0.0652
     35 H2          8.6781   38.2883   36.8029 H         1 1N1         0.2036
     36 H3         26.4148   35.8528   37.9795 H         1 1N1         0.0471
     37 H4         25.8893   38.2025   38.4953 H         1 1N1         0.0515
     38 H5         24.4561   40.0081   38.5261 H         1 1N1         0.0362
     39 H6         22.7087   39.6045   38.6268 H         1 1N1         0.0362
     40 H7         23.4199   40.1323   37.0641 H         1 1N1         0.0362
     41 H8         13.2076   40.0192   36.1159 H         1 1N1         0.0519
     42 H9         13.7267   36.0784   40.2770 H         1 1N1         0.0460
     43 H10        15.4175   36.6833   40.2358 H         1 1N1         0.0460
     44 H11        14.8928   35.4049   39.0882 H         1 1N1         0.0460
     45 H12        10.7354   38.4642   39.7463 H         1 1N1         0.0577
     46 H13        10.3810   37.4124   38.3339 H         1 1N1         0.0577
     47 H14        10.7991   39.0405   35.8423 H         1 1N1         0.0577
     48 H15        11.3100   40.6894   36.3387 H         1 1N1         0.0577
     49 H16         6.7958   39.7261   36.2319 H         1 1N1         0.0837
     50 H17         6.7778   40.1574   37.9755 H         1 1N1         0.0837
     51 H18         6.5805   37.6804   38.4737 H         1 1N1         0.0610
     52 H19         6.3250   37.4270   36.7138 H         1 1N1         0.0610
     53 H20        15.4346   39.6710   35.1743 H         1 1N1         0.2300
     54 H21        21.7387   38.5810   35.8700 H         1 1N1         0.2226
     55 H22        24.7684   34.4354   36.8087 H         1 1N1         0.0526
     56 H23         8.2868   38.2066   39.1977 H         1 1N1         0.0835
     57 H24         8.8757   39.9032   39.2344 H         1 1N1         0.0835
     58 H25         9.1866   41.1074   37.3957 H         1 1N1         0.0835
     59 H26         8.8680   40.4663   35.7482 H         1 1N1         0.0835
     60 H27         4.3451   37.7051   37.8780 H         1 1N1         0.2096
@<TRIPOS>BOND
     1    2    1 2  
     2    1   20 1  
     3    3    2 1  
     4    2   21 1  
     5   22    3 am 
     6    3   27 2  
     7    4   16 1  
     8   31    4 1  
     9   32    4 1  
    10    6    5 ar 
    11    5   25 ar 
    12    7    6 ar 
    13    7    8 1  
    14   23    7 ar 
    15    9   10 ar 
    16   18    9 1  
    17    9   29 ar 
    18   10   11 ar 
    19   11   28 ar 
    20   11   30 1  
    21   12   13 1  
    22   12   28 ar 
    23   29   12 ar 
    24   30   14 1  
    25   14   31 1  
    26   30   15 1  
    27   15   32 1  
    28   16   17 1  
    29   17   33 1  
    30   19   18 1  
    31   19   20 2  
    32   21   19 1  
    33   22   23 1  
    34   23   24 ar 
    35   24   25 ar 
    36   24   26 1  
    37    1   34 1  
    38    4   35 1  
    39    5   36 1  
    40    6   37 1  
    41    8   38 1  
    42    8   39 1  
    43    8   40 1  
    44   10   41 1  
    45   13   42 1  
    46   13   43 1  
    47   13   44 1  
    48   14   45 1  
    49   14   46 1  
    50   15   47 1  
    51   15   48 1  
    52   16   49 1  
    53   16   50 1  
    54   17   51 1  
    55   17   52 1  
    56   18   53 1  
    57   22   54 1  
    58   25   55 1  
    59   31   56 1  
    60   31   57 1  
    61   32   58 1  
    62   32   59 1  
    63   33   60 1  
@<TRIPOS>SUBSTRUCTURE
     1 1N1         1

