### 
### Created by X-TOOL on Mon Sep 10 21:13:28 2018
### 

@<TRIPOS>MOLECULE
5bw4_ligand
   50    52     1     0     0
SMALL
GAST_HUCK


@<TRIPOS>ATOM
      1 N          -5.1560  -25.0600    2.1480 N.4       1 SAM         0.2328
      2 CA         -5.2780  -26.2370    1.2410 C.3       1 SAM         0.0327
      3 C          -6.1220  -27.3600    1.8400 C.2       1 SAM         0.0846
      4 O          -7.3690  -27.2590    1.8010 O.co2     1 SAM        -0.5643
      5 OXT        -5.5690  -28.3620    2.3650 O.co2     1 SAM        -0.5643
      6 CB         -3.8990  -26.7940    0.8250 C.3       1 SAM         0.0473
      7 CG         -2.8130  -26.6250    1.8940 C.3       1 SAM         0.1163
      8 SD         -1.2640  -26.7110    1.2280 S.3       1 SAM        -0.0103
      9 CE         -1.0500  -28.3630    1.2390 C.3       1 SAM         0.0995
     10 C5'        -0.1720  -25.7290    2.0740 C.3       1 SAM         0.1381
     11 C4'         0.1100  -24.4640    1.2710 C.3       1 SAM         0.1350
     12 O4'         0.5570  -23.3330    2.0420 O.3       1 SAM        -0.3344
     13 C3'         1.2300  -24.7650    0.2640 C.3       1 SAM         0.1168
     14 O3'         0.8130  -24.7780   -1.0900 O.3       1 SAM        -0.3863
     15 C2'         2.2320  -23.6520    0.4340 C.3       1 SAM         0.1386
     16 O2'         2.7720  -23.1780   -0.7940 O.3       1 SAM        -0.3836
     17 C1'         1.3690  -22.5950    1.1080 C.3       1 SAM         0.2011
     18 N9          2.2830  -21.5630    1.6080 N.pl3     1 SAM        -0.1919
     19 C8          3.4260  -21.7420    2.3020 C.2       1 SAM         0.1123
     20 N7          3.9970  -20.5800    2.6260 N.2       1 SAM        -0.2958
     21 C5          3.1630  -19.6260    2.1530 C.ar      1 SAM         0.1045
     22 C6          3.1750  -18.2020    2.1480 C.ar      1 SAM         0.1298
     23 N6          4.2020  -17.5930    2.7430 N.pl3     1 SAM        -0.3152
     24 N1          2.1470  -17.5490    1.6020 N.ar      1 SAM        -0.2698
     25 C2          1.1670  -18.1810    1.0250 C.ar      1 SAM         0.0533
     26 N3          1.0510  -19.5080    0.9810 N.ar      1 SAM        -0.2714
     27 C4          2.0610  -20.2480    1.4870 C.ar      1 SAM         0.1613
     28 H1         -4.5915  -24.3518    1.7054 H         1 SAM         0.2010
     29 H2         -4.7213  -25.3449    3.0116 H         1 SAM         0.2010
     30 H3         -6.0727  -24.6874    2.3402 H         1 SAM         0.2010
     31 H4         -5.7868  -25.8901    0.3295 H         1 SAM         0.1026
     32 H5         -3.5736  -26.2691   -0.0853 H         1 SAM         0.0385
     33 H6         -4.0093  -27.8671    0.6100 H         1 SAM         0.0385
     34 H7         -2.9235  -27.4221    2.6439 H         1 SAM         0.0843
     35 H8         -2.9389  -25.6456    2.3787 H         1 SAM         0.0843
     36 H9         -0.0604  -28.6073    0.8254 H         1 SAM         0.0803
     37 H10        -1.8307  -28.8380    0.6267 H         1 SAM         0.0803
     38 H11        -1.1175  -28.7346    2.2721 H         1 SAM         0.0803
     39 H12         0.7675  -26.2788    2.2320 H         1 SAM         0.0867
     40 H13        -0.6048  -25.4552    3.0475 H         1 SAM         0.0867
     41 H14        -0.8103  -24.1839    0.7376 H         1 SAM         0.0671
     42 H15         1.6851  -25.7370    0.5049 H         1 SAM         0.0649
     43 H16         0.4559  -23.9279   -1.3184 H         1 SAM         0.2100
     44 H17         3.0599  -23.9671    1.0861 H         1 SAM         0.0676
     45 H18         2.0693  -22.8464   -1.3406 H         1 SAM         0.2101
     46 H19         0.6984  -22.1191    0.3774 H         1 SAM         0.0996
     47 H20         3.8335  -22.7168    2.5659 H         1 SAM         0.1349
     48 H21         4.2498  -16.5643    2.7623 H         1 SAM         0.1820
     49 H22         4.9472  -18.1515    3.1831 H         1 SAM         0.1820
     50 H23         0.3938  -17.5892    0.5486 H         1 SAM         0.0996
@<TRIPOS>BOND
     1    1    2 1  
     2    2    3 1  
     3    2    6 1  
     4    3    4 ar 
     5    3    5 ar 
     6    6    7 1  
     7    7    8 1  
     8    8    9 1  
     9    8   10 1  
    10   10   11 1  
    11   11   12 1  
    12   11   13 1  
    13   12   17 1  
    14   13   14 1  
    15   13   15 1  
    16   15   16 1  
    17   15   17 1  
    18   17   18 1  
    19   18   19 1  
    20   18   27 1  
    21   19   20 2  
    22   20   21 1  
    23   21   22 ar 
    24   21   27 ar 
    25   22   23 1  
    26   22   24 ar 
    27   24   25 ar 
    28   25   26 ar 
    29   26   27 ar 
    30    1   28 1  
    31    1   29 1  
    32    1   30 1  
    33    2   31 1  
    34    6   32 1  
    35    6   33 1  
    36    7   34 1  
    37    7   35 1  
    38    9   36 1  
    39    9   37 1  
    40    9   38 1  
    41   10   39 1  
    42   10   40 1  
    43   11   41 1  
    44   13   42 1  
    45   14   43 1  
    46   15   44 1  
    47   16   45 1  
    48   17   46 1  
    49   19   47 1  
    50   23   48 1  
    51   23   49 1  
    52   25   50 1  
@<TRIPOS>SUBSTRUCTURE
     1 SAM         1

