### 
### Created by X-TOOL on Mon Sep 10 21:13:24 2018
### 

@<TRIPOS>MOLECULE
5bwb_ligand
   45    46     1     0     0
SMALL
GAST_HUCK


@<TRIPOS>ATOM
      1 C1        -51.9430   31.9610   21.9220 C.3       1 4VV         0.0569
      2 C2        -52.8080   32.9280   22.7240 C.3       1 4VV        -0.0251
      3 C3        -52.7600   34.3290   22.1260 C.3       1 4VV        -0.0505
      4 N6        -53.7930   28.4780   23.7260 N.2       1 4VV        -0.1439
      5 C7        -57.1280   35.8130   20.4910 C.3       1 4VV         0.0569
      6 C9        -59.3600   35.8320   22.5420 C.2       1 4VV         0.0884
      7 C10       -60.0070   36.7490   19.2510 C.2       1 4VV        -0.0219
      8 C11       -58.9320   35.9760   19.0740 C.2       1 4VV         0.0375
      9 C12       -50.5230   31.4970   23.7490 C.2       1 4VV         0.0375
     10 C14       -52.1340   30.1060   23.4350 C.2       1 4VV         0.1424
     11 C4        -54.1400   34.9780   22.2520 C.3       1 4VV        -0.0529
     12 C5        -54.8660   34.8790   20.9150 C.3       1 4VV        -0.0505
     13 O2        -54.9190   27.5600   23.0630 O.3       1 4VV        -0.2451
     14 C13       -53.0890   29.3190   22.9190 C.2       1 4VV         0.0884
     15 N5        -51.8310   30.1010   24.7430 N.2       1 4VV        -0.3277
     16 C15       -50.8390   30.9650   24.9370 C.2       1 4VV        -0.0219
     17 N1        -51.2950   30.9450   22.7910 N.pl3     1 4VV        -0.2489
     18 C6        -56.3670   34.6560   21.1220 C.3       1 4VV        -0.0251
     19 N2        -58.5450   35.4950   20.2730 N.pl3     1 4VV        -0.2489
     20 N4        -60.2850   36.7790   20.5590 N.2       1 4VV        -0.3277
     21 C8        -59.3750   36.0300   21.2010 C.2       1 4VV         0.1424
     22 N3        -60.2840   36.3540   23.4090 N.2       1 4VV        -0.1439
     23 O1        -61.4140   37.1940   22.9270 O.3       1 4VV        -0.2451
     24 H1        -51.1616   32.5324   21.3997 H         1 4VV         0.0617
     25 H2        -52.5758   31.4461   21.1842 H         1 4VV         0.0617
     26 H3        -52.4393   32.9662   23.7596 H         1 4VV         0.0292
     27 H4        -53.8481   32.5699   22.7180 H         1 4VV         0.0292
     28 H5        -52.4786   34.2664   21.0645 H         1 4VV         0.0266
     29 H6        -52.0180   34.9346   22.6670 H         1 4VV         0.0266
     30 H7        -56.6663   36.0535   19.5220 H         1 4VV         0.0617
     31 H8        -57.0598   36.6862   21.1565 H         1 4VV         0.0617
     32 H9        -58.5619   35.2183   22.9572 H         1 4VV         0.0815
     33 H10       -60.5603   37.2646   18.4674 H         1 4VV         0.0468
     34 H11       -58.4487   35.7688   18.1204 H         1 4VV         0.0885
     35 H12       -49.7611   32.2571   23.5827 H         1 4VV         0.0885
     36 H13       -54.0248   36.0359   22.5303 H         1 4VV         0.0265
     37 H14       -54.7223   34.4566   23.0260 H         1 4VV         0.0265
     38 H15       -54.4525   34.0357   20.3424 H         1 4VV         0.0266
     39 H16       -54.7150   35.8127   20.3534 H         1 4VV         0.0266
     40 H17       -55.3278   27.0272   23.7350 H         1 4VV         0.2858
     41 H18       -53.3022   29.3525   21.8516 H         1 4VV         0.0815
     42 H19       -50.3679   31.1983   25.8907 H         1 4VV         0.0468
     43 H20       -56.6692   33.7116   20.6458 H         1 4VV         0.0292
     44 H21       -56.5888   34.6113   22.1985 H         1 4VV         0.0292
     45 H22       -61.9455   37.4627   23.6671 H         1 4VV         0.2858
@<TRIPOS>BOND
     1    2    1 1  
     2    1   17 1  
     3    3    2 1  
     4   11    3 1  
     5    4   13 1  
     6   14    4 2  
     7    5   18 1  
     8   19    5 1  
     9   21    6 1  
    10    6   22 2  
    11    8    7 2  
    12    7   20 1  
    13   19    8 1  
    14    9   16 2  
    15   17    9 1  
    16   10   14 1  
    17   10   15 2  
    18   17   10 1  
    19   12   11 1  
    20   18   12 1  
    21   15   16 1  
    22   19   21 1  
    23   20   21 2  
    24   22   23 1  
    25    1   24 1  
    26    1   25 1  
    27    2   26 1  
    28    2   27 1  
    29    3   28 1  
    30    3   29 1  
    31    5   30 1  
    32    5   31 1  
    33    6   32 1  
    34    7   33 1  
    35    8   34 1  
    36    9   35 1  
    37   11   36 1  
    38   11   37 1  
    39   12   38 1  
    40   12   39 1  
    41   13   40 1  
    42   14   41 1  
    43   16   42 1  
    44   18   43 1  
    45   18   44 1  
    46   23   45 1  
@<TRIPOS>SUBSTRUCTURE
     1 4VV         1

