### 
### Created by X-TOOL on Mon Sep 10 21:13:22 2018
### 

@<TRIPOS>MOLECULE
5byi_ligand
   33    34     1     0     0
SMALL
GAST_HUCK


@<TRIPOS>ATOM
      1 O10        13.6730    1.7870   16.6410 O.2       1 4WA        -0.1522
      2 S18        15.1050    1.7270   16.7850 S.o2      1 4WA         0.0600
      3 O9         15.6600    1.8270   18.1190 O.2       1 4WA        -0.1522
      4 N8         15.6920    0.4190   16.0650 N.am      1 4WA        -0.2623
      5 C4         15.7450    3.1170   15.9070 C.ar      1 4WA         0.0945
      6 C5         17.1130    3.2290   15.6340 C.ar      1 4WA        -0.0471
      7 C6         17.6140    4.3680   14.9800 C.ar      1 4WA        -0.0408
      8 C1         16.7440    5.4110   14.6180 C.ar      1 4WA         0.0602
      9 C2         15.3810    5.2920   14.8520 C.ar      1 4WA        -0.0408
     10 C3         14.8890    4.1580   15.5020 C.ar      1 4WA        -0.0471
     11 N11        17.1760    6.5440   14.0220 N.pl3     1 4WA        -0.2307
     12 N12        18.4370    6.5720   13.5390 N.pl3     1 4WA        -0.2359
     13 C13        19.2120    7.6800   13.5760 C.ar      1 4WA         0.0475
     14 C18        19.0380    8.7390   14.4850 C.ar      1 4WA        -0.0535
     15 C17        19.8980    9.8540   14.4660 C.ar      1 4WA        -0.0555
     16 C16        20.9510    9.9040   13.5380 C.ar      1 4WA         0.0223
     17 N19        21.8220   11.0200   13.5040 N.pl3     1 4WA        -0.3439
     18 C15        21.1270    8.8420   12.6340 C.ar      1 4WA        -0.0555
     19 C14        20.2660    7.7350   12.6620 C.ar      1 4WA        -0.0535
     20 H1         15.4129    0.1944   15.1314 H         1 4WA         0.1633
     21 H2         16.3370   -0.1717   16.5498 H         1 4WA         0.1633
     22 H3         17.7890    2.4342   15.9280 H         1 4WA         0.0602
     23 H4         18.6718    4.4420   14.7547 H         1 4WA         0.0516
     24 H5         14.7025    6.0746   14.5321 H         1 4WA         0.0516
     25 H6         13.8260    4.0781   15.6986 H         1 4WA         0.0602
     26 H7         16.5597    7.3650   13.9382 H         1 4WA         0.2050
     27 H8         18.8252    5.7126   13.1246 H         1 4WA         0.2014
     28 H9         18.2323    8.6964   15.2089 H         1 4WA         0.0485
     29 H10        19.7480   10.6696   15.1641 H         1 4WA         0.0485
     30 H11        22.5926   11.0513   12.8213 H         1 4WA         0.1680
     31 H12        21.6850   11.8005   14.1620 H         1 4WA         0.1680
     32 H13        21.9334    8.8788   11.9105 H         1 4WA         0.0485
     33 H14        20.4201    6.9160   11.9688 H         1 4WA         0.0485
@<TRIPOS>BOND
     1    1    2 2  
     2    2    3 2  
     3    2    4 am 
     4    2    5 1  
     5    5    6 ar 
     6    5   10 ar 
     7    6    7 ar 
     8    7    8 ar 
     9    8    9 ar 
    10    8   11 1  
    11    9   10 ar 
    12   11   12 1  
    13   12   13 1  
    14   13   14 ar 
    15   13   19 ar 
    16   14   15 ar 
    17   15   16 ar 
    18   16   17 1  
    19   16   18 ar 
    20   18   19 ar 
    21    4   20 1  
    22    4   21 1  
    23    6   22 1  
    24    7   23 1  
    25    9   24 1  
    26   10   25 1  
    27   11   26 1  
    28   12   27 1  
    29   14   28 1  
    30   15   29 1  
    31   17   30 1  
    32   17   31 1  
    33   18   32 1  
    34   19   33 1  
@<TRIPOS>SUBSTRUCTURE
     1 4WA         1

