### 
### Created by X-TOOL on Mon Sep 10 21:13:29 2018
### 

@<TRIPOS>MOLECULE
5byy_ligand
   65    69     1     0     0
SMALL
GAST_HUCK


@<TRIPOS>ATOM
      1 C1          3.0360  -49.5940  -11.5050 C.3       1 4WG         0.0649
      2 C2          4.2350  -48.4940   -9.7110 C.ar      1 4WG         0.1043
      3 C3          4.3080  -49.4260   -8.6880 C.ar      1 4WG        -0.0246
      4 C4          4.4100  -49.0100   -7.3540 C.ar      1 4WG         0.0197
      5 C5          4.4580  -47.6450   -7.0810 C.ar      1 4WG        -0.0647
      6 C6          4.4090  -46.7110   -8.0950 C.ar      1 4WG        -0.0577
      7 C7          4.3030  -47.1110   -9.4250 C.ar      1 4WG         0.0799
      8 C8          3.7590  -44.8850  -10.5060 C.ar      1 4WG         0.1748
      9 C11         2.8060  -43.1800   -9.2860 C.ar      1 4WG         0.1638
     10 C12         3.1010  -41.6190   -7.4510 C.ar      1 4WG         0.0853
     11 C15         4.6350  -39.5610   -6.3820 C.ar      1 4WG        -0.0679
     12 C16         3.9520  -39.3600   -7.5710 C.ar      1 4WG        -0.0511
     13 C17         3.1780  -40.3820   -8.1240 C.ar      1 4WG         0.0788
     14 C18         2.4790  -40.0360   -9.4070 C.2       1 4WG         0.2273
     15 C19         1.6070  -40.5320  -11.6750 C.3       1 4WG         0.0412
     16 C21         3.7270  -51.1890   -6.2880 C.3       1 4WG         0.0269
     17 C23         4.2130  -51.3580   -3.8310 C.3       1 4WG         0.0588
     18 C24         4.9430  -50.0370   -3.9090 C.3       1 4WG        -0.0074
     19 O1          2.0170  -38.9150   -9.5590 O.2       1 4WG        -0.3768
     20 N4          2.3130  -40.9880  -10.4770 N.am      1 4WG        -0.2232
     21 C10         2.7950  -42.3280  -10.4430 C.ar      1 4WG         0.1301
     22 C9          3.3260  -42.9370  -11.5890 C.ar      1 4WG         0.0199
     23 N1          3.8060  -44.1880  -11.6520 N.ar      1 4WG        -0.2886
     24 C14         4.5570  -40.7720   -5.7310 C.ar      1 4WG        -0.0674
     25 C13         3.7970  -41.8040   -6.2560 C.ar      1 4WG        -0.0326
     26 N3          2.2800  -42.6780   -8.0370 N.pl3     1 4WG        -0.2443
     27 C20         1.6520  -43.6490   -7.1380 C.3       1 4WG         0.0374
     28 N2          3.2750  -44.4330   -9.3360 N.ar      1 4WG        -0.2485
     29 N           4.2260  -46.1680  -10.4690 N.pl3     1 4WG        -0.2625
     30 O           4.1520  -48.8330  -11.0350 O.3       1 4WG        -0.3253
     31 C           3.2300  -49.8140  -12.9500 C.3       1 4WG        -0.0375
     32 N5          4.4780  -49.9290   -6.3130 N.pl3     1 4WG        -0.3167
     33 C25         5.5350  -49.8380   -5.3000 C.3       1 4WG         0.0269
     34 O2          3.6470  -51.5270   -2.5310 O.3       1 4WG        -0.3917
     35 C22         3.1390  -51.4260   -4.8940 C.3       1 4WG        -0.0074
     36 H1          2.1024  -49.0389  -11.3312 H         1 4WG         0.0607
     37 H2          2.9916  -50.5597  -10.9803 H         1 4WG         0.0607
     38 H3          4.2860  -50.4843   -8.9215 H         1 4WG         0.0408
     39 H4          4.5353  -47.3105   -6.0528 H         1 4WG         0.0396
     40 H5          4.4534  -45.6550   -7.8543 H         1 4WG         0.0470
     41 H6          5.2338  -38.7608   -5.9622 H         1 4WG         0.0529
     42 H7          4.0192  -38.4027   -8.0751 H         1 4WG         0.0638
     43 H8          1.3018  -39.4833  -11.5439 H         1 4WG         0.0542
     44 H9          0.7154  -41.1560  -11.8350 H         1 4WG         0.0542
     45 H10         2.2731  -40.6138  -12.5466 H         1 4WG         0.0542
     46 H11         4.4016  -52.0193   -6.5438 H         1 4WG         0.0510
     47 H12         2.9104  -51.1401   -7.0233 H         1 4WG         0.0510
     48 H13         4.9334  -52.1701   -4.0086 H         1 4WG         0.0594
     49 H14         5.7534  -50.0263   -3.1653 H         1 4WG         0.0309
     50 H15         4.2381  -49.2202   -3.6949 H         1 4WG         0.0309
     51 H16         3.3506  -42.3484  -12.4989 H         1 4WG         0.0699
     52 H17         5.0943  -40.9186   -4.8010 H         1 4WG         0.0622
     53 H18         3.7429  -42.7551   -5.7387 H         1 4WG         0.0545
     54 H19         1.0732  -44.3744   -7.7285 H         1 4WG         0.0535
     55 H20         0.9810  -43.1240   -6.4423 H         1 4WG         0.0535
     56 H21         2.4302  -44.1779   -6.5682 H         1 4WG         0.0535
     57 H22         4.5888  -46.5091  -11.3706 H         1 4WG         0.2074
     58 H23         2.3875  -50.3985  -13.3482 H         1 4WG         0.0255
     59 H24         4.1682  -50.3642  -13.1144 H         1 4WG         0.0255
     60 H25         3.2789  -48.8434  -13.4654 H         1 4WG         0.0255
     61 H26         6.2891  -50.6160   -5.4896 H         1 4WG         0.0510
     62 H27         6.0086  -48.8468   -5.3559 H         1 4WG         0.0510
     63 H28         3.1906  -52.3592   -2.4913 H         1 4WG         0.2098
     64 H29         2.6690  -52.4201   -4.8666 H         1 4WG         0.0309
     65 H30         2.3808  -50.6561   -4.6883 H         1 4WG         0.0309
@<TRIPOS>BOND
     1   30    1 1  
     2    1   31 1  
     3    3    2 ar 
     4    2    7 ar 
     5    2   30 1  
     6    4    3 ar 
     7    4    5 ar 
     8   32    4 1  
     9    5    6 ar 
    10    6    7 ar 
    11    7   29 1  
    12    8   23 ar 
    13    8   28 ar 
    14   29    8 1  
    15    9   21 ar 
    16    9   26 1  
    17   28    9 ar 
    18   10   13 ar 
    19   10   25 ar 
    20   26   10 1  
    21   12   11 ar 
    22   11   24 ar 
    23   13   12 ar 
    24   13   14 1  
    25   14   19 2  
    26   14   20 am 
    27   20   15 1  
    28   16   32 1  
    29   35   16 1  
    30   17   18 1  
    31   17   34 1  
    32   17   35 1  
    33   18   33 1  
    34   20   21 1  
    35   21   22 ar 
    36   22   23 ar 
    37   24   25 ar 
    38   26   27 1  
    39   32   33 1  
    40    1   36 1  
    41    1   37 1  
    42    3   38 1  
    43    5   39 1  
    44    6   40 1  
    45   11   41 1  
    46   12   42 1  
    47   15   43 1  
    48   15   44 1  
    49   15   45 1  
    50   16   46 1  
    51   16   47 1  
    52   17   48 1  
    53   18   49 1  
    54   18   50 1  
    55   22   51 1  
    56   24   52 1  
    57   25   53 1  
    58   27   54 1  
    59   27   55 1  
    60   27   56 1  
    61   29   57 1  
    62   31   58 1  
    63   31   59 1  
    64   31   60 1  
    65   33   61 1  
    66   33   62 1  
    67   34   63 1  
    68   35   64 1  
    69   35   65 1  
@<TRIPOS>SUBSTRUCTURE
     1 4WG         1

