### 
### Created by X-TOOL on Mon Sep 10 21:13:27 2018
### 

@<TRIPOS>MOLECULE
5byz_ligand
   67    70     1     0     0
SMALL
GAST_HUCK


@<TRIPOS>ATOM
      1 C1          3.1820  -40.0610   -9.4140 C.3       1 4WE        -0.0349
      2 C2          2.0090  -40.9070   -9.9340 C.3       1 4WE         0.0630
      3 C3          1.3720  -41.7510   -8.8300 C.3       1 4WE        -0.0349
      4 C5          0.3060  -39.0170  -10.0630 C.2       1 4WE         0.1210
      5 C6          0.3240  -38.5810   -8.6200 C.3       1 4WE         0.0161
      6 C8         -0.2430  -39.0510  -12.1380 C.2       1 4WE        -0.0102
      7 C12         2.0250  -43.0660  -13.5990 C.ar      1 4WE         0.1994
      8 N13         2.0540  -42.7460  -14.8890 N.ar      1 4WE        -0.2615
      9 C15         1.1860  -40.6210  -14.3800 C.ar      1 4WE         0.1723
     10 C18         2.5140  -44.9780  -12.0330 C.ar      1 4WE         0.0697
     11 C19         3.3270  -46.1250  -11.9660 C.ar      1 4WE        -0.0323
     12 C21         2.6870  -46.5040   -9.6620 C.ar      1 4WE         0.0377
     13 C23         1.7650  -44.6260  -10.9070 C.ar      1 4WE        -0.0323
     14 C24         2.7080  -47.3130   -8.4080 C.2       1 4WE         0.1964
     15 O25         1.8840  -47.0300   -7.5390 O.2       1 4WE        -0.3902
     16 C27         3.5490  -49.2580   -7.0640 C.3       1 4WE         0.0701
     17 C30         5.9560  -47.6210   -4.6870 C.3       1 4WE        -0.0318
     18 C31         6.0240  -46.2590   -4.0010 C.3       1 4WE        -0.0123
     19 C32         4.8590  -46.1180   -3.0260 C.3       1 4WE        -0.0434
     20 C33         3.5850  -46.2100   -3.8530 C.3       1 4WE        -0.0123
     21 C34         3.5320  -47.6040   -4.4700 C.3       1 4WE        -0.0318
     22 N4          1.0160  -40.0340  -10.6160 N.pl3     1 4WE        -0.2341
     23 N7         -0.4340  -38.4420  -10.9660 N.2       1 4WE        -0.3199
     24 C9          0.6770  -40.0510  -11.9670 C.2       1 4WE         0.0975
     25 C10         1.1650  -40.9680  -13.0190 C.ar      1 4WE         0.1005
     26 N11         1.6030  -42.2050  -12.6910 N.ar      1 4WE        -0.2569
     27 C14         1.6580  -41.5490  -15.2930 C.ar      1 4WE         0.0416
     28 F16         0.7920  -39.4140  -14.8300 F         1 4WE        -0.1800
     29 N17         2.5000  -44.3210  -13.2730 N.pl3     1 4WE        -0.2422
     30 C20         3.4110  -46.8740  -10.8140 C.ar      1 4WE        -0.0515
     31 C22         1.8490  -45.3760   -9.7480 C.ar      1 4WE        -0.0515
     32 N26         3.5550  -48.3720   -8.2450 N.am      1 4WE        -0.2828
     33 C28         4.7060  -49.0600   -6.0840 C.3       1 4WE        -0.0113
     34 N29         4.6730  -47.7650   -5.3920 N.4       1 4WE         0.2367
     35 H1          3.9107  -40.7141   -8.9116 H         1 4WE         0.0259
     36 H2          2.8066  -39.3132   -8.7000 H         1 4WE         0.0259
     37 H3          3.6683  -39.5503  -10.2582 H         1 4WE         0.0259
     38 H4          2.4095  -41.6041  -10.6848 H         1 4WE         0.0644
     39 H5          0.5406  -42.3365   -9.2496 H         1 4WE         0.0259
     40 H6          0.9917  -41.0906   -8.0368 H         1 4WE         0.0259
     41 H7          2.1252  -42.4333   -8.4093 H         1 4WE         0.0259
     42 H8         -0.3588  -37.7290   -8.4859 H         1 4WE         0.0481
     43 H9          1.3445  -38.2805   -8.3404 H         1 4WE         0.0481
     44 H10        -0.0007  -39.4152   -7.9808 H         1 4WE         0.0481
     45 H11        -0.7365  -38.7954  -13.0745 H         1 4WE         0.0557
     46 H12         3.8976  -46.4242  -12.8378 H         1 4WE         0.0549
     47 H13         1.1142  -43.7598  -10.9422 H         1 4WE         0.0549
     48 H14         3.5819  -50.2980   -7.4208 H         1 4WE         0.0572
     49 H15         2.6097  -49.0874   -6.5176 H         1 4WE         0.0572
     50 H16         6.0474  -48.4148   -3.9310 H         1 4WE         0.0814
     51 H17         6.7806  -47.7065   -5.4100 H         1 4WE         0.0814
     52 H18         5.9652  -45.4640   -4.7590 H         1 4WE         0.0317
     53 H19         6.9732  -46.1727   -3.4520 H         1 4WE         0.0317
     54 H20         4.9090  -45.1461   -2.5132 H         1 4WE         0.0269
     55 H21         4.8872  -46.9273   -2.2816 H         1 4WE         0.0269
     56 H22         3.5982  -45.4491   -4.6473 H         1 4WE         0.0317
     57 H23         2.7077  -46.0521   -3.2084 H         1 4WE         0.0317
     58 H24         2.5898  -47.7264   -5.0244 H         1 4WE         0.0814
     59 H25         3.5907  -48.3618   -3.6748 H         1 4WE         0.0814
     60 H26         1.7036  -41.2937  -16.3455 H         1 4WE         0.0853
     61 H27         2.9040  -44.8541  -14.0563 H         1 4WE         0.2183
     62 H28         4.0398  -47.7567  -10.7923 H         1 4WE         0.0640
     63 H29         1.2565  -45.0890   -8.8868 H         1 4WE         0.0640
     64 H30         4.2191  -48.5585   -8.9690 H         1 4WE         0.1843
     65 H31         5.6512  -49.1324   -6.6420 H         1 4WE         0.0834
     66 H32         4.6636  -49.8591   -5.3293 H         1 4WE         0.0834
     67 H33         4.6023  -47.0386   -6.0873 H         1 4WE         0.2034
@<TRIPOS>BOND
     1    2    1 1  
     2    2    3 1  
     3   22    2 1  
     4    4    5 1  
     5   22    4 1  
     6    4   23 2  
     7    6   23 1  
     8   24    6 2  
     9    7    8 ar 
    10    7   26 ar 
    11   29    7 1  
    12    8   27 ar 
    13   25    9 ar 
    14   27    9 ar 
    15    9   28 1  
    16   11   10 ar 
    17   13   10 ar 
    18   10   29 1  
    19   30   11 ar 
    20   14   12 1  
    21   12   30 ar 
    22   12   31 ar 
    23   31   13 ar 
    24   14   15 2  
    25   32   14 am 
    26   16   32 1  
    27   33   16 1  
    28   17   18 1  
    29   34   17 1  
    30   18   19 1  
    31   20   19 1  
    32   21   20 1  
    33   34   21 1  
    34   24   22 1  
    35   25   24 1  
    36   26   25 ar 
    37   33   34 1  
    38    1   35 1  
    39    1   36 1  
    40    1   37 1  
    41    2   38 1  
    42    3   39 1  
    43    3   40 1  
    44    3   41 1  
    45    5   42 1  
    46    5   43 1  
    47    5   44 1  
    48    6   45 1  
    49   11   46 1  
    50   13   47 1  
    51   16   48 1  
    52   16   49 1  
    53   17   50 1  
    54   17   51 1  
    55   18   52 1  
    56   18   53 1  
    57   19   54 1  
    58   19   55 1  
    59   20   56 1  
    60   20   57 1  
    61   21   58 1  
    62   21   59 1  
    63   27   60 1  
    64   29   61 1  
    65   30   62 1  
    66   31   63 1  
    67   32   64 1  
    68   33   65 1  
    69   33   66 1  
    70   34   67 1  
@<TRIPOS>SUBSTRUCTURE
     1 4WE         1

