### 
### Created by X-TOOL on Mon Sep 10 21:13:24 2018
### 

@<TRIPOS>MOLECULE
5c0k_ligand
   31    30     1     0     0
SMALL
GAST_HUCK


@<TRIPOS>ATOM
      1 C1        -16.2450  -16.0970   -3.1380 C.3       1 4WK        -0.0584
      2 C2        -15.4860  -16.8460   -4.2280 C.3       1 4WK        -0.0063
      3 C3        -13.9760  -16.6390   -4.0710 C.3       1 4WK        -0.0584
      4 C6        -16.3400  -19.3000   -2.0540 C.2       1 4WK         0.2264
      5 C8        -15.7340  -20.0450   -0.8680 C.3       1 4WK         0.0621
      6 C11       -15.2750  -19.0550   -5.4510 C.2       1 4WK         0.1994
      7 C4        -15.8860  -18.3360   -4.2580 C.3       1 4WK         0.1330
      8 N5        -15.4870  -19.0210   -3.0400 N.am      1 4WK        -0.2608
      9 O7        -17.5330  -18.9900   -2.0740 O.2       1 4WK        -0.3907
     10 C9        -15.4760  -21.5100   -1.1870 C.3       1 4WK        -0.0040
     11 N10       -16.6680  -19.9360    0.2850 N.4       1 4WK         0.2377
     12 O12       -14.1680  -19.5940   -5.3460 O.2       1 4WK        -0.3947
     13 N13       -15.9910  -19.0550   -6.5650 N.am      1 4WK        -0.2990
     14 H1        -15.9408  -15.0399   -3.1396 H         1 4WK         0.0234
     15 H2        -16.0158  -16.5430   -2.1589 H         1 4WK         0.0234
     16 H3        -17.3259  -16.1677   -3.3291 H         1 4WK         0.0234
     17 H4        -15.7769  -16.4116   -5.1958 H         1 4WK         0.0343
     18 H5        -13.4464  -17.1860   -4.8650 H         1 4WK         0.0234
     19 H6        -13.6544  -17.0158   -3.0889 H         1 4WK         0.0234
     20 H7        -13.7431  -15.5666   -4.1465 H         1 4WK         0.0234
     21 H8        -14.7769  -19.5714   -0.6042 H         1 4WK         0.1095
     22 H9        -16.9813  -18.3900   -4.3437 H         1 4WK         0.0802
     23 H10       -14.5308  -19.2951   -2.9369 H         1 4WK         0.1885
     24 H11       -15.0407  -22.0057   -0.3068 H         1 4WK         0.0310
     25 H12       -14.7763  -21.5835   -2.0326 H         1 4WK         0.0310
     26 H13       -16.4244  -22.0001   -1.4522 H         1 4WK         0.0310
     27 H14       -16.8349  -18.9636    0.4914 H         1 4WK         0.2015
     28 H15       -16.2614  -20.3854    1.0905 H         1 4WK         0.2015
     29 H16       -17.5405  -20.3851    0.0543 H         1 4WK         0.2015
     30 H17       -15.6423  -19.5115   -7.3835 H         1 4WK         0.1815
     31 H18       -16.8804  -18.5985   -6.5877 H         1 4WK         0.1815
@<TRIPOS>BOND
     1    2    1 1  
     2    2    3 1  
     3    7    2 1  
     4    4    5 1  
     5    8    4 am 
     6    4    9 2  
     7    5   10 1  
     8    5   11 1  
     9    7    6 1  
    10    6   12 2  
    11    6   13 am 
    12    7    8 1  
    13    1   14 1  
    14    1   15 1  
    15    1   16 1  
    16    2   17 1  
    17    3   18 1  
    18    3   19 1  
    19    3   20 1  
    20    5   21 1  
    21    7   22 1  
    22    8   23 1  
    23   10   24 1  
    24   10   25 1  
    25   10   26 1  
    26   11   27 1  
    27   11   28 1  
    28   11   29 1  
    29   13   30 1  
    30   13   31 1  
@<TRIPOS>SUBSTRUCTURE
     1 4WK         1

