### 
### Created by X-TOOL on Mon Sep 10 21:13:24 2018
### 

@<TRIPOS>MOLECULE
5c0m_ligand
   84    83     1     0     0
SMALL
GAST_HUCK


@<TRIPOS>ATOM
      1 N          21.0580   10.5910    3.6530 N.4       1 ALA         0.2377
      2 CA         21.2820   11.6060    4.7370 C.3       1 ALA         0.0621
      3 C          20.7600   12.9690    4.3010 C.2       1 ALA         0.2264
      4 O          20.5410   13.1960    3.1120 O.2       1 ALA        -0.3907
      5 CB         22.7540   11.7180    5.0640 C.3       1 ALA        -0.0040
      6 N          20.5340   13.8490    5.2680 N.am      1 ARG        -0.2610
      7 CA         20.2130   15.2430    4.9860 C.3       1 ARG         0.1312
      8 C          21.4120   16.0790    5.4270 C.2       1 ARG         0.2040
      9 O          21.8050   15.9950    6.5750 O.2       1 ARG        -0.3944
     10 CB         18.9440   15.6720    5.7220 C.3       1 ARG        -0.0092
     11 CG         18.4190   17.0340    5.2770 C.3       1 ARG        -0.0156
     12 CD         16.9080   17.1940    5.4760 C.3       1 ARG         0.0627
     13 NE         16.3680   18.2790    4.6470 N.pl3     1 ARG        -0.2723
     14 CZ         16.3810   19.5790    4.9560 C.cat     1 ARG         0.2882
     15 NH1        16.9030   20.0240    6.1050 N.pl3     1 ARG        -0.2849
     16 NH2        15.8590   20.4550    4.1020 N.pl3     1 ARG        -0.2849
     17 N          21.9960   16.8580    4.5160 N.am      1 THR        -0.2613
     18 CA         23.1480   17.7080    4.8330 C.3       1 THR         0.1565
     19 C          22.7050   19.1250    5.1580 C.2       1 THR         0.2065
     20 O          21.5710   19.5160    4.8780 O.2       1 THR        -0.3943
     21 CB         24.1330   17.7950    3.6700 C.3       1 THR         0.0924
     22 OG1        23.4790   18.3860    2.5360 O.3       1 THR        -0.3874
     23 CG2        24.6840   16.4080    3.3150 C.3       1 THR        -0.0346
     24 N          23.6520   19.8900    5.7110 N.am      1 4WQ        -0.2637
     25 CA         23.4480   21.3130    5.8940 C.3       1 4WQ         0.1306
     26 CB         24.6160   21.8880    6.6850 C.3       1 4WQ        -0.0124
     27 CG         24.4530   23.3710    6.9760 C.3       1 4WQ        -0.0488
     28 CD         25.3830   23.7980    8.1050 C.3       1 4WQ        -0.0524
     29 CE         26.8430   23.6190    7.7120 C.3       1 4WQ        -0.0481
     30 CZ         27.8580   24.3180    8.6100 C.3       1 4WQ        -0.0377
     31 CM3        27.6820   23.8920   10.0620 C.3       1 4WQ        -0.0601
     32 CM2        29.2530   23.9240    8.1030 C.3       1 4WQ        -0.0601
     33 CM1        27.6780   25.8370    8.5540 C.3       1 4WQ        -0.0601
     34 C          23.3160   21.9770    4.5470 C.2       1 4WQ         0.1992
     35 O          23.9920   21.5760    3.6230 O.2       1 4WQ        -0.3947
     36 N          22.4350   22.9620    4.4660 N.am      1 GLN        -0.2990
     37 H1         21.4076    9.6949    3.9544 H         1 ALA         0.2015
     38 H2         21.5446   10.8780    2.8182 H         1 ALA         0.2015
     39 H3         20.0715   10.5188    3.4589 H         1 ALA         0.2015
     40 H4         20.7391   11.2860    5.6385 H         1 ALA         0.1095
     41 H5         22.8972   12.4650    5.8587 H         1 ALA         0.0310
     42 H6         23.3067   12.0284    4.1651 H         1 ALA         0.0310
     43 H7         23.1289   10.7421    5.4062 H         1 ALA         0.0310
     44 H8         20.5854   13.5467    6.2198 H         1 ARG         0.1884
     45 H9         20.0543   15.3714    3.9051 H         1 ARG         0.0800
     46 H10        19.1635   15.7174    6.7989 H         1 ARG         0.0313
     47 H11        18.1627   14.9198    5.5384 H         1 ARG         0.0313
     48 H12        18.6464   17.1641    4.2087 H         1 ARG         0.0301
     49 H13        18.9325   17.8136    5.8588 H         1 ARG         0.0301
     50 H14        16.7087   17.4195    6.5340 H         1 ARG         0.0689
     51 H15        16.4096   16.2526    5.2015 H         1 ARG         0.0689
     52 H16        15.9414   18.0146    3.7476 H         1 ARG         0.2642
     53 H17        16.8990   21.0321    6.3162 H         1 ARG         0.2615
     54 H18        17.3088   19.3584    6.7782 H         1 ARG         0.2615
     55 H19        15.4532   20.1288    3.2133 H         1 ARG         0.2615
     56 H20        15.8605   21.4596    4.3294 H         1 ARG         0.2615
     57 H21        21.6355   16.8627    3.5833 H         1 THR         0.1884
     58 H22        23.6623   17.2804    5.7063 H         1 THR         0.0826
     59 H23        24.9744   18.4379    3.9677 H         1 THR         0.0639
     60 H24        22.7366   17.8492    2.2848 H         1 THR         0.2101
     61 H25        25.3898   16.4976    2.4761 H         1 THR         0.0257
     62 H26        23.8538   15.7464    3.0267 H         1 THR         0.0257
     63 H27        25.2035   15.9855    4.1876 H         1 THR         0.0257
     64 H28        24.5135   19.4742    6.0025 H         1 4WQ         0.1883
     65 H29        22.5201   21.4760    6.4618 H         1 4WQ         0.0800
     66 H30        25.5394   21.7425    6.1053 H         1 4WQ         0.0312
     67 H31        24.6939   21.3483    7.6403 H         1 4WQ         0.0312
     68 H32        23.4118   23.5701    7.2697 H         1 4WQ         0.0267
     69 H33        24.6950   23.9465    6.0703 H         1 4WQ         0.0267
     70 H34        25.1730   23.1855    8.9942 H         1 4WQ         0.0266
     71 H35        25.2014   24.8575    8.3384 H         1 4WQ         0.0266
     72 H36        26.9690   24.0094    6.6913 H         1 4WQ         0.0270
     73 H37        27.0668   22.5421    7.7229 H         1 4WQ         0.0270
     74 H38        28.4241   24.4088   10.6882 H         1 4WQ         0.0235
     75 H39        27.8257   22.8046   10.1451 H         1 4WQ         0.0235
     76 H40        26.6692   24.1550   10.4011 H         1 4WQ         0.0235
     77 H41        29.3643   24.2380    7.0547 H         1 4WQ         0.0235
     78 H42        29.3743   22.8330    8.1738 H         1 4WQ         0.0235
     79 H43        30.0197   24.4188    8.7173 H         1 4WQ         0.0235
     80 H44        26.6749   26.1011    8.9202 H         1 4WQ         0.0235
     81 H45        27.7918   26.1817    7.5156 H         1 4WQ         0.0235
     82 H46        28.4379   26.3199    9.1860 H         1 4WQ         0.0235
     83 H47        22.3007   23.4427    3.5994 H         1 GLN         0.1815
     84 H48        21.9039   23.2253    5.2714 H         1 GLN         0.1815
@<TRIPOS>BOND
     1    1    2 1  
     2    2    3 1  
     3    2    5 1  
     4    3    4 2  
     5    3    6 am 
     6    6    7 1  
     7    7    8 1  
     8    7   10 1  
     9    8    9 2  
    10    8   17 am 
    11   10   11 1  
    12   11   12 1  
    13   12   13 1  
    14   13   14 ar 
    15   14   15 ar 
    16   14   16 ar 
    17   17   18 1  
    18   18   19 1  
    19   18   21 1  
    20   19   20 2  
    21   19   24 am 
    22   21   22 1  
    23   21   23 1  
    24   24   25 1  
    25   25   26 1  
    26   25   34 1  
    27   26   27 1  
    28   27   28 1  
    29   28   29 1  
    30   29   30 1  
    31   30   31 1  
    32   30   32 1  
    33   30   33 1  
    34   34   35 2  
    35   34   36 am 
    36    1   37 1  
    37    1   38 1  
    38    1   39 1  
    39    2   40 1  
    40    5   41 1  
    41    5   42 1  
    42    5   43 1  
    43    6   44 1  
    44    7   45 1  
    45   10   46 1  
    46   10   47 1  
    47   11   48 1  
    48   11   49 1  
    49   12   50 1  
    50   12   51 1  
    51   13   52 1  
    52   15   53 1  
    53   15   54 1  
    54   16   55 1  
    55   16   56 1  
    56   17   57 1  
    57   18   58 1  
    58   21   59 1  
    59   22   60 1  
    60   23   61 1  
    61   23   62 1  
    62   23   63 1  
    63   24   64 1  
    64   25   65 1  
    65   26   66 1  
    66   26   67 1  
    67   27   68 1  
    68   27   69 1  
    69   28   70 1  
    70   28   71 1  
    71   29   72 1  
    72   29   73 1  
    73   31   74 1  
    74   31   75 1  
    75   31   76 1  
    76   32   77 1  
    77   32   78 1  
    78   32   79 1  
    79   33   80 1  
    80   33   81 1  
    81   33   82 1  
    82   36   83 1  
    83   36   84 1  
@<TRIPOS>SUBSTRUCTURE
     1 ALA         1

