### 
### Created by X-TOOL on Mon Sep 10 21:13:23 2018
### 

@<TRIPOS>MOLECULE
5c1m_ligand
   66    72     1     0     0
SMALL
GAST_HUCK


@<TRIPOS>ATOM
      1 CAP         2.3670   15.4790  -57.7720 C.3       1 4VO        -0.0348
      2 CAO         1.9260   15.5610  -56.2920 C.3       1 4VO        -0.0407
      3 NBB         1.1310   16.7970  -56.0740 N.4       1 4VO         0.2322
      4 CAB         0.7860   16.9300  -54.6350 C.3       1 4VO        -0.0432
      5 CAZ        -0.0920   16.8030  -56.9170 C.3       1 4VO        -0.0189
      6 CAQ        -1.0260   15.5760  -56.6780 C.3       1 4VO         0.0300
      7 CAW        -0.7240   14.4520  -57.4860 C.ar      1 4VO        -0.0207
      8 CAM        -1.4980   13.3080  -57.3180 C.ar      1 4VO        -0.0342
      9 CAL        -1.2710   12.1570  -58.0720 C.ar      1 4VO        -0.0091
     10 CAU        -0.2530   12.1530  -59.0150 C.ar      1 4VO         0.1085
     11 OAD        -0.0150   11.0300  -59.7590 O.3       1 4VO        -0.3300
     12 CAN         0.5220   13.2940  -59.1890 C.ar      1 4VO        -0.0197
     13 CAX         0.2990   14.4640  -58.4550 C.ar      1 4VO        -0.0555
     14 CBF         1.1300   15.6050  -58.6990 C.3       1 4VO        -0.0009
     15 CBA         1.5630   15.7190  -60.2190 C.3       1 4VO        -0.0245
     16 NAS         2.9110   16.3220  -60.5050 N.4       1 4VO         0.2345
     17 CBE         0.7060   16.8040  -60.9230 C.3       1 4VO         0.1343
     18 OAT         0.9270   16.7990  -62.3580 O.3       1 4VO        -0.3901
     19 CAA         0.5320   15.5530  -62.9460 C.3       1 4VO         0.0296
     20 CAF        -0.6630   16.7450  -60.5930 C.2       1 4VO        -0.0053
     21 CAE        -0.8980   16.7960  -59.2190 C.2       1 4VO        -0.0360
     22 CBD         0.2500   16.8410  -58.4010 C.3       1 4VO         0.0222
     23 CAR         0.9020   18.1530  -58.7940 C.3       1 4VO        -0.0505
     24 CBC         1.2960   18.0670  -60.2780 C.3       1 4VO         0.0389
     25 CAC         0.8330   19.3270  -61.0260 C.3       1 4VO        -0.0554
     26 CAY         2.8120   17.7520  -60.1860 C.3       1 4VO         0.0126
     27 CAV         3.7260   18.8390  -60.1830 C.ar      1 4VO         0.0044
     28 CAJ         4.0280   19.6960  -61.2230 C.ar      1 4VO        -0.0550
     29 CAH         4.9290   20.7350  -61.0030 C.ar      1 4VO        -0.0684
     30 CAG         5.5380   20.9230  -59.7670 C.ar      1 4VO        -0.0687
     31 CAI         5.2390   20.0640  -58.7180 C.ar      1 4VO        -0.0684
     32 CAK         4.3370   19.0320  -58.9380 C.ar      1 4VO        -0.0550
     33 H1          2.8611   14.5129  -57.9524 H         1 4VO         0.0208
     34 H2          3.0701   16.2966  -57.9890 H         1 4VO         0.0208
     35 H3          2.8160   15.5800  -55.6458 H         1 4VO         0.0805
     36 H4          1.3117   14.6828  -56.0443 H         1 4VO         0.0805
     37 H5          1.6971   17.5880  -56.3385 H         1 4VO         0.2029
     38 H6          0.1979   17.8469  -54.4822 H         1 4VO         0.0777
     39 H7          1.7096   16.9834  -54.0399 H         1 4VO         0.0777
     40 H8          0.1951   16.0582  -54.3175 H         1 4VO         0.0777
     41 H9         -0.6561   17.7135  -56.6666 H         1 4VO         0.0806
     42 H10        -2.0610   15.8839  -56.8877 H         1 4VO         0.0538
     43 H11        -0.9392   15.2762  -55.6232 H         1 4VO         0.0538
     44 H12        -2.2958   13.3115  -56.5841 H         1 4VO         0.0619
     45 H13        -1.8832   11.2749  -57.9230 H         1 4VO         0.0786
     46 H14         0.7088   11.1922  -60.3525 H         1 4VO         0.2469
     47 H15         1.3250   13.2766  -59.9169 H         1 4VO         0.0708
     48 H16         1.4652   14.7296  -60.6896 H         1 4VO         0.0688
     49 H17         3.1471   16.1988  -61.4772 H         1 4VO         0.2019
     50 H18         3.6152   15.8862  -59.9303 H         1 4VO         0.2019
     51 H19         0.7132   15.5856  -64.0305 H         1 4VO         0.0515
     52 H20        -0.5382   15.3818  -62.7581 H         1 4VO         0.0515
     53 H21         1.1179   14.7354  -62.5008 H         1 4VO         0.0515
     54 H22        -1.4563   16.6675  -61.3350 H         1 4VO         0.1147
     55 H23        -1.9048   16.8008  -58.8039 H         1 4VO         0.1115
     56 H24         1.7987   18.3221  -58.1797 H         1 4VO         0.0201
     57 H25         0.1933   18.9808  -58.6441 H         1 4VO         0.0201
     58 H26         1.1213   19.2515  -62.0849 H         1 4VO         0.0234
     59 H27         1.3069   20.2135  -60.5793 H         1 4VO         0.0234
     60 H28        -0.2605   19.4179  -60.9494 H         1 4VO         0.0234
     61 H29         2.8867   17.6171  -59.0969 H         1 4VO         0.1016
     62 H30         3.5704   19.5619  -62.1965 H         1 4VO         0.0559
     63 H31         5.1613   21.4140  -61.8154 H         1 4VO         0.0599
     64 H32         6.2416   21.7350  -59.6235 H         1 4VO         0.0559
     65 H33         5.7008   20.1966  -57.7463 H         1 4VO         0.0599
     66 H34         4.0992   18.3571  -58.1237 H         1 4VO         0.0559
@<TRIPOS>BOND
     1    1    2 1  
     2    1   14 1  
     3    2    3 1  
     4    3    4 1  
     5    3    5 1  
     6    5    6 1  
     7    5   22 1  
     8    6    7 1  
     9    7    8 ar 
    10    7   13 ar 
    11    8    9 ar 
    12    9   10 ar 
    13   10   11 1  
    14   10   12 ar 
    15   12   13 ar 
    16   13   14 1  
    17   14   15 1  
    18   14   22 1  
    19   15   16 1  
    20   15   17 1  
    21   16   26 1  
    22   17   18 1  
    23   17   20 1  
    24   17   24 1  
    25   18   19 1  
    26   20   21 2  
    27   21   22 1  
    28   22   23 1  
    29   23   24 1  
    30   24   25 1  
    31   24   26 1  
    32   26   27 1  
    33   27   28 ar 
    34   27   32 ar 
    35   28   29 ar 
    36   29   30 ar 
    37   30   31 ar 
    38   31   32 ar 
    39    1   33 1  
    40    1   34 1  
    41    2   35 1  
    42    2   36 1  
    43    3   37 1  
    44    4   38 1  
    45    4   39 1  
    46    4   40 1  
    47    5   41 1  
    48    6   42 1  
    49    6   43 1  
    50    8   44 1  
    51    9   45 1  
    52   11   46 1  
    53   12   47 1  
    54   15   48 1  
    55   16   49 1  
    56   16   50 1  
    57   19   51 1  
    58   19   52 1  
    59   19   53 1  
    60   20   54 1  
    61   21   55 1  
    62   23   56 1  
    63   23   57 1  
    64   25   58 1  
    65   25   59 1  
    66   25   60 1  
    67   26   61 1  
    68   28   62 1  
    69   29   63 1  
    70   30   64 1  
    71   31   65 1  
    72   32   66 1  
@<TRIPOS>SUBSTRUCTURE
     1 4VO         1

