### 
### Created by X-TOOL on Mon Sep 10 21:13:28 2018
### 

@<TRIPOS>MOLECULE
5c1x_ligand
   61    63     1     0     0
SMALL
GAST_HUCK


@<TRIPOS>ATOM
      1 O1         21.0610  -13.4380   34.7870 O.2       1 GHX        -0.3968
      2 C34        22.2300  -13.6570   35.0680 C.2       1 GHX         0.1792
      3 N33        22.7640  -14.7950   35.3330 N.am      1 GHX        -0.2866
      4 C32        24.1930  -14.7450   35.6080 C.3       1 GHX         0.0332
      5 C31        24.5440  -13.2800   35.2220 C.3       1 GHX        -0.0129
      6 C30        23.2040  -12.5400   35.1780 C.3       1 GHX         0.0526
      7 C29        22.9840  -11.5960   33.9750 C.3       1 GHX        -0.0079
      8 C26        23.8860  -10.3920   33.9110 C.3       1 GHX         0.0674
      9 C27        23.5920   -9.4880   32.6890 C.3       1 GHX         0.0673
     10 O28        24.6110   -8.5500   32.8840 O.3       1 GHX        -0.3927
     11 N24        23.7810   -9.5740   35.1300 N.am      1 GHX        -0.2795
     12 C23        24.7490   -9.6360   36.0740 C.2       1 GHX         0.2040
     13 O25        25.7170  -10.3720   36.0040 O.2       1 GHX        -0.3944
     14 C15        24.5720   -8.7360   37.2390 C.3       1 GHX         0.1422
     15 C16        25.4130   -7.4760   36.9640 C.3       1 GHX         0.0214
     16 C17        25.2230   -6.2740   37.8660 C.ar      1 GHX        -0.0386
     17 C22        26.3400   -5.6570   38.4050 C.ar      1 GHX        -0.0601
     18 C21        26.2170   -4.5470   39.2180 C.ar      1 GHX        -0.0686
     19 C20        24.9660   -4.0270   39.5190 C.ar      1 GHX        -0.0687
     20 C19        23.8420   -4.6180   38.9680 C.ar      1 GHX        -0.0686
     21 C18        23.9770   -5.7390   38.1160 C.ar      1 GHX        -0.0601
     22 N13        25.0040   -9.3240   38.5030 N.am      1 GHX        -0.2393
     23 C12        24.4310  -10.4290   38.9400 C.2       1 GHX         0.3240
     24 O14        23.5540  -11.0440   38.3300 O.2       1 GHX        -0.3773
     25 O11        24.9020  -10.9760   40.2280 O.3       1 GHX        -0.2505
     26 C10        24.4350  -12.2880   40.6150 C.3       1 GHX         0.1113
     27 C1         23.2460  -12.2070   41.5860 C.ar      1 GHX        -0.0130
     28 C6         22.0380  -11.6370   41.2130 C.ar      1 GHX        -0.0578
     29 C5         20.9490  -11.5550   42.0920 C.ar      1 GHX        -0.0685
     30 C4         21.0490  -12.0450   43.3890 C.ar      1 GHX        -0.0687
     31 C3         22.2490  -12.6450   43.7690 C.ar      1 GHX        -0.0685
     32 C2         23.3360  -12.7190   42.8850 C.ar      1 GHX        -0.0578
     33 H1         22.2403  -15.6468   35.3491 H         1 GHX         0.1851
     34 H2         24.7453  -15.4655   34.9868 H         1 GHX         0.0521
     35 H3         24.4029  -14.9399   36.6700 H         1 GHX         0.0521
     36 H4         25.0340  -13.2480   34.2377 H         1 GHX         0.0312
     37 H5         25.2070  -12.8313   35.9764 H         1 GHX         0.0312
     38 H6         23.0619  -11.9686   36.1071 H         1 GHX         0.0539
     39 H7         21.9449  -11.2371   34.0137 H         1 GHX         0.0315
     40 H8         23.1361  -12.1804   33.0556 H         1 GHX         0.0315
     41 H9         24.9202  -10.7569   33.8261 H         1 GHX         0.0580
     42 H10        22.5922   -9.0322   32.7401 H         1 GHX         0.0580
     43 H11        23.7007  -10.0279   31.7368 H         1 GHX         0.0580
     44 H12        24.4952   -8.1291   33.7277 H         1 GHX         0.2095
     45 H13        22.9936   -8.9717   35.2610 H         1 GHX         0.1855
     46 H14        23.5090   -8.4660   37.3234 H         1 GHX         0.0823
     47 H15        25.1872   -7.1515   35.9375 H         1 GHX         0.0474
     48 H16        26.4709   -7.7696   37.0315 H         1 GHX         0.0474
     49 H17        27.3256   -6.0512   38.1855 H         1 GHX         0.0557
     50 H18        27.1057   -4.0779   39.6245 H         1 GHX         0.0599
     51 H19        24.8704   -3.1703   40.1762 H         1 GHX         0.0559
     52 H20        22.8578   -4.2215   39.1896 H         1 GHX         0.0599
     53 H21        23.0983   -6.1788   37.6582 H         1 GHX         0.0557
     54 H22        25.7313   -8.8911   39.0356 H         1 GHX         0.1901
     55 H23        25.2582  -12.8290   41.1045 H         1 GHX         0.0776
     56 H24        24.1218  -12.8348   39.7134 H         1 GHX         0.0776
     57 H25        21.9324  -11.2420   40.2091 H         1 GHX         0.0557
     58 H26        20.0210  -11.1056   41.7574 H         1 GHX         0.0599
     59 H27        20.2203  -11.9633   44.0831 H         1 GHX         0.0559
     60 H28        22.3437  -13.0617   44.7652 H         1 GHX         0.0599
     61 H29        24.2603  -13.1802   43.2137 H         1 GHX         0.0557
@<TRIPOS>BOND
     1    1    2 2  
     2    2    3 am 
     3    2    6 1  
     4    3    4 1  
     5    4    5 1  
     6    5    6 1  
     7    6    7 1  
     8    7    8 1  
     9    8    9 1  
    10    8   11 1  
    11    9   10 1  
    12   11   12 am 
    13   12   13 2  
    14   12   14 1  
    15   14   15 1  
    16   14   22 1  
    17   15   16 1  
    18   16   17 ar 
    19   16   21 ar 
    20   17   18 ar 
    21   18   19 ar 
    22   19   20 ar 
    23   20   21 ar 
    24   22   23 am 
    25   23   24 2  
    26   23   25 1  
    27   25   26 1  
    28   26   27 1  
    29   27   28 ar 
    30   27   32 ar 
    31   28   29 ar 
    32   29   30 ar 
    33   30   31 ar 
    34   31   32 ar 
    35    3   33 1  
    36    4   34 1  
    37    4   35 1  
    38    5   36 1  
    39    5   37 1  
    40    6   38 1  
    41    7   39 1  
    42    7   40 1  
    43    8   41 1  
    44    9   42 1  
    45    9   43 1  
    46   10   44 1  
    47   11   45 1  
    48   14   46 1  
    49   15   47 1  
    50   15   48 1  
    51   17   49 1  
    52   18   50 1  
    53   19   51 1  
    54   20   52 1  
    55   21   53 1  
    56   22   54 1  
    57   26   55 1  
    58   26   56 1  
    59   28   57 1  
    60   29   58 1  
    61   30   59 1  
    62   31   60 1  
    63   32   61 1  
@<TRIPOS>SUBSTRUCTURE
     1 GHX         1

