### 
### Created by X-TOOL on Mon Sep 10 21:13:29 2018
### 

@<TRIPOS>MOLECULE
5c1y_ligand
   60    61     1     0     0
SMALL
GAST_HUCK


@<TRIPOS>ATOM
      1 O25         6.6860    5.9650   -2.8510 O.2       1 GHY        -0.3944
      2 C23         7.0860    7.0610   -2.5310 C.2       1 GHY         0.2040
      3 C15         7.6690    7.3090   -1.1830 C.3       1 GHY         0.1421
      4 C16         8.8230    6.3030   -1.0260 C.3       1 GHY         0.0214
      5 C17        10.0900    6.7810   -0.3140 C.ar      1 GHY        -0.0386
      6 C22        11.0940    5.8310   -0.1050 C.ar      1 GHY        -0.0601
      7 C21        12.2790    6.1750    0.5580 C.ar      1 GHY        -0.0686
      8 C20        12.4730    7.4830    1.0210 C.ar      1 GHY        -0.0687
      9 C19        11.4850    8.4440    0.8200 C.ar      1 GHY        -0.0686
     10 C18        10.3110    8.0960    0.1530 C.ar      1 GHY        -0.0601
     11 N13         6.5160    7.2010   -0.2420 N.am      1 GHY        -0.2394
     12 C12         5.8590    6.1190    0.2000 C.2       1 GHY         0.3222
     13 O11         4.7240    6.3560    1.1080 O.3       1 GHY        -0.2611
     14 C10         4.6810    5.5990    2.3280 C.3       1 GHY         0.0826
     15 C1          4.3540    4.1310    2.0350 C.3       1 GHY        -0.0346
     16 C5          3.6520    6.2350    3.2710 C.3       1 GHY        -0.0346
     17 O14         6.1460    4.9730   -0.1220 O.2       1 GHY        -0.3774
     18 N24         6.9450    8.0190   -3.3310 N.am      1 GHY        -0.2797
     19 C26         6.3180    7.7160   -4.6180 C.3       1 GHY         0.0656
     20 C27         7.3600    8.0600   -5.7310 C.3       1 GHY         0.0671
     21 O28         8.4860    7.5270   -5.3170 O.3       1 GHY        -0.3927
     22 C29         5.0180    8.5740   -4.6260 C.3       1 GHY        -0.0172
     23 C30         4.0090    8.5500   -3.4480 C.3       1 GHY         0.0351
     24 C31         3.0660    7.3460   -3.3660 C.3       1 GHY        -0.0021
     25 C32         1.6720    7.8500   -2.9320 C.3       1 GHY        -0.0306
     26 N33         1.8800    9.2840   -2.9870 N.4       1 GHY         0.2492
     27 C34         2.9600    9.6390   -3.5550 C.3       1 GHY         0.0834
     28 O1          3.0470   10.7910   -4.2360 O.3       1 GHY        -0.3528
     29 H1          8.0839    8.3254   -1.1135 H         1 GHY         0.0823
     30 H2          9.1158    5.9785   -2.0354 H         1 GHY         0.0474
     31 H3          8.4342    5.4421   -0.4624 H         1 GHY         0.0474
     32 H4         10.9539    4.8164   -0.4601 H         1 GHY         0.0557
     33 H5         13.0481    5.4271    0.7133 H         1 GHY         0.0599
     34 H6         13.3904    7.7467    1.5348 H         1 GHY         0.0559
     35 H7         11.6279    9.4565    1.1800 H         1 GHY         0.0599
     36 H8          9.5509    8.8513   -0.0109 H         1 GHY         0.0557
     37 H9          6.1805    8.0727    0.1152 H         1 GHY         0.1901
     38 H10         5.6697    5.6426    2.8081 H         1 GHY         0.0642
     39 H11         4.3250    3.5664    2.9786 H         1 GHY         0.0258
     40 H12         5.1275    3.7071    1.3778 H         1 GHY         0.0258
     41 H13         3.3747    4.0655    1.5384 H         1 GHY         0.0258
     42 H14         3.6113    5.6622    4.2092 H         1 GHY         0.0258
     43 H15         2.6615    6.2260    2.7927 H         1 GHY         0.0258
     44 H16         3.9453    7.2728    3.4875 H         1 GHY         0.0258
     45 H17         7.2466    8.9439   -3.0996 H         1 GHY         0.1855
     46 H18         6.0548    6.6505   -4.6919 H         1 GHY         0.0579
     47 H19         7.4647    9.1496   -5.8395 H         1 GHY         0.0580
     48 H20         7.0562    7.6231   -6.6937 H         1 GHY         0.0580
     49 H21         8.7266    7.9077   -4.4805 H         1 GHY         0.2095
     50 H22         4.4542    8.2701   -5.5203 H         1 GHY         0.0294
     51 H23         5.3404    9.6202   -4.7337 H         1 GHY         0.0294
     52 H24         4.5861    8.6451   -2.5164 H         1 GHY         0.0384
     53 H25         3.4470    6.6248   -2.6280 H         1 GHY         0.0322
     54 H26         2.9960    6.8607   -4.3507 H         1 GHY         0.0322
     55 H27         1.4176    7.5154   -1.9155 H         1 GHY         0.0815
     56 H28         0.8873    7.5265   -3.6317 H         1 GHY         0.0815
     57 H29         1.8902    9.6370   -2.0429 H         1 GHY         0.2041
     58 H30         1.1097    9.6947   -3.4910 H         1 GHY         0.2041
     59 H31         3.3393   10.1448   -2.6549 H         1 GHY         0.1186
     60 H32         2.8591   11.5172   -3.6530 H         1 GHY         0.2154
@<TRIPOS>BOND
     1    1    2 2  
     2    2    3 1  
     3    2   18 am 
     4    3    4 1  
     5    3   11 1  
     6    4    5 1  
     7    5    6 ar 
     8    5   10 ar 
     9    6    7 ar 
    10    7    8 ar 
    11    8    9 ar 
    12    9   10 ar 
    13   11   12 am 
    14   12   13 1  
    15   12   17 2  
    16   13   14 1  
    17   14   15 1  
    18   14   16 1  
    19   18   19 1  
    20   19   20 1  
    21   19   22 1  
    22   20   21 1  
    23   22   23 1  
    24   23   24 1  
    25   23   27 1  
    26   24   25 1  
    27   25   26 1  
    28   26   27 1  
    29   27   28 1  
    30    3   29 1  
    31    4   30 1  
    32    4   31 1  
    33    6   32 1  
    34    7   33 1  
    35    8   34 1  
    36    9   35 1  
    37   10   36 1  
    38   11   37 1  
    39   14   38 1  
    40   15   39 1  
    41   15   40 1  
    42   15   41 1  
    43   16   42 1  
    44   16   43 1  
    45   16   44 1  
    46   18   45 1  
    47   19   46 1  
    48   20   47 1  
    49   20   48 1  
    50   21   49 1  
    51   22   50 1  
    52   22   51 1  
    53   23   52 1  
    54   24   53 1  
    55   24   54 1  
    56   25   55 1  
    57   25   56 1  
    58   26   57 1  
    59   26   58 1  
    60   27   59 1  
    61   28   60 1  
@<TRIPOS>SUBSTRUCTURE
     1 GHY         1

