### 
### Created by X-TOOL on Mon Sep 10 21:13:29 2018
### 

@<TRIPOS>MOLECULE
5c20_ligand
   60    61     1     0     0
SMALL
GAST_HUCK


@<TRIPOS>ATOM
      1 O25        -6.9810    5.6410    2.0910 O.2       1 GHZ        -0.3944
      2 C23        -7.3260    6.8080    1.9940 C.2       1 GHZ         0.2040
      3 C15        -8.0020    7.1250    0.7120 C.3       1 GHZ         0.1421
      4 C16        -9.2510    6.2330    0.7080 C.3       1 GHZ         0.0214
      5 C17       -10.4210    6.8780    0.0130 C.ar      1 GHZ        -0.0386
      6 C22       -10.4630    8.2590   -0.1930 C.ar      1 GHZ        -0.0601
      7 C21       -11.5610    8.8340   -0.8430 C.ar      1 GHZ        -0.0686
      8 C20       -12.6190    8.0420   -1.2890 C.ar      1 GHZ        -0.0687
      9 C19       -12.5790    6.6620   -1.0770 C.ar      1 GHZ        -0.0686
     10 C18       -11.4830    6.0780   -0.4260 C.ar      1 GHZ        -0.0601
     11 N13        -7.2720    6.7350   -0.4950 N.am      1 GHZ        -0.2394
     12 C12        -6.0130    7.0740   -0.8510 C.2       1 GHZ         0.3219
     13 O11        -5.5240    6.5360   -2.1400 O.3       1 GHZ        -0.2636
     14 C10        -4.2550    6.8420   -2.7570 C.3       1 GHZ         0.0796
     15 C1         -4.4540    7.7580   -3.9840 C.3       1 GHZ        -0.0189
     16 O14        -5.2670    7.7940   -0.1750 O.2       1 GHZ        -0.3774
     17 N24        -7.1740    7.7350    2.8740 N.am      1 GHZ        -0.2795
     18 C26        -6.5410    7.4900    4.1850 C.3       1 GHZ         0.0674
     19 C27        -7.7050    7.6490    5.1870 C.3       1 GHZ         0.0673
     20 O28        -7.3330    7.0330    6.4140 O.3       1 GHZ        -0.3927
     21 C29        -5.2890    8.3810    4.3770 C.3       1 GHZ        -0.0079
     22 C30        -4.3110    8.3270    3.1770 C.3       1 GHZ         0.0526
     23 C31        -3.4150    7.0750    3.1740 C.3       1 GHZ        -0.0129
     24 C32        -1.9690    7.5350    3.2260 C.3       1 GHZ         0.0332
     25 N33        -2.1320    8.9680    3.2800 N.am      1 GHZ        -0.2866
     26 C34        -3.3000    9.4270    3.2790 C.2       1 GHZ         0.1792
     27 O1         -3.5780   10.7290    3.3530 O.2       1 GHZ        -0.3968
     28 C2         -3.9200    9.1620   -3.7110 C.3       1 GHZ        -0.0603
     29 C3         -3.8460    7.2150   -5.2820 C.3       1 GHZ        -0.0603
     30 H1         -8.2525    8.1953    0.6721 H         1 GHZ         0.0823
     31 H2         -9.5342    6.0186    1.7491 H         1 GHZ         0.0474
     32 H3         -9.0101    5.2918    0.1922 H         1 GHZ         0.0474
     33 H4         -9.6466    8.8842    0.1500 H         1 GHZ         0.0557
     34 H5        -11.5895    9.9060   -1.0015 H         1 GHZ         0.0599
     35 H6        -13.4645    8.4933   -1.7955 H         1 GHZ         0.0559
     36 H7        -13.3988    6.0398   -1.4172 H         1 GHZ         0.0599
     37 H8        -11.4579    5.0067   -0.2625 H         1 GHZ         0.0557
     38 H9         -7.7651    6.1455   -1.1347 H         1 GHZ         0.1901
     39 H10        -3.7744    5.9063   -3.0787 H         1 GHZ         0.0614
     40 H11        -3.6111    7.3523   -2.0256 H         1 GHZ         0.0614
     41 H12        -5.5389    7.8394   -4.1466 H         1 GHZ         0.0321
     42 H13        -7.4973    8.6571    2.6613 H         1 GHZ         0.1855
     43 H14        -6.1931    6.4476    4.2327 H         1 GHZ         0.0580
     44 H15        -8.6075    7.1637    4.7871 H         1 GHZ         0.0580
     45 H16        -7.9068    8.7173    5.3546 H         1 GHZ         0.0580
     46 H17        -8.0415    7.1238    7.0402 H         1 GHZ         0.2095
     47 H18        -4.7554    8.0445    5.2781 H         1 GHZ         0.0315
     48 H19        -5.6182    9.4217    4.5129 H         1 GHZ         0.0315
     49 H20        -4.8858    8.3965    2.2417 H         1 GHZ         0.0539
     50 H21        -3.5892    6.4931    2.2569 H         1 GHZ         0.0312
     51 H22        -3.6406    6.4520    4.0520 H         1 GHZ         0.0312
     52 H23        -1.4152    7.2260    2.3272 H         1 GHZ         0.0521
     53 H24        -1.4567    7.1537    4.1216 H         1 GHZ         0.0521
     54 H25        -1.3390    9.5761    3.3171 H         1 GHZ         0.1851
     55 H26        -4.0742    9.7921   -4.5994 H         1 GHZ         0.0233
     56 H27        -2.8455    9.1076   -3.4821 H         1 GHZ         0.0233
     57 H28        -4.4556    9.5980   -2.8549 H         1 GHZ         0.0233
     58 H29        -4.2340    6.2037   -5.4736 H         1 GHZ         0.0233
     59 H30        -2.7510    7.1753   -5.1855 H         1 GHZ         0.0233
     60 H31        -4.1167    7.8762   -6.1184 H         1 GHZ         0.0233
@<TRIPOS>BOND
     1    1    2 2  
     2    2    3 1  
     3    2   17 am 
     4    3    4 1  
     5    3   11 1  
     6    4    5 1  
     7    5    6 ar 
     8    5   10 ar 
     9    6    7 ar 
    10    7    8 ar 
    11    8    9 ar 
    12    9   10 ar 
    13   11   12 am 
    14   12   13 1  
    15   12   16 2  
    16   13   14 1  
    17   14   15 1  
    18   15   28 1  
    19   15   29 1  
    20   17   18 1  
    21   18   19 1  
    22   18   21 1  
    23   19   20 1  
    24   21   22 1  
    25   22   23 1  
    26   22   26 1  
    27   23   24 1  
    28   24   25 1  
    29   25   26 am 
    30   26   27 2  
    31    3   30 1  
    32    4   31 1  
    33    4   32 1  
    34    6   33 1  
    35    7   34 1  
    36    8   35 1  
    37    9   36 1  
    38   10   37 1  
    39   11   38 1  
    40   14   39 1  
    41   14   40 1  
    42   15   41 1  
    43   17   42 1  
    44   18   43 1  
    45   19   44 1  
    46   19   45 1  
    47   20   46 1  
    48   21   47 1  
    49   21   48 1  
    50   22   49 1  
    51   23   50 1  
    52   23   51 1  
    53   24   52 1  
    54   24   53 1  
    55   25   54 1  
    56   28   55 1  
    57   28   56 1  
    58   28   57 1  
    59   29   58 1  
    60   29   59 1  
    61   29   60 1  
@<TRIPOS>SUBSTRUCTURE
     1 GHZ         1

