### 
### Created by X-TOOL on Mon Sep 10 21:13:23 2018
### 

@<TRIPOS>MOLECULE
5c26_ligand
   48    51     1     0     0
SMALL
GAST_HUCK


@<TRIPOS>ATOM
      1 N2         -1.8760    0.2660  -13.7480 N.2       1 50H        -0.2879
      2 C6         -4.0070    1.3430  -13.4920 C.2       1 50H         0.0893
      3 C9         -2.9260    5.1040  -10.0380 C.2       1 50H         0.2020
      4 C13        -2.8380    3.1440  -11.5770 C.ar      1 50H        -0.0367
      5 C20         1.8300   -2.8830  -15.9950 C.ar      1 50H        -0.0503
      6 C18         2.6500   -2.0880  -15.2110 C.ar      1 50H         0.1079
      7 C16         2.1080   -1.0520  -14.4680 C.ar      1 50H         0.1108
      8 C26        -1.0060    3.5970  -10.0670 C.ar      1 50H        -0.0443
      9 C27        -0.3450    2.4900  -10.5500 C.ar      1 50H        -0.0583
     10 C25        -0.9350    1.7200  -11.5360 C.ar      1 50H        -0.0526
     11 C22         0.4720   -2.6220  -16.0430 C.ar      1 50H        -0.0578
     12 C15         0.7440   -0.8040  -14.5260 C.ar      1 50H        -0.0179
     13 C12        -5.5230   -0.4430  -16.1050 C.2       1 50H        -0.0212
     14 C14        -5.6850    0.4970  -15.1120 C.2       1 50H         0.0564
     15 C10        -2.1720    2.0290  -12.0650 C.ar      1 50H        -0.0084
     16 C11        -2.2500    3.9090  -10.5770 C.ar      1 50H         0.0478
     17 C17        -0.0910   -1.5880  -15.3100 C.ar      1 50H         0.0447
     18 C3         -3.6330   -0.3110  -15.1450 C.2       1 50H         0.2028
     19 C5         -2.7270    1.1750  -13.1310 C.2       1 50H         0.0568
     20 C1         -2.2750   -0.4710  -14.7510 C.2       1 50H         0.1836
     21 C29         4.6030   -2.8320  -16.2930 C.3       1 50H         0.0545
     22 C28         2.3050    0.5840  -12.8090 C.3       1 50H         0.0567
     23 N7         -4.2400   -0.9420  -16.1250 N.2       1 50H        -0.3242
     24 N4         -4.4640    0.5610  -14.5110 N.pl3     1 50H        -0.2041
     25 N21        -4.2970    5.0980  -10.1370 N.am      1 50H        -0.3001
     26 N8         -1.4880   -1.3990  -15.4240 N.pl3     1 50H        -0.2577
     27 O19        -2.2630    6.0070   -9.5450 O.2       1 50H        -0.3848
     28 O24         4.0310   -2.3040  -15.0950 O.3       1 50H        -0.3322
     29 O23         2.9970   -0.2890  -13.7000 O.3       1 50H        -0.3275
     30 H1         -4.6501    2.0683  -12.9958 H         1 50H         0.1098
     31 H2         -3.8097    3.4163  -11.9728 H         1 50H         0.0657
     32 H3          2.2490   -3.7033  -16.5665 H         1 50H         0.0484
     33 H4         -0.5562    4.2142   -9.2978 H         1 50H         0.0649
     34 H5          0.6309    2.2238  -10.1603 H         1 50H         0.0622
     35 H6         -0.4095    0.8466  -11.9049 H         1 50H         0.0637
     36 H7         -0.1652   -3.2386  -16.6666 H         1 50H         0.0418
     37 H8          0.3246    0.0136  -13.9509 H         1 50H         0.0430
     38 H9         -6.3114   -0.7531  -16.7892 H         1 50H         0.0510
     39 H10        -6.5834    1.0603  -14.8639 H         1 50H         0.0851
     40 H11         5.6831   -2.9820  -16.1484 H         1 50H         0.0569
     41 H12         4.4384   -2.1258  -17.1201 H         1 50H         0.0569
     42 H13         4.1280   -3.7947  -16.5328 H         1 50H         0.0569
     43 H14         3.0340    1.1647  -12.2248 H         1 50H         0.0573
     44 H15         1.6783   -0.0095  -12.1272 H         1 50H         0.0573
     45 H16         1.6692    1.2700  -13.3879 H         1 50H         0.0573
     46 H17        -4.8265    5.8737   -9.7935 H         1 50H         0.1808
     47 H18        -4.7649    4.3180  -10.5525 H         1 50H         0.1808
     48 H19        -1.9794   -2.0209  -16.0818 H         1 50H         0.2134
@<TRIPOS>BOND
     1    1   19 1  
     2   20    1 2  
     3   19    2 2  
     4   24    2 1  
     5   16    3 1  
     6    3   25 am 
     7    3   27 2  
     8   15    4 ar 
     9    4   16 ar 
    10    5    6 ar 
    11   11    5 ar 
    12    7    6 ar 
    13    6   28 1  
    14   12    7 ar 
    15    7   29 1  
    16    9    8 ar 
    17   16    8 ar 
    18   10    9 ar 
    19   15   10 ar 
    20   17   11 ar 
    21   17   12 ar 
    22   14   13 2  
    23   23   13 1  
    24   24   14 1  
    25   19   15 1  
    26   26   17 1  
    27   20   18 1  
    28   18   23 2  
    29   18   24 1  
    30   20   26 1  
    31   28   21 1  
    32   29   22 1  
    33    2   30 1  
    34    4   31 1  
    35    5   32 1  
    36    8   33 1  
    37    9   34 1  
    38   10   35 1  
    39   11   36 1  
    40   12   37 1  
    41   13   38 1  
    42   14   39 1  
    43   21   40 1  
    44   21   41 1  
    45   21   42 1  
    46   22   43 1  
    47   22   44 1  
    48   22   45 1  
    49   25   46 1  
    50   25   47 1  
    51   26   48 1  
@<TRIPOS>SUBSTRUCTURE
     1 50H         1

