### 
### Created by X-TOOL on Mon Sep 10 21:13:25 2018
### 

@<TRIPOS>MOLECULE
5c29_ligand
   31    32     1     0     0
SMALL
GAST_HUCK


@<TRIPOS>ATOM
      1 C3          4.8620   12.5830   43.4110 C.ar      1 4XY         0.1202
      2 C5          4.5790   14.4130   40.1590 C.3       1 4XY         0.0200
      3 C7          4.9200   15.8480   39.7370 C.3       1 4XY        -0.0336
      4 C9          8.5560   10.5320   42.1220 C.3       1 4XY        -0.0634
      5 C10         7.5880   11.1960   43.1000 C.3       1 4XY        -0.0356
      6 C11         6.2090   10.5290   43.0670 C.3       1 4XY         0.0275
      7 C           3.6910   14.5570   43.7410 C.ar      1 4XY         0.1127
      8 N           3.7470   14.9190   42.4540 N.ar      1 4XY        -0.2776
      9 C1          4.4260   14.0960   41.6270 C.ar      1 4XY         0.0791
     10 N2          4.9680   12.9440   42.0950 N.ar      1 4XY        -0.2646
     11 C4          4.1960   13.4030   44.3420 C.ar      1 4XY         0.0318
     12 C6          3.5350   15.2710   39.4330 C.3       1 4XY        -0.0336
     13 C8          4.0380   13.0760   45.8210 C.3       1 4XY        -0.0275
     14 CL          2.8110   15.7030   44.6720 Cl        1 4XY        -0.0426
     15 N12         5.4140   11.4470   43.8980 N.pl3     1 4XY        -0.3058
     16 H1          5.0398   13.5577   39.6432 H         1 4XY         0.0519
     17 H2          5.6333   16.0257   38.9187 H         1 4XY         0.0297
     18 H3          5.0334   16.6330   40.4992 H         1 4XY         0.0297
     19 H4          9.5324   11.0360   42.1734 H         1 4XY         0.0230
     20 H5          8.1563   10.6105   41.1002 H         1 4XY         0.0230
     21 H6          8.6764    9.4715   42.3882 H         1 4XY         0.0230
     22 H7          7.4783   12.2566   42.8295 H         1 4XY         0.0282
     23 H8          7.9984   11.1176   44.1175 H         1 4XY         0.0282
     24 H9          6.2412    9.5196   43.5029 H         1 4XY         0.0520
     25 H10         5.8149   10.4732   42.0415 H         1 4XY         0.0520
     26 H11         2.6536   15.6416   39.9768 H         1 4XY         0.0297
     27 H12         3.2535   15.0343   38.3963 H         1 4XY         0.0297
     28 H13         4.5246   12.1136   46.0377 H         1 4XY         0.0369
     29 H14         2.9685   13.0103   46.0698 H         1 4XY         0.0369
     30 H15         4.5068   13.8678   46.4237 H         1 4XY         0.0369
     31 H16         5.2716   11.2156   44.8915 H         1 4XY         0.1822
@<TRIPOS>BOND
     1    1   10 ar 
     2   11    1 ar 
     3    1   15 1  
     4    2    3 1  
     5    9    2 1  
     6    2   12 1  
     7   12    3 1  
     8    5    4 1  
     9    6    5 1  
    10   15    6 1  
    11    8    7 ar 
    12    7   11 ar 
    13    7   14 1  
    14    8    9 ar 
    15    9   10 ar 
    16   11   13 1  
    17    2   16 1  
    18    3   17 1  
    19    3   18 1  
    20    4   19 1  
    21    4   20 1  
    22    4   21 1  
    23    5   22 1  
    24    5   23 1  
    25    6   24 1  
    26    6   25 1  
    27   12   26 1  
    28   12   27 1  
    29   13   28 1  
    30   13   29 1  
    31   13   30 1  
    32   15   31 1  
@<TRIPOS>SUBSTRUCTURE
     1 4XY         1

