### 
### Created by X-TOOL on Mon Sep 10 21:13:24 2018
### 

@<TRIPOS>MOLECULE
5c2a_ligand
   37    39     1     0     0
SMALL
GAST_HUCK


@<TRIPOS>ATOM
      1 C3          4.5140   12.2570   45.1750 C.ar      1 4Y2         0.1218
      2 C5          3.6290   12.8260   47.4960 C.3       1 4Y2        -0.0275
      3 C7          3.1230   14.7470   41.2580 C.3       1 4Y2        -0.0336
      4 C9          9.2790   11.9070   44.1990 C.2       1 4Y2         0.0778
      5 C11         8.1100   10.0960   43.6450 C.2       1 4Y2        -0.0193
      6 C12         7.1680   10.7400   44.4120 C.2       1 4Y2         0.0379
      7 C13        10.4180   12.8460   44.2500 C.3       1 4Y2         0.0016
      8 C15         5.7980   10.2970   44.7440 C.3       1 4Y2         0.0629
      9 C           3.2800   14.2080   45.4590 C.ar      1 4Y2         0.1127
     10 N           3.3970   14.5210   44.1780 N.ar      1 4Y2        -0.2776
     11 S           7.8010   12.2300   45.0030 S.3       1 4Y2        -0.0120
     12 C1          4.0830   13.6760   43.4020 C.ar      1 4Y2         0.0791
     13 N2          4.6380   12.5490   43.8680 N.ar      1 4Y2        -0.2645
     14 C4          3.8230   13.0880   46.0350 C.ar      1 4Y2         0.0319
     15 C6          4.2210   14.0140   41.9740 C.3       1 4Y2         0.0200
     16 C8          4.4190   15.4380   41.5290 C.3       1 4Y2        -0.0336
     17 CL          2.3750   15.3630   46.3610 Cl        1 4Y2        -0.0426
     18 N10         9.2920   10.7760   43.5420 N.2       1 4Y2        -0.3328
     19 C14         7.9910    8.7940   42.9450 C.3       1 4Y2        -0.0413
     20 N16         5.0940   11.0930   45.7260 N.pl3     1 4Y2        -0.2966
     21 H1          4.1340   11.8881   47.7705 H         1 4Y2         0.0369
     22 H2          2.5541   12.7410   47.7137 H         1 4Y2         0.0369
     23 H3          4.0564   13.6563   48.0774 H         1 4Y2         0.0369
     24 H4          2.2163   15.0469   41.8038 H         1 4Y2         0.0297
     25 H5          2.8554   14.4658   40.2288 H         1 4Y2         0.0297
     26 H6         11.2564   12.4374   43.6667 H         1 4Y2         0.0468
     27 H7         10.7319   12.9853   45.2950 H         1 4Y2         0.0468
     28 H8         10.1141   13.8145   43.8262 H         1 4Y2         0.0468
     29 H9          5.8608    9.2679   45.1275 H         1 4Y2         0.0656
     30 H10         5.2070   10.3072   43.8163 H         1 4Y2         0.0656
     31 H11         4.7626   13.2041   41.4634 H         1 4Y2         0.0519
     32 H12         4.4661   16.2454   42.2746 H         1 4Y2         0.0297
     33 H13         5.1052   15.6643   40.6996 H         1 4Y2         0.0297
     34 H14         8.9325    8.5719   42.4213 H         1 4Y2         0.0328
     35 H15         7.1688    8.8434   42.2160 H         1 4Y2         0.0328
     36 H16         7.7836    8.0009   43.6785 H         1 4Y2         0.0328
     37 H17         5.0233   10.8378   46.7214 H         1 4Y2         0.1845
@<TRIPOS>BOND
     1   13    1 ar 
     2    1   14 ar 
     3    1   20 1  
     4   14    2 1  
     5   15    3 1  
     6    3   16 1  
     7    4    7 1  
     8   11    4 1  
     9    4   18 2  
    10    6    5 2  
    11    5   18 1  
    12    5   19 1  
    13    8    6 1  
    14    6   11 1  
    15   20    8 1  
    16   10    9 ar 
    17    9   14 ar 
    18    9   17 1  
    19   12   10 ar 
    20   12   13 ar 
    21   12   15 1  
    22   15   16 1  
    23    2   21 1  
    24    2   22 1  
    25    2   23 1  
    26    3   24 1  
    27    3   25 1  
    28    7   26 1  
    29    7   27 1  
    30    7   28 1  
    31    8   29 1  
    32    8   30 1  
    33   15   31 1  
    34   16   32 1  
    35   16   33 1  
    36   19   34 1  
    37   19   35 1  
    38   19   36 1  
    39   20   37 1  
@<TRIPOS>SUBSTRUCTURE
     1 4Y2         1

