### 
### Created by X-TOOL on Mon Sep 10 21:13:25 2018
### 

@<TRIPOS>MOLECULE
5c3k_ligand
   26    26     1     0     0
SMALL
GAST_HUCK


@<TRIPOS>ATOM
      1 C1        -15.6040  -21.4700   -0.8850 C.3       1 4XF        -0.0034
      2 C2        -15.8300  -19.9660   -0.9770 C.3       1 4XF         0.0688
      3 N4        -16.8570  -19.5420    0.0200 N.4       1 4XF         0.2382
      4 C8        -16.2780  -19.5540   -2.3780 C.2       1 4XF         0.2558
      5 O9        -17.4550  -19.2800   -2.6110 O.2       1 4XF        -0.3765
      6 C11       -15.3820  -19.3640   -4.7030 C.ar      1 4XF         0.1227
      7 C12       -16.5520  -19.1370   -5.4250 C.ar      1 4XF        -0.0283
      8 C13       -16.4720  -19.0060   -6.7920 C.ar      1 4XF        -0.0691
      9 C14       -15.2450  -19.1020   -7.4140 C.ar      1 4XF        -0.0340
     10 C15       -14.0830  -19.3340   -6.6380 C.ar      1 4XF         0.0892
     11 N10       -15.2990  -19.5200   -3.3100 N.am      1 4XF        -0.2166
     12 N16       -12.8760  -19.4350   -7.1840 N.pl3     1 4XF        -0.3258
     13 N17       -14.1810  -19.4610   -5.2850 N.ar      1 4XF        -0.2731
     14 H1        -14.8463  -21.7727   -1.6228 H         1 4XF         0.0310
     15 H2        -16.5477  -21.9959   -1.0918 H         1 4XF         0.0310
     16 H3        -15.2547  -21.7272    0.1259 H         1 4XF         0.0310
     17 H4        -14.8821  -19.4568   -0.7488 H         1 4XF         0.1101
     18 H5        -17.0001  -18.5465   -0.0477 H         1 4XF         0.2015
     19 H6        -16.5397  -19.7734    0.9484 H         1 4XF         0.2015
     20 H7        -17.7246  -20.0197   -0.1674 H         1 4XF         0.2015
     21 H8        -17.5078  -19.0650   -4.9187 H         1 4XF         0.0480
     22 H9        -17.3675  -18.8285   -7.3764 H         1 4XF         0.0652
     23 H10       -15.1702  -19.0005   -8.4906 H         1 4XF         0.0473
     24 H11       -14.3711  -19.6218   -2.9513 H         1 4XF         0.2311
     25 H12       -12.0535  -19.6041   -6.5876 H         1 4XF         0.1763
     26 H13       -12.7628  -19.3442   -8.2037 H         1 4XF         0.1763
@<TRIPOS>BOND
     1    2    1 1  
     2    2    3 1  
     3    4    2 1  
     4    4    5 2  
     5   11    4 am 
     6    6    7 ar 
     7    6   11 1  
     8    6   13 ar 
     9    7    8 ar 
    10    8    9 ar 
    11    9   10 ar 
    12   10   12 1  
    13   10   13 ar 
    14    1   14 1  
    15    1   15 1  
    16    1   16 1  
    17    2   17 1  
    18    3   18 1  
    19    3   19 1  
    20    3   20 1  
    21    7   21 1  
    22    8   22 1  
    23    9   23 1  
    24   11   24 1  
    25   12   25 1  
    26   12   26 1  
@<TRIPOS>SUBSTRUCTURE
     1 4XF         1

