### 
### Created by X-TOOL on Mon Sep 10 21:13:23 2018
### 

@<TRIPOS>MOLECULE
5c3p_ligand
   14    13     1     0     0
SMALL
GAST_HUCK


@<TRIPOS>ATOM
      1 C1         19.1520   18.6540   94.3030 C.2       1 AKG         0.1249
      2 O1         18.4440   18.0420   93.4730 O.co2     1 AKG        -0.5464
      3 O2         19.8560   18.0360   95.1380 O.co2     1 AKG        -0.5464
      4 C2         19.1540   20.1270   94.2700 C.2       1 AKG         0.1731
      5 O5         18.6620   20.7240   93.3130 O.2       1 AKG        -0.3576
      6 C3         19.7680   20.8950   95.4230 C.3       1 AKG         0.0423
      7 C4         19.3540   22.3630   95.4090 C.3       1 AKG         0.0164
      8 C5         19.8110   23.1100   96.6410 C.2       1 AKG         0.0371
      9 O3         19.2830   24.2180   96.8690 O.co2     1 AKG        -0.5688
     10 O4         20.7110   22.6390   97.3710 O.co2     1 AKG        -0.5688
     11 H1         20.8637   20.8332   95.3488 H         1 AKG         0.0516
     12 H2         19.4383   20.4410   96.3691 H         1 AKG         0.0516
     13 H3         18.2570   22.4187   95.3505 H         1 AKG         0.0456
     14 H4         19.7934   22.8441   94.5227 H         1 AKG         0.0456
@<TRIPOS>BOND
     1    1    2 ar 
     2    1    3 ar 
     3    1    4 1  
     4    4    5 2  
     5    4    6 1  
     6    6    7 1  
     7    7    8 1  
     8    8    9 ar 
     9    8   10 ar 
    10    6   11 1  
    11    6   12 1  
    12    7   13 1  
    13    7   14 1  
@<TRIPOS>SUBSTRUCTURE
     1 AKG         1

