### 
### Created by X-TOOL on Mon Sep 10 21:13:25 2018
### 

@<TRIPOS>MOLECULE
5c42_ligand
   45    48     1     0     0
SMALL
GAST_HUCK


@<TRIPOS>ATOM
      1 C10       497.0250  -24.4730   26.0140 C.2       1 29T        -0.0443
      2 C11       496.3820  -22.8030   27.4040 C.2       1 29T         0.0666
      3 C14       497.0660  -23.9860   27.3500 C.2       1 29T         0.0683
      4 C16       497.7590  -24.7000   28.4040 C.1       1 29T         0.0659
      5 C00       494.5860  -24.6430   19.7380 C.ar      1 29T        -0.0402
      6 C01       495.5740  -24.0590   18.9140 C.ar      1 29T        -0.0811
      7 C02       496.7790  -23.5910   19.4790 C.ar      1 29T        -0.0807
      8 C03       496.9990  -23.7060   20.8650 C.ar      1 29T        -0.0363
      9 C04       496.0110  -24.2920   21.6980 C.ar      1 29T         0.1460
     10 C05       494.7890  -24.7680   21.1460 C.ar      1 29T         0.1252
     11 O0A       496.2420  -24.3960   23.0510 O.3       1 29T        -0.2587
     12 C0C       495.8580  -23.3880   23.9080 C.2       1 29T         0.1431
     13 C0V       496.2810  -23.5310   25.2640 C.2       1 29T         0.1170
     14 N0W       495.8960  -22.5130   26.1350 N.pl3     1 29T        -0.2297
     15 C0X       495.1540  -21.4000   25.7960 C.2       1 29T         0.0602
     16 C0Y       494.7350  -21.2250   24.5260 C.2       1 29T        -0.0470
     17 C0Z       495.0880  -22.2330   23.5470 C.2       1 29T        -0.0380
     18 N19       498.3060  -25.2760   29.2430 N.1       1 29T        -0.3509
     19 O0B       493.8850  -25.3250   22.0320 O.3       1 29T        -0.3179
     20 C0D       492.5510  -25.6120   21.6700 C.3       1 29T         0.0959
     21 C0E       491.9360  -26.4880   22.7370 C.3       1 29T         0.0934
     22 N0H       492.6580  -27.7520   23.0350 N.am      1 29T        -0.1868
     23 C0K       492.6930  -28.8700   22.2200 C.2       1 29T         0.3306
     24 N0M       493.4180  -29.9250   22.6770 N.am      1 29T        -0.1866
     25 C0N       494.1180  -30.0250   23.8350 C.2       1 29T         0.1822
     26 C0O       494.0710  -28.8320   24.6810 C.2       1 29T         0.0061
     27 C0P       493.3600  -27.7480   24.2740 C.2       1 29T         0.0564
     28 O0Q       492.1200  -28.9630   21.1380 O.2       1 29T        -0.3815
     29 O0S       494.7350  -31.0470   24.1220 O.2       1 29T        -0.4124
     30 H1        497.4774  -25.3908   25.6413 H         1 29T         0.0254
     31 H2        496.2416  -22.1904   28.2933 H         1 29T         0.0874
     32 H3        493.6629  -25.0004   19.2962 H         1 29T         0.0511
     33 H4        495.4060  -23.9705   17.8468 H         1 29T         0.0501
     34 H5        497.5360  -23.1426   18.8457 H         1 29T         0.0497
     35 H6        497.9257  -23.3459   21.2969 H         1 29T         0.0520
     36 H7        494.9060  -20.6607   26.5562 H         1 29T         0.0999
     37 H8        494.1485  -20.3516   24.2447 H         1 29T         0.0507
     38 H9        494.7618  -22.1111   22.5152 H         1 29T         0.0437
     39 H10       492.5348  -26.1386   20.7044 H         1 29T         0.0637
     40 H11       491.9806  -24.6752   21.5864 H         1 29T         0.0637
     41 H12       490.9181  -26.7499   22.4126 H         1 29T         0.0643
     42 H13       491.8853  -25.9018   23.6664 H         1 29T         0.0643
     43 H14       493.4380  -30.7301   22.0842 H         1 29T         0.2259
     44 H15       494.6027  -28.8130   25.6312 H         1 29T         0.0258
     45 H16       493.3264  -26.8616   24.9057 H         1 29T         0.1177
@<TRIPOS>BOND
     1    1    3 1  
     2   13    1 2  
     3    3    2 2  
     4    2   14 1  
     5    3    4 1  
     6    4   18 3  
     7    5    6 ar 
     8   10    5 ar 
     9    7    6 ar 
    10    8    7 ar 
    11    9    8 ar 
    12    9   10 ar 
    13   11    9 1  
    14   10   19 1  
    15   12   11 1  
    16   12   13 1  
    17   12   17 2  
    18   13   14 1  
    19   14   15 1  
    20   15   16 2  
    21   16   17 1  
    22   19   20 1  
    23   20   21 1  
    24   21   22 1  
    25   22   23 am 
    26   22   27 1  
    27   23   24 am 
    28   23   28 2  
    29   24   25 am 
    30   25   26 1  
    31   25   29 2  
    32   26   27 2  
    33    1   30 1  
    34    2   31 1  
    35    5   32 1  
    36    6   33 1  
    37    7   34 1  
    38    8   35 1  
    39   15   36 1  
    40   16   37 1  
    41   17   38 1  
    42   20   39 1  
    43   20   40 1  
    44   21   41 1  
    45   21   42 1  
    46   24   43 1  
    47   26   44 1  
    48   27   45 1  
@<TRIPOS>SUBSTRUCTURE
     1 29T         1

