### 
### Created by X-TOOL on Mon Sep 10 21:13:26 2018
### 

@<TRIPOS>MOLECULE
5c4k_ligand
   78    80     1     0     0
SMALL
GAST_HUCK


@<TRIPOS>ATOM
      1 C11         0.9030    7.3810   29.1350 C.3       1 GET         0.2059
      2 O11         1.9240    7.1310   30.1000 O.3       1 GET        -0.3348
      3 C21         1.5180    7.3120   27.7340 C.3       1 GET         0.0567
      4 N21         2.4390    6.1780   27.6490 N.4       1 GET         0.2263
      5 C31         2.2330    8.6110   27.3520 C.3       1 GET         0.1304
      6 O31         2.5790    8.5520   25.9600 O.3       1 GET        -0.3834
      7 C41         1.4380    9.8920   27.6750 C.3       1 GET         0.1150
      8 O41         2.2720   11.0650   27.5000 O.3       1 GET        -0.3864
      9 C51         0.8880    9.8830   29.1110 C.3       1 GET         0.1158
     10 O51         0.2320    8.6370   29.4190 O.3       1 GET        -0.3378
     11 C61        -0.1130   11.0360   29.3190 C.3       1 GET         0.0811
     12 O61         0.5910   12.2840   29.2250 O.3       1 GET        -0.3894
     13 C71        -0.8680   10.9680   30.6520 C.3       1 GET        -0.0364
     14 C12         1.7380    6.3010   34.0580 C.3       1 GET         0.0104
     15 N12         1.6940    6.2660   35.5120 N.4       1 GET         0.2228
     16 C22         2.6230    7.5060   33.7360 C.3       1 GET         0.0381
     17 C32         2.8930    7.6250   32.2430 C.3       1 GET         0.0104
     18 N32         3.6300    8.8740   32.0150 N.4       1 GET         0.2228
     19 C42         1.5800    7.5350   31.4280 C.3       1 GET         0.1326
     20 C52         0.5150    6.5110   31.8610 C.3       1 GET         0.1181
     21 O52        -0.7560    6.8720   31.2990 O.3       1 GET        -0.3862
     22 C62         0.3420    6.3710   33.3730 C.3       1 GET         0.1325
     23 O62        -0.5390    5.2270   33.5980 O.3       1 GET        -0.3371
     24 C13        -1.9710    5.4820   33.6950 C.3       1 GET         0.1911
     25 C23        -2.6990    4.5770   34.7220 C.3       1 GET         0.1509
     26 O23        -1.8310    4.3730   35.8320 O.3       1 GET        -0.3812
     27 C33        -3.1560    3.1700   34.3020 C.3       1 GET         0.0397
     28 N33        -4.2500    2.7100   35.1680 N.4       1 GET         0.2310
     29 C93        -4.4800    1.3080   35.5250 C.3       1 GET        -0.0444
     30 C43        -3.5980    3.1150   32.8470 C.3       1 GET         0.1311
     31 O43        -4.9690    3.5670   32.8480 O.3       1 GET        -0.3809
     32 C83        -3.4700    1.6850   32.2980 C.3       1 GET        -0.0285
     33 C53        -2.7040    4.0050   31.9600 C.3       1 GET         0.0846
     34 O53        -2.6110    5.3610   32.4210 O.3       1 GET        -0.3455
     35 H1          0.1510    6.5817   29.2104 H         1 GET         0.0970
     36 H2          0.7031    7.1505   27.0130 H         1 GET         0.0927
     37 H3          2.8396    6.1390   26.7248 H         1 GET         0.2000
     38 H4          1.9377    5.3233   27.8342 H         1 GET         0.2000
     39 H5          3.1742    6.2905   28.3293 H         1 GET         0.2000
     40 H6          3.1655    8.6573   27.9336 H         1 GET         0.0679
     41 H7          3.0238    9.3537   25.7111 H         1 GET         0.2102
     42 H8          0.5897    9.9536   26.9775 H         1 GET         0.0648
     43 H9          1.7675   11.8440   27.7028 H         1 GET         0.2100
     44 H10         1.7317   10.0167   29.8040 H         1 GET         0.0650
     45 H11        -0.8567   10.9881   28.5099 H         1 GET         0.0617
     46 H12         0.9918   12.3563   28.3668 H         1 GET         0.2099
     47 H13        -1.5595   11.8203   30.7256 H         1 GET         0.0255
     48 H14        -0.1486   11.0066   31.4833 H         1 GET         0.0255
     49 H15        -1.4376   10.0283   30.7033 H         1 GET         0.0255
     50 H16         2.2303    5.3863   33.6963 H         1 GET         0.0878
     51 H17         2.6331    6.2214   35.8756 H         1 GET         0.1998
     52 H18         1.1782    5.4540   35.8131 H         1 GET         0.1998
     53 H19         1.2403    7.0984   35.8546 H         1 GET         0.1998
     54 H20         3.5818    7.3949   34.2636 H         1 GET         0.0377
     55 H21         2.1186    8.4207   34.0807 H         1 GET         0.0377
     56 H22         3.5340    6.7862   31.9340 H         1 GET         0.0878
     57 H23         3.8215    8.9762   31.0306 H         1 GET         0.1998
     58 H24         4.4988    8.8495   32.5255 H         1 GET         0.1998
     59 H25         3.0758    9.6539   32.3322 H         1 GET         0.1998
     60 H26         1.1196    8.5340   31.4234 H         1 GET         0.0681
     61 H27         0.8153    5.5304   31.4631 H         1 GET         0.0649
     62 H28        -1.4112    6.2387   31.5677 H         1 GET         0.2100
     63 H29        -0.1661    7.2666   33.7599 H         1 GET         0.0681
     64 H30        -2.0888    6.5221   34.0332 H         1 GET         0.0939
     65 H31        -3.5937    5.1267   35.0497 H         1 GET         0.0703
     66 H32        -1.0324    3.9528   35.5351 H         1 GET         0.2103
     67 H33        -2.3032    2.4863   34.4251 H         1 GET         0.0907
     68 H34        -5.0994    3.0212   34.7233 H         1 GET         0.2015
     69 H35        -4.1299    3.1979   36.0418 H         1 GET         0.2015
     70 H36        -5.3598    1.2364   36.1814 H         1 GET         0.0777
     71 H37        -3.5976    0.9138   36.0503 H         1 GET         0.0777
     72 H38        -4.6555    0.7210   34.6114 H         1 GET         0.0777
     73 H39        -5.3057    3.5555   31.9597 H         1 GET         0.2105
     74 H40        -3.7936    1.6655   31.2468 H         1 GET         0.0260
     75 H41        -4.1033    1.0072   32.8892 H         1 GET         0.0260
     76 H42        -2.4216    1.3590   32.3650 H         1 GET         0.0260
     77 H43        -3.1195    4.0110   30.9415 H         1 GET         0.0591
     78 H44        -1.6924    3.5734   31.9408 H         1 GET         0.0591
@<TRIPOS>BOND
     1    2    1 1  
     2    1    3 1  
     3    1   10 1  
     4   19    2 1  
     5    3    4 1  
     6    3    5 1  
     7    5    6 1  
     8    5    7 1  
     9    7    8 1  
    10    9    7 1  
    11   10    9 1  
    12    9   11 1  
    13   11   12 1  
    14   11   13 1  
    15   14   15 1  
    16   16   14 1  
    17   14   22 1  
    18   17   16 1  
    19   17   18 1  
    20   17   19 1  
    21   19   20 1  
    22   20   21 1  
    23   20   22 1  
    24   22   23 1  
    25   23   24 1  
    26   24   25 1  
    27   24   34 1  
    28   25   26 1  
    29   25   27 1  
    30   27   28 1  
    31   27   30 1  
    32   28   29 1  
    33   30   31 1  
    34   30   32 1  
    35   30   33 1  
    36   33   34 1  
    37    1   35 1  
    38    3   36 1  
    39    4   37 1  
    40    4   38 1  
    41    4   39 1  
    42    5   40 1  
    43    6   41 1  
    44    7   42 1  
    45    8   43 1  
    46    9   44 1  
    47   11   45 1  
    48   12   46 1  
    49   13   47 1  
    50   13   48 1  
    51   13   49 1  
    52   14   50 1  
    53   15   51 1  
    54   15   52 1  
    55   15   53 1  
    56   16   54 1  
    57   16   55 1  
    58   17   56 1  
    59   18   57 1  
    60   18   58 1  
    61   18   59 1  
    62   19   60 1  
    63   20   61 1  
    64   21   62 1  
    65   22   63 1  
    66   24   64 1  
    67   25   65 1  
    68   26   66 1  
    69   27   67 1  
    70   28   68 1  
    71   28   69 1  
    72   29   70 1  
    73   29   71 1  
    74   29   72 1  
    75   31   73 1  
    76   32   74 1  
    77   32   75 1  
    78   32   76 1  
    79   33   77 1  
    80   33   78 1  
@<TRIPOS>SUBSTRUCTURE
     1 GET         1

