### 
### Created by X-TOOL on Tue Oct 16 15:17:43 2018
### 

@<TRIPOS>MOLECULE
5c4l_ligand
   73    75     1     0     0
SMALL
GAST_HUCK


@<TRIPOS>ATOM
      1 C11         0.8600   -9.3870  108.6760 C.3       1 SIS         0.2121
      2 C12         0.9570   -5.7320  112.6710 C.3       1 SIS         0.0104
      3 C13        -2.4470   -4.9610  112.0500 C.3       1 SIS         0.1911
      4 C21         1.2380  -10.8580  108.3140 C.3       1 SIS         0.0452
      5 C22         2.2040   -5.8360  111.8250 C.3       1 SIS         0.0381
      6 C23        -3.1100   -4.2060  113.2130 C.3       1 SIS         0.1509
      7 C31         1.3860  -11.0960  106.8250 C.2       1 SIS        -0.0439
      8 C32         2.3510   -7.3020  111.3140 C.3       1 SIS         0.0104
      9 C33        -3.8700   -5.1510  114.1850 C.3       1 SIS         0.0397
     10 C41         1.0560   -9.9830  106.0240 C.2       1 SIS        -0.0598
     11 C42         1.1530   -7.6850  110.3980 C.3       1 SIS         0.1328
     12 C43        -4.7640   -6.2070  113.3890 C.3       1 SIS         0.1311
     13 C51         1.1540   -8.6970  106.5570 C.3       1 SIS         0.1192
     14 C52        -0.2090   -7.4160  111.1400 C.3       1 SIS         0.1181
     15 C53        -3.9460   -6.8460  112.2400 C.3       1 SIS         0.0846
     16 C61         0.9670   -7.5650  105.8070 C.3       1 SIS        -0.0018
     17 C62        -0.2650   -5.9720  111.7700 C.3       1 SIS         0.1325
     18 C83        -5.1950   -7.3570  114.3260 C.3       1 SIS        -0.0285
     19 C93        -4.4620   -4.8490  116.5340 C.3       1 SIS        -0.0444
     20 N12         0.8730   -4.4600  113.4220 N.4       1 SIS         0.2228
     21 N21         2.4670  -11.3260  109.0300 N.4       1 SIS         0.2342
     22 N32         3.6410   -7.5110  110.6130 N.4       1 SIS         0.2228
     23 N33        -4.6700   -4.3700  115.1660 N.4       1 SIS         0.2310
     24 N61         2.3550   -7.0610  105.5700 N.4       1 SIS         0.2217
     25 O11         1.2480   -9.0770  110.0180 O.3       1 SIS        -0.3333
     26 O23        -2.0830   -3.5330  113.9500 O.3       1 SIS        -0.3812
     27 O43        -5.9760   -5.5890  112.7940 O.3       1 SIS        -0.3809
     28 O51         1.5500   -8.4950  107.8590 O.3       1 SIS        -0.3268
     29 O52        -1.3810   -8.1680  110.4600 O.3       1 SIS        -0.3862
     30 O53        -3.3560   -5.8460  111.3970 O.3       1 SIS        -0.3455
     31 O62        -1.4310   -5.8300  112.5630 O.3       1 SIS        -0.3371
     32 H1         -0.2249   -9.2511  108.5553 H         1 SIS         0.0994
     33 H2          0.9891   -6.5411  113.4155 H         1 SIS         0.0878
     34 H3         -2.0277   -4.2387  111.3341 H         1 SIS         0.0939
     35 H4          0.4036  -11.4871  108.6574 H         1 SIS         0.1025
     36 H5          3.0829   -5.5663  112.4290 H         1 SIS         0.0377
     37 H6          2.1253   -5.1526  110.9667 H         1 SIS         0.0377
     38 H7         -3.8185   -3.4707  112.8039 H         1 SIS         0.0703
     39 H8          1.7189  -12.0456  106.4087 H         1 SIS         0.0508
     40 H9          2.3341   -7.9669  112.1901 H         1 SIS         0.0878
     41 H10        -3.1177   -5.7194  114.7515 H         1 SIS         0.0907
     42 H11         0.7267  -10.1263  104.9959 H         1 SIS         0.0479
     43 H12         1.1891   -7.0659  109.4895 H         1 SIS         0.0681
     44 H13         0.0921   -8.7217  106.8429 H         1 SIS         0.0776
     45 H14        -0.1073   -8.0153  112.0568 H         1 SIS         0.0649
     46 H15        -4.6130   -7.4766  111.6338 H         1 SIS         0.0591
     47 H16        -3.1470   -7.4665  112.6719 H         1 SIS         0.0591
     48 H17         0.3698   -6.8238  106.3583 H         1 SIS         0.0860
     49 H18         0.4688   -7.8030  104.8556 H         1 SIS         0.0860
     50 H19        -0.2769   -5.2267  110.9611 H         1 SIS         0.0681
     51 H20        -5.7820   -6.9485  115.1618 H         1 SIS         0.0260
     52 H21        -4.3015   -7.8642  114.7190 H         1 SIS         0.0260
     53 H22        -5.8084   -8.0771  113.7646 H         1 SIS         0.0260
     54 H23        -5.0681   -4.2490  117.2287 H         1 SIS         0.0777
     55 H24        -3.3986   -4.7530  116.7984 H         1 SIS         0.0777
     56 H25        -4.7631   -5.9048  116.6026 H         1 SIS         0.0777
     57 H26         1.6958   -4.3528  113.9943 H         1 SIS         0.1998
     58 H27         0.0540   -4.4701  114.0096 H         1 SIS         0.1998
     59 H28         0.8120   -3.6905  112.7738 H         1 SIS         0.1998
     60 H29         2.6690  -12.2771  108.7642 H         1 SIS         0.2010
     61 H30         2.3139  -11.2806  110.0253 H         1 SIS         0.2010
     62 H31         3.2455  -10.7354  108.7825 H         1 SIS         0.2010
     63 H32         4.4008   -7.2568  111.2247 H         1 SIS         0.1998
     64 H33         3.6701   -6.9373  109.7847 H         1 SIS         0.1998
     65 H34         3.7290   -8.4810  110.3532 H         1 SIS         0.1998
     66 H35        -5.6471   -4.4566  114.9341 H         1 SIS         0.2015
     67 H36        -4.3968   -3.4012  115.1136 H         1 SIS         0.2015
     68 H37         2.3168   -6.2183  105.0183 H         1 SIS         0.1997
     69 H38         2.8872   -7.7611  105.0775 H         1 SIS         0.1997
     70 H39         2.7965   -6.8638  106.4544 H         1 SIS         0.1997
     71 H40        -1.4849   -4.1743  114.3154 H         1 SIS         0.2103
     72 H41        -6.4960   -5.1890  113.4811 H         1 SIS         0.2105
     73 H42        -1.0810   -9.0203  110.1664 H         1 SIS         0.2100
@<TRIPOS>BOND
     1    1    4 1  
     2   25    1 1  
     3    1   28 1  
     4    2    5 1  
     5   17    2 1  
     6    2   20 1  
     7    3    6 1  
     8    3   30 1  
     9   31    3 1  
    10    4    7 1  
    11    4   21 1  
    12    5    8 1  
    13    6    9 1  
    14    6   26 1  
    15    7   10 2  
    16   11    8 1  
    17    8   22 1  
    18    9   12 1  
    19    9   23 1  
    20   13   10 1  
    21   14   11 1  
    22   11   25 1  
    23   15   12 1  
    24   12   18 1  
    25   12   27 1  
    26   13   16 1  
    27   28   13 1  
    28   17   14 1  
    29   14   29 1  
    30   30   15 1  
    31   16   24 1  
    32   17   31 1  
    33   23   19 1  
    34    1   32 1  
    35    2   33 1  
    36    3   34 1  
    37    4   35 1  
    38    5   36 1  
    39    5   37 1  
    40    6   38 1  
    41    7   39 1  
    42    8   40 1  
    43    9   41 1  
    44   10   42 1  
    45   11   43 1  
    46   13   44 1  
    47   14   45 1  
    48   15   46 1  
    49   15   47 1  
    50   16   48 1  
    51   16   49 1  
    52   17   50 1  
    53   18   51 1  
    54   18   52 1  
    55   18   53 1  
    56   19   54 1  
    57   19   55 1  
    58   19   56 1  
    59   20   57 1  
    60   20   58 1  
    61   20   59 1  
    62   21   60 1  
    63   21   61 1  
    64   21   62 1  
    65   22   63 1  
    66   22   64 1  
    67   22   65 1  
    68   23   66 1  
    69   23   67 1  
    70   24   68 1  
    71   24   69 1  
    72   24   70 1  
    73   26   71 1  
    74   27   72 1  
    75   29   73 1  
@<TRIPOS>SUBSTRUCTURE
     1 SIS         1

