### 
### Created by X-TOOL on Mon Sep 10 21:13:25 2018
### 

@<TRIPOS>MOLECULE
5c4o_ligand
   42    45     1     0     0
SMALL
GAST_HUCK


@<TRIPOS>ATOM
      1 N1        -37.9130   23.3410   30.7200 N.am      1 4F1        -0.0950
      2 C4        -35.3970   27.1850   34.4860 C.ar      1 4F1        -0.0498
      3 C5        -36.2430   26.6220   33.5430 C.ar      1 4F1        -0.0533
      4 C6        -35.9670   25.3690   32.9980 C.ar      1 4F1        -0.0112
      5 C7        -36.8230   24.8110   31.9120 C.2       1 4F1         0.0655
      6 C8        -38.3780   22.0560   30.4040 C.2       1 4F1         0.3119
      7 C10       -36.7000   20.3610   31.1960 C.ar      1 4F1         0.0904
      8 C13       -38.5440   19.1560   32.8710 C.ar      1 4F1        -0.0269
      9 C15       -40.3360   20.7800   32.2440 C.3       1 4F1         0.3787
     10 C17       -38.7460   24.8580   28.8410 C.ar      1 4F1        -0.0299
     11 C20       -37.3960   26.8370   30.3020 C.ar      1 4F1        -0.0660
     12 C21       -37.3970   25.5160   30.7600 C.ar      1 4F1         0.0186
     13 O2        -39.0390   21.8500   29.4020 O.2       1 4F1        -0.3339
     14 C9        -37.9860   20.8910   31.2800 C.ar      1 4F1         0.1125
     15 C14       -38.9210   20.2820   32.1430 C.ar      1 4F1         0.0674
     16 F2        -40.9340   20.4240   33.3600 F         1 4F1        -0.2202
     17 F1        -41.0780   20.3510   31.2340 F         1 4F1        -0.2202
     18 F         -40.4160   22.1130   32.2710 F         1 4F1        -0.2202
     19 C12       -37.2630   18.6330   32.7530 C.ar      1 4F1        -0.0278
     20 C11       -36.3340   19.2330   31.9170 C.ar      1 4F1        -0.0146
     21 CL        -35.5200   21.1380   30.1960 Cl        1 4F1        -0.0561
     22 N         -37.1390   23.5260   31.8780 N.2       1 4F1        -0.1651
     23 C16       -38.0810   24.5370   30.0240 C.ar      1 4F1         0.1269
     24 C19       -38.0600   27.1570   29.1260 C.ar      1 4F1        -0.0740
     25 C18       -38.7300   26.1750   28.4000 C.ar      1 4F1        -0.0715
     26 C3        -34.8320   24.6810   33.4390 C.ar      1 4F1        -0.0533
     27 C2        -33.9860   25.2420   34.3820 C.ar      1 4F1        -0.0498
     28 C1        -34.2520   26.5070   34.9150 C.ar      1 4F1         0.0076
     29 C         -33.3480   27.1290   35.9580 C.2       1 4F1         0.0612
     30 O         -33.6950   28.2380   36.4400 O.co2     1 4F1        -0.5614
     31 O1        -32.2900   26.5210   36.2770 O.co2     1 4F1        -0.5614
     32 H1        -35.6259   28.1622   34.8955 H         1 4F1         0.0644
     33 H2        -37.1282   27.1616   33.2262 H         1 4F1         0.0609
     34 H3        -39.2575   18.6833   33.5362 H         1 4F1         0.0869
     35 H4        -39.2662   24.0932   28.2756 H         1 4F1         0.0563
     36 H5        -36.8792   27.6075   30.8626 H         1 4F1         0.0581
     37 H6        -36.9877   17.7499   33.3182 H         1 4F1         0.0729
     38 H7        -35.3334   18.8259   31.8275 H         1 4F1         0.0870
     39 H8        -38.0572   28.1806   28.7692 H         1 4F1         0.0524
     40 H9        -39.2433   26.4409   27.4830 H         1 4F1         0.0567
     41 H10       -34.6118   23.6980   33.0386 H         1 4F1         0.0609
     42 H11       -33.1094   24.6949   34.7097 H         1 4F1         0.0644
@<TRIPOS>BOND
     1    6    1 am 
     2    1   22 1  
     3    1   23 1  
     4    3    2 ar 
     5    2   28 ar 
     6    4    3 ar 
     7    5    4 1  
     8    4   26 ar 
     9   12    5 1  
    10   22    5 2  
    11    6   13 2  
    12   14    6 1  
    13   14    7 ar 
    14    7   20 ar 
    15    7   21 1  
    16   15    8 ar 
    17    8   19 ar 
    18   15    9 1  
    19    9   16 1  
    20    9   17 1  
    21    9   18 1  
    22   23   10 ar 
    23   10   25 ar 
    24   12   11 ar 
    25   11   24 ar 
    26   23   12 ar 
    27   14   15 ar 
    28   19   20 ar 
    29   24   25 ar 
    30   26   27 ar 
    31   27   28 ar 
    32   28   29 1  
    33   29   30 ar 
    34   29   31 ar 
    35    2   32 1  
    36    3   33 1  
    37    8   34 1  
    38   10   35 1  
    39   11   36 1  
    40   19   37 1  
    41   20   38 1  
    42   24   39 1  
    43   25   40 1  
    44   26   41 1  
    45   27   42 1  
@<TRIPOS>SUBSTRUCTURE
     1 4F1         1

