### 
### Created by X-TOOL on Mon Sep 10 21:13:25 2018
### 

@<TRIPOS>MOLECULE
5c4s_ligand
   42    45     1     0     0
SMALL
GAST_HUCK


@<TRIPOS>ATOM
      1 C1        -38.9170   25.7350   28.7600 C.ar      1 4Y5        -0.0742
      2 C2        -38.9240   24.4490   29.2810 C.ar      1 4Y5        -0.0348
      3 C3        -38.2840   24.2000   30.4940 C.ar      1 4Y5         0.1247
      4 C4        -37.6100   25.2190   31.2040 C.ar      1 4Y5         0.0526
      5 C5        -37.6430   26.4850   30.6250 C.ar      1 4Y5         0.1301
      6 C6        -37.0840   24.5680   32.3880 C.2       1 4Y5         0.0656
      7 C7        -38.6160   21.7510   30.9790 C.2       1 4Y5         0.3108
      8 C11       -37.3780   18.4640   33.4730 C.ar      1 4Y5        -0.0278
      9 C12       -36.4830   19.0320   32.5780 C.ar      1 4Y5        -0.0147
     10 F4        -37.7400   26.9380   33.8050 F         1 4Y5        -0.1827
     11 C16       -36.5760   26.3260   34.1230 C.ar      1 4Y5         0.1420
     12 C17       -35.7630   26.9400   35.0440 C.ar      1 4Y5        -0.0156
     13 C18       -34.5640   26.3250   35.4040 C.ar      1 4Y5         0.0061
     14 C21       -33.6680   26.9920   36.4200 C.2       1 4Y5         0.0604
     15 O2        -34.0500   28.0940   36.8800 O.co2     1 4Y5        -0.5614
     16 O1        -32.5940   26.4230   36.7490 O.co2     1 4Y5        -0.5614
     17 C19       -34.2290   25.0930   34.8280 C.ar      1 4Y5        -0.0535
     18 C20       -35.0690   24.4950   33.9000 C.ar      1 4Y5        -0.0546
     19 C15       -36.2640   25.1190   33.5050 C.ar      1 4Y5         0.0229
     20 F         -37.0230   27.4960   31.2700 F         1 4Y5        -0.1852
     21 C         -38.2760   26.7660   29.4330 C.ar      1 4Y5        -0.0407
     22 N         -37.4070   23.2850   32.4150 N.2       1 4Y5        -0.1698
     23 N1        -38.1480   23.0470   31.2520 N.am      1 4Y5        -0.0982
     24 O         -39.3120   21.5230   29.9980 O.2       1 4Y5        -0.3345
     25 C8        -38.1840   20.6220   31.8890 C.ar      1 4Y5         0.1122
     26 C13       -36.8890   20.1140   31.8040 C.ar      1 4Y5         0.0904
     27 CL        -35.7450   20.8650   30.7390 Cl        1 4Y5        -0.0561
     28 C10       -38.6660   18.9670   33.5920 C.ar      1 4Y5        -0.0269
     29 C9        -39.0840   20.0410   32.8060 C.ar      1 4Y5         0.0674
     30 C14       -40.5000   20.5330   32.9300 C.3       1 4Y5         0.3787
     31 F1        -41.2570   20.1300   31.9230 F         1 4Y5        -0.2202
     32 F2        -40.5850   21.8770   32.9330 F         1 4Y5        -0.2202
     33 F3        -41.0850   20.1310   34.0430 F         1 4Y5        -0.2202
     34 H1        -39.4165   25.9363   27.8192 H         1 4Y5         0.0556
     35 H2        -39.4222   23.6460   28.7500 H         1 4Y5         0.0522
     36 H3        -37.0696   17.6225   34.0828 H         1 4Y5         0.0729
     37 H4        -35.4781   18.6368   32.4829 H         1 4Y5         0.0870
     38 H5        -36.0488   27.8883   35.4845 H         1 4Y5         0.0630
     39 H6        -33.3046   24.6022   35.1101 H         1 4Y5         0.0611
     40 H7        -34.8001   23.5349   33.4746 H         1 4Y5         0.0599
     41 H8        -38.2732   27.7720   29.0293 H         1 4Y5         0.0501
     42 H9        -39.3533   18.5214   34.3020 H         1 4Y5         0.0869
@<TRIPOS>BOND
     1    2    1 ar 
     2    1   21 ar 
     3    3    2 ar 
     4    3    4 ar 
     5   23    3 1  
     6    4    5 ar 
     7    6    4 1  
     8    5   20 1  
     9    5   21 ar 
    10    6   19 1  
    11   22    6 2  
    12    7   23 am 
    13    7   24 2  
    14   25    7 1  
    15    9    8 ar 
    16    8   28 ar 
    17   26    9 ar 
    18   11   10 1  
    19   11   12 ar 
    20   19   11 ar 
    21   12   13 ar 
    22   13   14 1  
    23   17   13 ar 
    24   14   15 ar 
    25   14   16 ar 
    26   18   17 ar 
    27   19   18 ar 
    28   23   22 1  
    29   25   26 ar 
    30   25   29 ar 
    31   26   27 1  
    32   28   29 ar 
    33   29   30 1  
    34   30   31 1  
    35   30   32 1  
    36   30   33 1  
    37    1   34 1  
    38    2   35 1  
    39    8   36 1  
    40    9   37 1  
    41   12   38 1  
    42   17   39 1  
    43   18   40 1  
    44   21   41 1  
    45   28   42 1  
@<TRIPOS>SUBSTRUCTURE
     1 4Y5         1

