### 
### Created by X-TOOL on Mon Sep 10 21:13:24 2018
### 

@<TRIPOS>MOLECULE
5c4t_ligand
   49    52     1     0     0
SMALL
GAST_HUCK


@<TRIPOS>ATOM
      1 F3        -38.5810   25.3130   31.0930 F         1 4Y6        -0.1852
      2 C         -39.1080   24.3260   30.3370 C.ar      1 4Y6         0.1296
      3 C5        -38.9830   23.0130   30.7860 C.ar      1 4Y6         0.0493
      4 C6        -38.4540   22.2810   31.9120 C.2       1 4Y6         0.0479
      5 C15       -37.7560   22.7820   33.0970 C.2       1 4Y6        -0.0476
      6 C20       -38.2070   23.8490   33.7480 C.2       1 4Y6        -0.0878
      7 C19       -37.5930   24.3930   35.0040 C.3       1 4Y6        -0.0237
      8 C18       -36.0860   24.0740   35.0870 C.3       1 4Y6         0.0220
      9 C22       -35.3100   24.9080   34.0520 C.3       1 4Y6        -0.0532
     10 C21       -35.5470   24.5260   36.4610 C.2       1 4Y6         0.0527
     11 O2        -34.3440   24.2860   36.6670 O.co2     1 4Y6        -0.5473
     12 O1        -36.3280   25.1040   37.2430 O.co2     1 4Y6        -0.5473
     13 C17       -35.8570   22.5620   34.8490 C.3       1 4Y6        -0.0346
     14 C16       -36.5340   22.0100   33.5700 C.3       1 4Y6        -0.0290
     15 N         -38.6770   20.9800   31.7690 N.2       1 4Y6        -0.1814
     16 N1        -39.3300   20.8130   30.5670 N.am      1 4Y6        -0.1037
     17 C4        -39.5430   22.0250   29.9390 C.ar      1 4Y6         0.1222
     18 C3        -40.1690   22.3450   28.7360 C.ar      1 4Y6        -0.0354
     19 C2        -40.2560   23.6750   28.3580 C.ar      1 4Y6        -0.0745
     20 C1        -39.7330   24.6770   29.1620 C.ar      1 4Y6        -0.0410
     21 C7        -39.6590   19.5160   30.1510 C.2       1 4Y6         0.3083
     22 O         -40.2300   19.3140   29.0900 O.2       1 4Y6        -0.3360
     23 C8        -39.2840   18.3590   31.0450 C.ar      1 4Y6         0.1116
     24 C13       -40.2610   17.6250   31.7530 C.ar      1 4Y6         0.0672
     25 C14       -41.7090   18.0360   31.7690 C.3       1 4Y6         0.3786
     26 F2        -42.3800   17.5130   32.7940 F         1 4Y6        -0.2203
     27 F1        -42.3510   17.6710   30.6740 F         1 4Y6        -0.2203
     28 F         -41.8760   19.3680   31.8420 F         1 4Y6        -0.2203
     29 C12       -39.8750   16.5040   32.4800 C.ar      1 4Y6        -0.0270
     30 C11       -38.5430   16.1170   32.5310 C.ar      1 4Y6        -0.0279
     31 C10       -37.5720   16.8540   31.8710 C.ar      1 4Y6        -0.0147
     32 C9        -37.9480   17.9740   31.1500 C.ar      1 4Y6         0.0903
     33 CL        -36.7070   18.9650   30.4580 Cl        1 4Y6        -0.0561
     34 H1        -39.0786   24.3616   33.3437 H         1 4Y6         0.0484
     35 H2        -38.1003   23.9457   35.8715 H         1 4Y6         0.0402
     36 H3        -37.7278   25.4845   35.0229 H         1 4Y6         0.0402
     37 H4        -34.2378   24.6722   34.1206 H         1 4Y6         0.0229
     38 H5        -35.4636   25.9783   34.2540 H         1 4Y6         0.0229
     39 H6        -35.6739   24.6695   33.0417 H         1 4Y6         0.0229
     40 H7        -36.2555   22.0125   35.7146 H         1 4Y6         0.0282
     41 H8        -34.7742   22.3856   34.7695 H         1 4Y6         0.0282
     42 H9        -35.7901   22.0214   32.7598 H         1 4Y6         0.0383
     43 H10       -36.8431   20.9733   33.7695 H         1 4Y6         0.0383
     44 H11       -40.5815   21.5655   28.1057 H         1 4Y6         0.0519
     45 H12       -40.7385   23.9356   27.4229 H         1 4Y6         0.0556
     46 H13       -39.8150   25.7178   28.8702 H         1 4Y6         0.0498
     47 H14       -40.6221   15.9265   33.0123 H         1 4Y6         0.0869
     48 H15       -38.2602   15.2327   33.0906 H         1 4Y6         0.0728
     49 H16       -36.5307   16.5567   31.9190 H         1 4Y6         0.0870
@<TRIPOS>BOND
     1    1    2 1  
     2    2    3 ar 
     3    2   20 ar 
     4    3    4 1  
     5    3   17 ar 
     6    4    5 1  
     7    4   15 2  
     8    5    6 2  
     9    5   14 1  
    10    6    7 1  
    11    7    8 1  
    12    8    9 1  
    13    8   10 1  
    14    8   13 1  
    15   10   11 ar 
    16   10   12 ar 
    17   13   14 1  
    18   15   16 1  
    19   16   17 1  
    20   16   21 am 
    21   17   18 ar 
    22   18   19 ar 
    23   19   20 ar 
    24   21   22 2  
    25   21   23 1  
    26   23   24 ar 
    27   23   32 ar 
    28   24   25 1  
    29   24   29 ar 
    30   25   26 1  
    31   25   27 1  
    32   25   28 1  
    33   29   30 ar 
    34   30   31 ar 
    35   31   32 ar 
    36   32   33 1  
    37    6   34 1  
    38    7   35 1  
    39    7   36 1  
    40    9   37 1  
    41    9   38 1  
    42    9   39 1  
    43   13   40 1  
    44   13   41 1  
    45   14   42 1  
    46   14   43 1  
    47   18   44 1  
    48   19   45 1  
    49   20   46 1  
    50   29   47 1  
    51   30   48 1  
    52   31   49 1  
@<TRIPOS>SUBSTRUCTURE
     1 4Y6         1

