### 
### Created by X-TOOL on Mon Sep 10 21:13:25 2018
### 

@<TRIPOS>MOLECULE
5c4u_ligand
   42    45     1     0     0
SMALL
GAST_HUCK


@<TRIPOS>ATOM
      1 C10       -37.2960   18.0950   33.4050 C.ar      1 4Y7        -0.0278
      2 C11       -38.5760   18.6070   33.5460 C.ar      1 4Y7        -0.0269
      3 C13       -40.3860   20.2270   33.0070 C.3       1 4Y7         0.3788
      4 C14       -35.9950   24.9060   33.4260 C.ar      1 4Y7         0.0165
      5 C17       -34.4800   26.0800   35.4810 C.ar      1 4Y7         0.0349
      6 F3        -34.5690   23.0510   33.5520 F         1 4Y7        -0.1917
      7 C15       -34.9670   24.2330   34.0590 C.ar      1 4Y7         0.1304
      8 C16       -34.2010   24.7890   35.0480 C.ar      1 4Y7        -0.0235
      9 C20       -33.5590   26.7710   36.4540 C.2       1 4Y7         0.0561
     10 O3        -32.4690   26.2150   36.7530 O.co2     1 4Y7        -0.5649
     11 O2        -33.8840   27.9130   36.8390 O.co2     1 4Y7        -0.5649
     12 C18       -35.5990   26.7430   34.9390 C.ar      1 4Y7         0.0967
     13 O1        -36.0370   27.9310   35.4120 O.3       1 4Y7        -0.3329
     14 C19       -36.3310   26.1710   33.9130 C.ar      1 4Y7        -0.0260
     15 C5        -36.8030   24.3200   32.3310 C.2       1 4Y7         0.0798
     16 C4        -37.6040   25.0150   31.3570 C.ar      1 4Y7         0.0843
     17 N         -37.6440   26.2980   30.9490 N.ar      1 4Y7        -0.3082
     18 C         -38.3480   26.5700   29.8370 C.ar      1 4Y7        -0.0030
     19 N1        -37.0160   23.0110   32.3290 N.2       1 4Y7        -0.1590
     20 N2        -37.9570   22.7930   31.3260 N.am      1 4Y7        -0.0868
     21 C3        -38.2930   23.9770   30.6890 C.ar      1 4Y7         0.1524
     22 C2        -39.0040   24.2900   29.5340 C.ar      1 4Y7        -0.0103
     23 C1        -39.0280   25.6090   29.1010 C.ar      1 4Y7        -0.0428
     24 C6        -38.4860   21.5150   31.0520 C.2       1 4Y7         0.3143
     25 O         -39.2290   21.3530   30.0960 O.2       1 4Y7        -0.3329
     26 C7        -38.0810   20.3350   31.9110 C.ar      1 4Y7         0.1129
     27 C12       -38.9830   19.7190   32.8080 C.ar      1 4Y7         0.0674
     28 F2        -40.4500   21.5580   33.0790 F         1 4Y7        -0.2202
     29 F1        -40.9450   19.7550   34.1200 F         1 4Y7        -0.2202
     30 F         -41.1920   19.8900   32.0160 F         1 4Y7        -0.2202
     31 C9        -36.3990   18.6910   32.5330 C.ar      1 4Y7        -0.0146
     32 C8        -36.7920   19.8080   31.8100 C.ar      1 4Y7         0.0905
     33 CL        -35.6210   20.5950   30.8090 Cl        1 4Y7        -0.0561
     34 H1        -36.9955   17.2256   33.9786 H         1 4Y7         0.0729
     35 H2        -39.2680   18.1389   34.2366 H         1 4Y7         0.0869
     36 H3        -33.3850   24.2280   35.4891 H         1 4Y7         0.0604
     37 H4        -35.3478   28.5789   35.3247 H         1 4Y7         0.2483
     38 H5        -37.1698   26.7079   33.4851 H         1 4Y7         0.0519
     39 H6        -38.3871   27.5980   29.4953 H         1 4Y7         0.0755
     40 H7        -39.5292   23.5183   28.9828 H         1 4Y7         0.0701
     41 H8        -39.5689   25.8840   28.2028 H         1 4Y7         0.0646
     42 H9        -35.3994   18.2882   32.4168 H         1 4Y7         0.0870
@<TRIPOS>BOND
     1    2    1 ar 
     2    1   31 ar 
     3   27    2 ar 
     4   27    3 1  
     5    3   28 1  
     6    3   29 1  
     7    3   30 1  
     8    4    7 ar 
     9    4   14 ar 
    10   15    4 1  
    11    8    5 ar 
    12    5    9 1  
    13   12    5 ar 
    14    7    6 1  
    15    7    8 ar 
    16    9   10 ar 
    17    9   11 ar 
    18   12   13 1  
    19   14   12 ar 
    20   16   15 1  
    21   19   15 2  
    22   16   17 ar 
    23   21   16 ar 
    24   17   18 ar 
    25   23   18 ar 
    26   20   19 1  
    27   20   21 1  
    28   24   20 am 
    29   21   22 ar 
    30   22   23 ar 
    31   24   25 2  
    32   26   24 1  
    33   26   27 ar 
    34   26   32 ar 
    35   31   32 ar 
    36   32   33 1  
    37    1   34 1  
    38    2   35 1  
    39    8   36 1  
    40   13   37 1  
    41   14   38 1  
    42   18   39 1  
    43   22   40 1  
    44   23   41 1  
    45   31   42 1  
@<TRIPOS>SUBSTRUCTURE
     1 4Y7         1

