### 
### Created by X-TOOL on Mon Sep 10 21:13:24 2018
### 

@<TRIPOS>MOLECULE
5c5h_ligand
   59    62     1     0     0
SMALL
GAST_HUCK


@<TRIPOS>ATOM
      1 C1         98.1610  -23.5510  -16.8210 C.ar      1 4YB         0.1613
      2 C2         97.2350  -23.8830  -17.7220 C.ar      1 4YB         0.1045
      3 C3         96.0030  -24.2160  -17.3210 C.ar      1 4YB         0.1298
      4 C4         99.0790  -23.4400  -18.7620 C.2       1 4YB         0.1123
      5 N1         95.6410  -24.2230  -16.0280 N.ar      1 4YB        -0.2698
      6 N2         97.8780  -23.5380  -15.5150 N.ar      1 4YB        -0.2714
      7 O1         97.7930  -22.7310  -28.0100 O.co2     1 4YB        -0.5594
      8 C5         97.7480  -22.7710  -26.7590 C.2       1 4YB         0.0668
      9 O2         97.9030  -23.8630  -26.1640 O.co2     1 4YB        -0.5594
     10 C6         97.4500  -21.6030  -26.0440 C.ar      1 4YB         0.0285
     11 C7         96.2030  -21.0380  -26.3110 C.ar      1 4YB        -0.0420
     12 C8         95.7950  -19.8690  -25.6660 C.ar      1 4YB        -0.0538
     13 C9         96.6280  -19.2590  -24.7410 C.ar      1 4YB        -0.0535
     14 C10        97.8690  -19.8200  -24.4600 C.ar      1 4YB        -0.0397
     15 C11        98.3010  -21.0000  -25.0940 C.ar      1 4YB         0.0464
     16 C12        99.5690  -21.5230  -24.7950 C.2       1 4YB         0.1376
     17 O3        100.2640  -22.0390  -25.6750 O.2       1 4YB        -0.3771
     18 C13       100.1020  -21.3660  -23.3500 C.3       1 4YB         0.0398
     19 C14       101.5600  -21.8020  -23.2680 C.3       1 4YB         0.0541
     20 C15       102.2240  -21.3720  -21.9400 C.2       1 4YB         0.1998
     21 O4        101.6330  -20.7550  -21.0610 O.2       1 4YB        -0.3952
     22 N3        103.4850  -21.7760  -21.8260 N.am      1 4YB        -0.1340
     23 S1        104.3240  -21.3210  -20.5560 S.o2      1 4YB         0.1858
     24 O5        104.4910  -19.8160  -20.6940 O.2       1 4YB        -0.1218
     25 O6        105.6790  -21.9790  -20.6340 O.2       1 4YB        -0.1218
     26 O7        103.6740  -21.6470  -19.2090 O.3       1 4YB        -0.2161
     27 C16       103.1880  -22.9490  -19.0370 C.3       1 4YB         0.1073
     28 C17       102.6190  -22.9640  -17.6400 C.3       1 4YB         0.1161
     29 O8        101.3960  -22.2150  -17.6640 O.3       1 4YB        -0.3367
     30 C18       102.1800  -24.3540  -17.3080 C.3       1 4YB         0.1146
     31 O9        103.3010  -25.0930  -16.8630 O.3       1 4YB        -0.3864
     32 C19       101.1980  -24.0780  -16.1840 C.3       1 4YB         0.1385
     33 O10       101.8970  -23.7060  -15.0120 O.3       1 4YB        -0.3836
     34 C20       100.4800  -22.8740  -16.7320 C.3       1 4YB         0.2010
     35 N4         99.2870  -23.2840  -17.4620 N.pl3     1 4YB        -0.1919
     36 N5         97.8050  -23.8160  -18.9290 N.2       1 4YB        -0.2958
     37 C21        96.6010  -23.8710  -15.0700 C.ar      1 4YB         0.0533
     38 N6         95.1290  -24.5340  -18.2580 N.pl3     1 4YB        -0.3152
     39 H1         99.8129  -23.2893  -19.5523 H         1 4YB         0.1349
     40 H2         95.5427  -21.5123  -27.0280 H         1 4YB         0.0664
     41 H3         94.8257  -19.4378  -25.8888 H         1 4YB         0.0661
     42 H4         96.3140  -18.3505  -24.2399 H         1 4YB         0.0650
     43 H5         98.5175  -19.3382  -23.7372 H         1 4YB         0.0679
     44 H6         99.4995  -21.9887  -22.6723 H         1 4YB         0.0510
     45 H7        100.0221  -20.3115  -23.0474 H         1 4YB         0.0510
     46 H8        102.1130  -21.3484  -24.1037 H         1 4YB         0.0527
     47 H9        101.6072  -22.8980  -23.3490 H         1 4YB         0.0527
     48 H10       103.8986  -22.3564  -22.5275 H         1 4YB         0.2165
     49 H11       104.0021  -23.6826  -19.1321 H         1 4YB         0.0611
     50 H12       102.4052  -23.1718  -19.7770 H         1 4YB         0.0611
     51 H13       103.3395  -22.5701  -16.9081 H         1 4YB         0.0648
     52 H14       101.7002  -24.8610  -18.1581 H         1 4YB         0.0648
     53 H15       103.0308  -25.9784  -16.6497 H         1 4YB         0.2100
     54 H16       100.5251  -24.9262  -15.9899 H         1 4YB         0.0676
     55 H17       102.4783  -24.4117  -14.7539 H         1 4YB         0.2101
     56 H18       100.2031  -22.1918  -15.9148 H         1 4YB         0.0996
     57 H19        96.3570  -23.8582  -14.0139 H         1 4YB         0.0996
     58 H20        94.1678  -24.7973  -17.9977 H         1 4YB         0.1820
     59 H21        95.4083  -24.5188  -19.2493 H         1 4YB         0.1820
@<TRIPOS>BOND
     1    1    2 ar 
     2    1    6 ar 
     3   35    1 1  
     4    2    3 ar 
     5   36    2 1  
     6    3    5 ar 
     7    3   38 1  
     8   35    4 1  
     9    4   36 2  
    10   37    5 ar 
    11    6   37 ar 
    12    8    7 ar 
    13    8    9 ar 
    14   10    8 1  
    15   10   11 ar 
    16   15   10 ar 
    17   11   12 ar 
    18   13   12 ar 
    19   14   13 ar 
    20   15   14 ar 
    21   16   15 1  
    22   16   17 2  
    23   18   16 1  
    24   19   18 1  
    25   20   19 1  
    26   20   21 2  
    27   22   20 am 
    28   23   22 am 
    29   23   24 2  
    30   23   25 2  
    31   26   23 1  
    32   27   26 1  
    33   28   27 1  
    34   29   28 1  
    35   30   28 1  
    36   34   29 1  
    37   30   31 1  
    38   32   30 1  
    39   32   33 1  
    40   34   32 1  
    41   34   35 1  
    42    4   39 1  
    43   11   40 1  
    44   12   41 1  
    45   13   42 1  
    46   14   43 1  
    47   18   44 1  
    48   18   45 1  
    49   19   46 1  
    50   19   47 1  
    51   22   48 1  
    52   27   49 1  
    53   27   50 1  
    54   28   51 1  
    55   30   52 1  
    56   31   53 1  
    57   32   54 1  
    58   33   55 1  
    59   34   56 1  
    60   37   57 1  
    61   38   58 1  
    62   38   59 1  
@<TRIPOS>SUBSTRUCTURE
     1 4YB         1

