### 
### Created by X-TOOL on Mon Sep 10 21:13:23 2018
### 

@<TRIPOS>MOLECULE
5c5t_ligand
   14    13     1     0     0
SMALL
GAST_HUCK


@<TRIPOS>ATOM
      1 C1        -10.0550   17.0510   -9.4890 C.2       1 AKG         0.1249
      2 O1         -8.9490   17.6630   -9.6030 O.co2     1 AKG        -0.5464
      3 O2        -10.0440   15.8510   -9.1070 O.co2     1 AKG        -0.5464
      4 C2        -11.3310   17.7180   -9.9220 C.2       1 AKG         0.1731
      5 O5        -12.2980   17.0230  -10.0770 O.2       1 AKG        -0.3576
      6 C3        -11.3620   19.2360  -10.1650 C.3       1 AKG         0.0423
      7 C4        -12.7480   19.7340  -10.4840 C.3       1 AKG         0.0164
      8 C5        -12.7370   21.1140  -11.0890 C.2       1 AKG         0.0371
      9 O3        -11.7160   21.5300  -11.7040 O.co2     1 AKG        -0.5688
     10 O4        -13.7590   21.8530  -10.9500 O.co2     1 AKG        -0.5688
     11 H1        -10.6976   19.4732  -11.0090 H         1 AKG         0.0516
     12 H2        -11.0018   19.7469   -9.2599 H         1 AKG         0.0516
     13 H3        -13.3366   19.7602   -9.5551 H         1 AKG         0.0456
     14 H4        -13.2177   19.0397  -11.1963 H         1 AKG         0.0456
@<TRIPOS>BOND
     1    1    2 ar 
     2    1    3 ar 
     3    1    4 1  
     4    4    5 2  
     5    4    6 1  
     6    6    7 1  
     7    7    8 1  
     8    8    9 ar 
     9    8   10 ar 
    10    6   11 1  
    11    6   12 1  
    12    7   13 1  
    13    7   14 1  
@<TRIPOS>SUBSTRUCTURE
     1 AKG         1

