### 
### Created by X-TOOL on Mon Sep 10 21:13:25 2018
### 

@<TRIPOS>MOLECULE
5c6o_ligand
   72    73     1     0     0
SMALL
GAST_HUCK


@<TRIPOS>ATOM
      1 C30         9.6390  -19.9580  -26.0830 C.3       1 4YH         0.0583
      2 O19         8.9160  -19.5430  -24.8560 O.3       1 4YH        -0.3156
      3 C6          9.4530  -18.4160  -24.2960 C.ar      1 4YH         0.1528
      4 C5          9.1510  -17.1400  -24.7870 C.ar      1 4YH        -0.0178
      5 C9         10.3090  -18.5670  -23.1960 C.ar      1 4YH         0.1614
      6 O23        10.6110  -19.8240  -22.7210 O.3       1 4YH        -0.2970
      7 C32         9.3780  -20.6540  -22.1390 C.3       1 4YH         0.0673
      8 C13        10.8700  -17.4300  -22.6140 C.ar      1 4YH        -0.0023
      9 C11        10.5550  -16.1640  -23.1240 C.ar      1 4YH        -0.0525
     10 C2          9.6970  -15.9770  -24.2230 C.ar      1 4YH        -0.0479
     11 C1          9.3410  -14.6940  -24.7770 C.3       1 4YH         0.0713
     12 C15         8.6510  -13.7570  -23.7120 C.3       1 4YH        -0.0493
     13 C29         8.4390  -12.3000  -24.1760 C.3       1 4YH        -0.0697
     14 C28         9.3190  -13.8000  -22.3190 C.3       1 4YH        -0.0697
     15 C3          8.3150  -14.9820  -25.7660 C.1       1 4YH         0.0447
     16 N4          7.4550  -15.1940  -26.5720 N.1       1 4YH        -0.3167
     17 C22        10.5040  -14.1130  -25.6570 C.3       1 4YH        -0.0507
     18 C26        11.2760  -12.8710  -25.1580 C.3       1 4YH        -0.0194
     19 C25        11.0430  -11.6570  -26.0720 C.3       1 4YH        -0.0328
     20 N8         11.9330  -11.5480  -27.2480 N.4       1 4YH         0.2343
     21 C27        13.0270  -12.5390  -27.3040 C.3       1 4YH        -0.0430
     22 C16        11.0930  -11.5950  -28.4560 C.3       1 4YH        -0.0242
     23 C21        10.4910  -10.2150  -28.7860 C.3       1 4YH         0.0138
     24 C17         9.1260  -10.2980  -29.0170 C.ar      1 4YH        -0.0576
     25 C12         8.6370  -10.9280  -30.1680 C.ar      1 4YH        -0.0396
     26 C18         8.2570   -9.7330  -28.0860 C.ar      1 4YH        -0.0799
     27 C14         6.8880   -9.8050  -28.3060 C.ar      1 4YH        -0.0479
     28 C10         6.3930  -10.4370  -29.4490 C.ar      1 4YH         0.1122
     29 O24         5.0520  -10.5120  -29.6510 O.3       1 4YH        -0.3294
     30 C33         4.4160  -11.0040  -28.4530 C.3       1 4YH         0.0554
     31 C7          7.2620  -11.0070  -30.3970 C.ar      1 4YH         0.1132
     32 O20         6.7290  -11.6210  -31.5100 O.3       1 4YH        -0.3266
     33 C31         7.6300  -11.7370  -32.6480 C.3       1 4YH         0.0568
     34 H1          9.1719  -20.8648  -26.4948 H         1 4YH         0.0574
     35 H2         10.6904  -20.1669  -25.8361 H         1 4YH         0.0574
     36 H3          9.5908  -19.1501  -26.8280 H         1 4YH         0.0574
     37 H4          8.4744  -17.0478  -25.6289 H         1 4YH         0.0699
     38 H5          9.7294  -21.6360  -21.7895 H         1 4YH         0.0594
     39 H6          8.6248  -20.7938  -22.9284 H         1 4YH         0.0594
     40 H7          8.9302  -20.1043  -21.2980 H         1 4YH         0.0594
     41 H8         11.5458  -17.5257  -21.7719 H         1 4YH         0.0631
     42 H9         10.9910  -15.2911  -22.6517 H         1 4YH         0.0763
     43 H10         7.6426  -14.1742  -23.5741 H         1 4YH         0.0200
     44 H11         7.9548  -11.7260  -23.3722 H         1 4YH         0.0224
     45 H12         7.7991  -12.2895  -25.0707 H         1 4YH         0.0224
     46 H13         9.4119  -11.8462  -24.4157 H         1 4YH         0.0224
     47 H14         9.4588  -14.8469  -22.0116 H         1 4YH         0.0224
     48 H15         8.6770  -13.2860  -21.5885 H         1 4YH         0.0224
     49 H16        10.2966  -13.2978  -22.3654 H         1 4YH         0.0224
     50 H17        10.0691  -13.8509  -26.6328 H         1 4YH         0.0171
     51 H18        11.2413  -14.9187  -25.7886 H         1 4YH         0.0171
     52 H19        12.3512  -13.1025  -25.1387 H         1 4YH         0.0308
     53 H20        10.9359  -12.6234  -24.1416 H         1 4YH         0.0308
     54 H21        11.1752  -10.7491  -25.4652 H         1 4YH         0.0814
     55 H22        10.0069  -11.7058  -26.4381 H         1 4YH         0.0814
     56 H23        12.3703  -10.6406  -27.2088 H         1 4YH         0.2032
     57 H24        13.6265  -12.3725  -28.2111 H         1 4YH         0.0778
     58 H25        12.6021  -13.5534  -27.3264 H         1 4YH         0.0778
     59 H26        13.6671  -12.4291  -26.4162 H         1 4YH         0.0778
     60 H27        10.2742  -12.3113  -28.2932 H         1 4YH         0.0836
     61 H28        11.7080  -11.9278  -29.3051 H         1 4YH         0.0836
     62 H29        10.9822   -9.8167  -29.6860 H         1 4YH         0.0456
     63 H30        10.6696   -9.5355  -27.9396 H         1 4YH         0.0456
     64 H31         9.3289  -11.3562  -30.8842 H         1 4YH         0.0450
     65 H32         8.6451   -9.2430  -27.2004 H         1 4YH         0.0436
     66 H33         6.2016   -9.3696  -27.5888 H         1 4YH         0.0493
     67 H34         3.3295  -11.0658  -28.6136 H         1 4YH         0.0570
     68 H35         4.6248  -10.3181  -27.6188 H         1 4YH         0.0570
     69 H36         4.8086  -12.0032  -28.2133 H         1 4YH         0.0570
     70 H37         7.1100  -12.2381  -33.4777 H         1 4YH         0.0573
     71 H38         8.5122  -12.3268  -32.3586 H         1 4YH         0.0573
     72 H39         7.9483  -10.7337  -32.9674 H         1 4YH         0.0573
@<TRIPOS>BOND
     1    1    2 1  
     2    2    3 1  
     3    3    4 ar 
     4    3    5 ar 
     5    4   10 ar 
     6    5    6 1  
     7    5    8 ar 
     8    6    7 1  
     9    8    9 ar 
    10    9   10 ar 
    11   10   11 1  
    12   11   12 1  
    13   11   15 1  
    14   11   17 1  
    15   12   13 1  
    16   12   14 1  
    17   15   16 3  
    18   17   18 1  
    19   18   19 1  
    20   19   20 1  
    21   20   21 1  
    22   20   22 1  
    23   22   23 1  
    24   23   24 1  
    25   24   25 ar 
    26   24   26 ar 
    27   25   31 ar 
    28   26   27 ar 
    29   27   28 ar 
    30   28   29 1  
    31   28   31 ar 
    32   29   30 1  
    33   31   32 1  
    34   32   33 1  
    35    1   34 1  
    36    1   35 1  
    37    1   36 1  
    38    4   37 1  
    39    7   38 1  
    40    7   39 1  
    41    7   40 1  
    42    8   41 1  
    43    9   42 1  
    44   12   43 1  
    45   13   44 1  
    46   13   45 1  
    47   13   46 1  
    48   14   47 1  
    49   14   48 1  
    50   14   49 1  
    51   17   50 1  
    52   17   51 1  
    53   18   52 1  
    54   18   53 1  
    55   19   54 1  
    56   19   55 1  
    57   20   56 1  
    58   21   57 1  
    59   21   58 1  
    60   21   59 1  
    61   22   60 1  
    62   22   61 1  
    63   23   62 1  
    64   23   63 1  
    65   25   64 1  
    66   26   65 1  
    67   27   66 1  
    68   30   67 1  
    69   30   68 1  
    70   30   69 1  
    71   33   70 1  
    72   33   71 1  
    73   33   72 1  
@<TRIPOS>SUBSTRUCTURE
     1 4YH         1

