### 
### Created by X-TOOL on Mon Sep 10 21:13:25 2018
### 

@<TRIPOS>MOLECULE
5c6p_ligand
   72    73     1     0     0
SMALL
GAST_HUCK


@<TRIPOS>ATOM
      1 C30        23.2190  -49.0180   34.9930 C.3       1 4YH         0.0583
      2 O19        24.4020  -48.6950   34.2440 O.3       1 4YH        -0.3156
      3 C6         24.2500  -47.5700   33.4790 C.ar      1 4YH         0.1528
      4 C5         24.4830  -46.2900   33.9760 C.ar      1 4YH        -0.0178
      5 C9         23.8520  -47.7360   32.1490 C.ar      1 4YH         0.1614
      6 O23        23.6480  -49.0210   31.7180 O.3       1 4YH        -0.2970
      7 C32        22.2960  -49.3010   31.3150 C.3       1 4YH         0.0673
      8 C13        23.6870  -46.6220   31.3210 C.ar      1 4YH        -0.0023
      9 C11        23.9220  -45.3430   31.8160 C.ar      1 4YH        -0.0525
     10 C2         24.3260  -45.1700   33.1440 C.ar      1 4YH        -0.0479
     11 C1         24.5600  -43.8900   33.6550 C.3       1 4YH         0.0713
     12 C15        26.0900  -43.5340   33.6950 C.3       1 4YH        -0.0493
     13 C29        27.0420  -44.6620   33.1530 C.3       1 4YH        -0.0697
     14 C28        26.5340  -43.1740   35.1410 C.3       1 4YH        -0.0697
     15 C3         23.9310  -43.8600   35.0290 C.1       1 4YH         0.0447
     16 N4         23.1870  -43.8520   35.9690 N.1       1 4YH        -0.3167
     17 C22        23.8600  -42.8570   32.7230 C.3       1 4YH        -0.0507
     18 C26        23.3940  -41.5540   33.4030 C.3       1 4YH        -0.0194
     19 C25        21.9060  -41.6030   33.8060 C.3       1 4YH        -0.0328
     20 N8         20.9230  -41.5000   32.7020 N.4       1 4YH         0.2343
     21 C27        21.1230  -40.3540   31.7970 C.3       1 4YH        -0.0430
     22 C16        20.7320  -42.7660   31.9590 C.3       1 4YH        -0.0242
     23 C21        19.2430  -43.1110   31.7460 C.3       1 4YH         0.0138
     24 C17        19.0110  -44.4980   31.7800 C.ar      1 4YH        -0.0576
     25 C12        19.1020  -45.2010   32.9810 C.ar      1 4YH        -0.0396
     26 C18        18.6650  -45.1990   30.6180 C.ar      1 4YH        -0.0799
     27 C14        18.4260  -46.5850   30.6520 C.ar      1 4YH        -0.0479
     28 C10        18.5120  -47.2960   31.8610 C.ar      1 4YH         0.1122
     29 O24        18.3070  -48.6670   31.9630 O.3       1 4YH        -0.3294
     30 C33        16.9510  -49.1410   31.9520 C.3       1 4YH         0.0554
     31 C7         18.8660  -46.5820   33.0210 C.ar      1 4YH         0.1132
     32 O20        18.9680  -47.2590   34.1960 O.3       1 4YH        -0.3266
     33 C31        19.8830  -46.5680   35.0680 C.3       1 4YH         0.0568
     34 H1         23.3977  -49.9266   35.5867 H         1 4YH         0.0574
     35 H2         22.3823  -49.1913   34.3003 H         1 4YH         0.0574
     36 H3         22.9715  -48.1834   35.6654 H         1 4YH         0.0574
     37 H4         24.7865  -46.1581   35.0083 H         1 4YH         0.0699
     38 H5         22.2210  -50.3478   30.9854 H         1 4YH         0.0594
     39 H6         22.0150  -48.6347   30.4862 H         1 4YH         0.0594
     40 H7         21.6181  -49.1348   32.1652 H         1 4YH         0.0594
     41 H8         23.3754  -46.7547   30.2913 H         1 4YH         0.0631
     42 H9         23.7920  -44.4805   31.1724 H         1 4YH         0.0763
     43 H10        26.2315  -42.6476   33.0592 H         1 4YH         0.0200
     44 H11        28.0866  -44.3238   33.2203 H         1 4YH         0.0224
     45 H12        26.7936  -44.8785   32.1035 H         1 4YH         0.0224
     46 H13        26.9119  -45.5727   33.7560 H         1 4YH         0.0224
     47 H14        25.8795  -42.3849   35.5397 H         1 4YH         0.0224
     48 H15        27.5738  -42.8155   35.1268 H         1 4YH         0.0224
     49 H16        26.4627  -44.0669   35.7795 H         1 4YH         0.0224
     50 H17        22.9771  -43.3429   32.2821 H         1 4YH         0.0171
     51 H18        24.5673  -42.5877   31.9248 H         1 4YH         0.0171
     52 H19        23.5438  -40.7175   32.7046 H         1 4YH         0.0308
     53 H20        23.9998  -41.3904   34.3065 H         1 4YH         0.0308
     54 H21        21.7191  -40.7702   34.4998 H         1 4YH         0.0814
     55 H22        21.7301  -42.5577   34.3232 H         1 4YH         0.0814
     56 H23        20.0418  -41.3231   33.1583 H         1 4YH         0.2032
     57 H24        20.3487  -40.3642   31.0158 H         1 4YH         0.0778
     58 H25        22.1162  -40.4248   31.3296 H         1 4YH         0.0778
     59 H26        21.0533  -39.4177   32.3701 H         1 4YH         0.0778
     60 H27        21.2049  -43.5817   32.5256 H         1 4YH         0.0836
     61 H28        21.2162  -42.6738   30.9757 H         1 4YH         0.0836
     62 H29        18.9253  -42.7222   30.7673 H         1 4YH         0.0456
     63 H30        18.6510  -42.6328   32.5403 H         1 4YH         0.0456
     64 H31        19.3579  -44.6739   33.8930 H         1 4YH         0.0450
     65 H32        18.5801  -44.6656   29.6782 H         1 4YH         0.0436
     66 H33        18.1733  -47.1091   29.7374 H         1 4YH         0.0493
     67 H34        16.9452  -50.2375   32.0393 H         1 4YH         0.0570
     68 H35        16.4669  -48.8457   31.0094 H         1 4YH         0.0570
     69 H36        16.4025  -48.7029   32.7989 H         1 4YH         0.0570
     70 H37        19.9666  -47.1145   36.0190 H         1 4YH         0.0573
     71 H38        19.5090  -45.5517   35.2608 H         1 4YH         0.0573
     72 H39        20.8721  -46.5103   34.5902 H         1 4YH         0.0573
@<TRIPOS>BOND
     1    1    2 1  
     2    2    3 1  
     3    3    4 ar 
     4    3    5 ar 
     5    4   10 ar 
     6    5    6 1  
     7    5    8 ar 
     8    6    7 1  
     9    8    9 ar 
    10    9   10 ar 
    11   10   11 1  
    12   11   12 1  
    13   11   15 1  
    14   11   17 1  
    15   12   13 1  
    16   12   14 1  
    17   15   16 3  
    18   17   18 1  
    19   18   19 1  
    20   19   20 1  
    21   20   21 1  
    22   20   22 1  
    23   22   23 1  
    24   23   24 1  
    25   24   25 ar 
    26   24   26 ar 
    27   25   31 ar 
    28   26   27 ar 
    29   27   28 ar 
    30   28   29 1  
    31   28   31 ar 
    32   29   30 1  
    33   31   32 1  
    34   32   33 1  
    35    1   34 1  
    36    1   35 1  
    37    1   36 1  
    38    4   37 1  
    39    7   38 1  
    40    7   39 1  
    41    7   40 1  
    42    8   41 1  
    43    9   42 1  
    44   12   43 1  
    45   13   44 1  
    46   13   45 1  
    47   13   46 1  
    48   14   47 1  
    49   14   48 1  
    50   14   49 1  
    51   17   50 1  
    52   17   51 1  
    53   18   52 1  
    54   18   53 1  
    55   19   54 1  
    56   19   55 1  
    57   20   56 1  
    58   21   57 1  
    59   21   58 1  
    60   21   59 1  
    61   22   60 1  
    62   22   61 1  
    63   23   62 1  
    64   23   63 1  
    65   25   64 1  
    66   26   65 1  
    67   27   66 1  
    68   30   67 1  
    69   30   68 1  
    70   30   69 1  
    71   33   70 1  
    72   33   71 1  
    73   33   72 1  
@<TRIPOS>SUBSTRUCTURE
     1 4YH         1

