### 
### Created by X-TOOL on Mon Sep 10 21:13:25 2018
### 

@<TRIPOS>MOLECULE
5c7a_ligand
   42    44     1     0     0
SMALL
GAST_HUCK


@<TRIPOS>ATOM
      1 C1        -15.3760  -21.4430   -0.3470 C.3       1 4YE        -0.0167
      2 C2        -15.9110  -20.1020   -0.8360 C.3       1 4YE         0.0156
      3 C3        -15.8980  -19.9890   -2.3600 C.3       1 4YE         0.0139
      4 N4        -16.3330  -18.6640   -2.8210 N.4       1 4YE         0.2600
      5 C5        -16.4980  -18.5770   -4.2800 C.3       1 4YE         0.0641
      6 C6        -15.2600  -18.8670   -5.1130 C.2       1 4YE         0.2499
      7 C10       -16.4790  -19.0630   -8.6090 C.3       1 4YE         0.0023
      8 C11       -15.0020  -19.3330   -8.6890 C.ar      1 4YE        -0.0185
      9 C12       -14.2140  -19.6230   -9.7910 C.ar      1 4YE        -0.0734
     10 C13       -12.8530  -19.8400   -9.6330 C.ar      1 4YE        -0.0840
     11 C14       -12.2790  -19.7670   -8.3790 C.ar      1 4YE        -0.0825
     12 C15       -13.0590  -19.4770   -7.2720 C.ar      1 4YE        -0.0473
     13 C16       -14.4170  -19.2610   -7.4320 C.ar      1 4YE         0.0721
     14 O7        -14.1680  -19.0160   -4.5810 O.2       1 4YE        -0.3796
     15 N8        -15.4170  -18.9540   -6.4770 N.am      1 4YE        -0.2169
     16 C9        -16.7170  -18.7000   -7.1540 C.3       1 4YE         0.0618
     17 C17       -15.4800  -17.6070   -2.2630 C.3       1 4YE         0.0112
     18 C18       -15.5050  -17.6500   -0.7450 C.3       1 4YE         0.0080
     19 N19       -15.0780  -18.9910   -0.2650 N.4       1 4YE         0.2364
     20 H1        -15.9869  -22.2562   -0.7659 H         1 4YE         0.0286
     21 H2        -15.4226  -21.4779    0.7514 H         1 4YE         0.0286
     22 H3        -14.3325  -21.5627   -0.6738 H         1 4YE         0.0286
     23 H4        -16.9479  -19.9929   -0.4853 H         1 4YE         0.0901
     24 H5        -16.5746  -20.7492   -2.7776 H         1 4YE         0.0871
     25 H6        -14.8748  -20.1712   -2.7202 H         1 4YE         0.0871
     26 H7        -17.2518  -18.5183   -2.4329 H         1 4YE         0.2057
     27 H8        -16.8327  -17.5570   -4.5199 H         1 4YE         0.1068
     28 H9        -17.2763  -19.2968   -4.5734 H         1 4YE         0.1068
     29 H10       -17.0542  -19.9587   -8.8860 H         1 4YE         0.0421
     30 H11       -16.7588  -18.2289   -9.2692 H         1 4YE         0.0421
     31 H12       -14.6610  -19.6803  -10.7769 H         1 4YE         0.0513
     32 H13       -12.2382  -20.0675  -10.4963 H         1 4YE         0.0470
     33 H14       -11.2150  -19.9372   -8.2609 H         1 4YE         0.0520
     34 H15       -12.6094  -19.4196   -6.2873 H         1 4YE         0.0480
     35 H16       -17.5077  -19.3312   -6.7222 H         1 4YE         0.0603
     36 H17       -17.0011  -17.6414   -7.0610 H         1 4YE         0.0603
     37 H18       -15.8474  -16.6277   -2.6035 H         1 4YE         0.0868
     38 H19       -14.4472  -17.7530   -2.6124 H         1 4YE         0.0868
     39 H20       -16.5265  -17.4455   -0.3919 H         1 4YE         0.0867
     40 H21       -14.8200  -16.8864   -0.3480 H         1 4YE         0.0867
     41 H22       -14.1172  -19.1382   -0.5318 H         1 4YE         0.2020
     42 H23       -15.1550  -19.0136    0.7398 H         1 4YE         0.2020
@<TRIPOS>BOND
     1    2    1 1  
     2    3    2 1  
     3    2   19 1  
     4    4    3 1  
     5    5    4 1  
     6    4   17 1  
     7    6    5 1  
     8    6   14 2  
     9   15    6 am 
    10    8    7 1  
    11    7   16 1  
    12    8    9 ar 
    13   13    8 ar 
    14    9   10 ar 
    15   11   10 ar 
    16   12   11 ar 
    17   13   12 ar 
    18   13   15 1  
    19   15   16 1  
    20   17   18 1  
    21   18   19 1  
    22    1   20 1  
    23    1   21 1  
    24    1   22 1  
    25    2   23 1  
    26    3   24 1  
    27    3   25 1  
    28    4   26 1  
    29    5   27 1  
    30    5   28 1  
    31    7   29 1  
    32    7   30 1  
    33    9   31 1  
    34   10   32 1  
    35   11   33 1  
    36   12   34 1  
    37   16   35 1  
    38   16   36 1  
    39   17   37 1  
    40   17   38 1  
    41   18   39 1  
    42   18   40 1  
    43   19   41 1  
    44   19   42 1  
@<TRIPOS>SUBSTRUCTURE
     1 4YE         1

