### 
### Created by X-TOOL on Mon Sep 10 21:13:24 2018
### 

@<TRIPOS>MOLECULE
5c7b_ligand
   38    39     1     0     0
SMALL
GAST_HUCK


@<TRIPOS>ATOM
      1 C1        -15.2350  -21.6550   -0.5670 C.3       1 4YD        -0.0167
      2 C2        -15.8160  -20.2860   -0.8860 C.3       1 4YD         0.0156
      3 C3        -15.8160  -20.0190   -2.3890 C.3       1 4YD         0.0139
      4 N4        -16.2160  -18.6500   -2.7400 N.4       1 4YD         0.2596
      5 C5        -16.3550  -18.4380   -4.1930 C.3       1 4YD         0.0585
      6 C6        -15.1780  -18.8580   -5.0720 C.2       1 4YD         0.2240
      7 C10       -14.9380  -19.2480   -8.6810 C.3       1 4YD        -0.0307
      8 C11       -16.2550  -18.5250   -8.5330 C.3       1 4YD        -0.0307
      9 C12       -16.6650  -18.7990   -7.1130 C.3       1 4YD         0.0341
     10 C13       -15.3350  -17.6790   -2.0890 C.3       1 4YD         0.0112
     11 C14       -15.3930  -17.8440   -0.5810 C.3       1 4YD         0.0080
     12 O7        -14.0930  -19.1630   -4.5900 O.2       1 4YD        -0.3910
     13 N8        -15.3770  -18.8830   -6.4050 N.am      1 4YD        -0.2689
     14 C9        -14.2540  -19.0810   -7.3350 C.3       1 4YD         0.0341
     15 N15       -15.0000  -19.2270   -0.2010 N.4       1 4YD         0.2364
     16 H1        -15.8312  -22.4321   -1.0677 H         1 4YD         0.0286
     17 H2        -15.2583  -21.8189    0.5205 H         1 4YD         0.0286
     18 H3        -14.1954  -21.7042   -0.9231 H         1 4YD         0.0286
     19 H4        -16.8511  -20.2440   -0.5161 H         1 4YD         0.0901
     20 H5        -16.5160  -20.7198   -2.8673 H         1 4YD         0.0871
     21 H6        -14.8007  -20.1947   -2.7740 H         1 4YD         0.0871
     22 H7        -17.1349  -18.5098   -2.3502 H         1 4YD         0.2057
     23 H8        -16.5243  -17.3635   -4.3567 H         1 4YD         0.1063
     24 H9        -17.2372  -19.0034   -4.5278 H         1 4YD         0.1063
     25 H10       -14.3346  -18.7954   -9.4817 H         1 4YD         0.0285
     26 H11       -15.1026  -20.3127   -8.9031 H         1 4YD         0.0285
     27 H12       -17.0000  -18.9220   -9.2382 H         1 4YD         0.0285
     28 H13       -16.1291  -17.4454   -8.7018 H         1 4YD         0.0285
     29 H14       -17.2197  -19.7459   -7.0376 H         1 4YD         0.0522
     30 H15       -17.2819  -17.9799   -6.7149 H         1 4YD         0.0522
     31 H16       -15.6566  -16.6614   -2.3554 H         1 4YD         0.0868
     32 H17       -14.3022  -17.8388   -2.4321 H         1 4YD         0.0868
     33 H18       -16.4181  -17.6489   -0.2331 H         1 4YD         0.0867
     34 H19       -14.7035  -17.1279   -0.1102 H         1 4YD         0.0867
     35 H20       -13.5866  -18.2066   -7.3382 H         1 4YD         0.0522
     36 H21       -13.6785  -19.9806   -7.0714 H         1 4YD         0.0522
     37 H22       -14.0312  -19.3624   -0.4440 H         1 4YD         0.2020
     38 H23       -15.1141  -19.3297    0.7952 H         1 4YD         0.2020
@<TRIPOS>BOND
     1    2    1 1  
     2    3    2 1  
     3    2   15 1  
     4    4    3 1  
     5    5    4 1  
     6    4   10 1  
     7    6    5 1  
     8    6   12 2  
     9   13    6 am 
    10    8    7 1  
    11    7   14 1  
    12    9    8 1  
    13    9   13 1  
    14   10   11 1  
    15   11   15 1  
    16   13   14 1  
    17    1   16 1  
    18    1   17 1  
    19    1   18 1  
    20    2   19 1  
    21    3   20 1  
    22    3   21 1  
    23    4   22 1  
    24    5   23 1  
    25    5   24 1  
    26    7   25 1  
    27    7   26 1  
    28    8   27 1  
    29    8   28 1  
    30    9   29 1  
    31    9   30 1  
    32   10   31 1  
    33   10   32 1  
    34   11   33 1  
    35   11   34 1  
    36   14   35 1  
    37   14   36 1  
    38   15   37 1  
    39   15   38 1  
@<TRIPOS>SUBSTRUCTURE
     1 4YD         1

