### 
### Created by X-TOOL on Mon Sep 10 21:13:25 2018
### 

@<TRIPOS>MOLECULE
5c7c_ligand
   48    50     1     0     0
SMALL
GAST_HUCK


@<TRIPOS>ATOM
      1 C1        -15.2520  -21.3420   -0.6490 C.3       1 4YC        -0.0167
      2 C2        -15.6980  -19.9800   -1.1620 C.3       1 4YC         0.0156
      3 C3        -15.6570  -19.8880   -2.6840 C.3       1 4YC         0.0139
      4 N4        -16.0320  -18.5500   -3.1630 N.4       1 4YC         0.2603
      5 C5        -16.1670  -18.4730   -4.6270 C.3       1 4YC         0.0687
      6 C6        -14.9210  -18.7960   -5.4400 C.2       1 4YC         0.2690
      7 C10       -15.9480  -18.4970   -9.0110 C.3       1 4YC        -0.0324
      8 C11       -16.9030  -19.2620   -9.9190 C.3       1 4YC        -0.0937
      9 C12       -15.9450  -17.0320   -9.4230 C.3       1 4YC        -0.0937
     10 C13       -14.5400  -19.0640   -9.0320 C.ar      1 4YC        -0.0299
     11 C14       -13.7460  -19.4040  -10.1130 C.ar      1 4YC        -0.0530
     12 C15       -12.4720  -19.9130   -9.9010 C.ar      1 4YC        -0.0335
     13 C16       -12.0050  -20.0770   -8.6120 C.ar      1 4YC         0.0587
     14 C19       -14.0560  -19.2350   -7.7420 C.ar      1 4YC         0.1047
     15 C21       -15.1720  -17.5550   -1.0820 C.3       1 4YC         0.0080
     16 O7        -13.8530  -19.0250   -4.8890 O.2       1 4YC        -0.3682
     17 N8        -15.0450  -18.8200   -6.8180 N.am      1 4YC        -0.1998
     18 C9        -16.3400  -18.6540   -7.5290 C.3       1 4YC         0.0393
     19 CL1       -10.4060  -20.7160   -8.3560 Cl        1 4YC        -0.0487
     20 C18       -12.7840  -19.7430   -7.5210 C.ar      1 4YC         0.0075
     21 C20       -15.1470  -17.5190   -2.6020 C.3       1 4YC         0.0113
     22 N22       -14.8060  -18.9120   -0.5960 N.4       1 4YC         0.2364
     23 H1        -15.9063  -22.1225   -1.0645 H         1 4YC         0.0286
     24 H2        -15.3135  -21.3584    0.4491 H         1 4YC         0.0286
     25 H3        -14.2140  -21.5294   -0.9610 H         1 4YC         0.0286
     26 H4        -16.7308  -19.8038   -0.8271 H         1 4YC         0.0901
     27 H5        -16.3574  -20.6251   -3.1037 H         1 4YC         0.0871
     28 H6        -14.6367  -20.1152   -3.0266 H         1 4YC         0.0871
     29 H7        -16.9508  -18.3646   -2.7923 H         1 4YC         0.2058
     30 H8        -16.4759  -17.4483   -4.8811 H         1 4YC         0.1073
     31 H9        -16.9551  -19.1789   -4.9279 H         1 4YC         0.1073
     32 H10       -17.9037  -18.8087   -9.8637 H         1 4YC         0.0099
     33 H11       -16.9573  -20.3112   -9.5932 H         1 4YC         0.0099
     34 H12       -16.5375  -19.2183  -10.9556 H         1 4YC         0.0099
     35 H13       -15.2581  -16.4698   -8.7733 H         1 4YC         0.0099
     36 H14       -16.9608  -16.6214   -9.3250 H         1 4YC         0.0099
     37 H15       -15.6139  -16.9458  -10.4684 H         1 4YC         0.0099
     38 H16       -14.1178  -19.2732  -11.1228 H         1 4YC         0.0769
     39 H17       -11.8460  -20.1808  -10.7445 H         1 4YC         0.0606
     40 H18       -16.1827  -17.3026   -0.7288 H         1 4YC         0.0867
     41 H19       -14.4525  -16.8217   -0.6890 H         1 4YC         0.0867
     42 H20       -16.9779  -19.5388   -7.3870 H         1 4YC         0.0490
     43 H21       -16.8691  -17.7590   -7.1697 H         1 4YC         0.0490
     44 H22       -12.4089  -19.8752   -6.5126 H         1 4YC         0.0602
     45 H23       -15.4834  -16.5294   -2.9449 H         1 4YC         0.0868
     46 H24       -14.1190  -17.6978   -2.9501 H         1 4YC         0.0868
     47 H25       -13.8547  -19.1074   -0.8661 H         1 4YC         0.2020
     48 H26       -14.8798  -18.9271    0.4092 H         1 4YC         0.2020
@<TRIPOS>BOND
     1    2    1 1  
     2    3    2 1  
     3    2   22 1  
     4    4    3 1  
     5    5    4 1  
     6    4   21 1  
     7    6    5 1  
     8    6   16 2  
     9   17    6 am 
    10    7    8 1  
    11    7    9 1  
    12   10    7 1  
    13    7   18 1  
    14   10   11 ar 
    15   14   10 ar 
    16   11   12 ar 
    17   12   13 ar 
    18   13   19 1  
    19   13   20 ar 
    20   14   17 1  
    21   14   20 ar 
    22   21   15 1  
    23   15   22 1  
    24   17   18 1  
    25    1   23 1  
    26    1   24 1  
    27    1   25 1  
    28    2   26 1  
    29    3   27 1  
    30    3   28 1  
    31    4   29 1  
    32    5   30 1  
    33    5   31 1  
    34    8   32 1  
    35    8   33 1  
    36    8   34 1  
    37    9   35 1  
    38    9   36 1  
    39    9   37 1  
    40   11   38 1  
    41   12   39 1  
    42   15   40 1  
    43   15   41 1  
    44   18   42 1  
    45   18   43 1  
    46   20   44 1  
    47   21   45 1  
    48   21   46 1  
    49   22   47 1  
    50   22   48 1  
@<TRIPOS>SUBSTRUCTURE
     1 4YC         1

