### 
### Created by X-TOOL on Mon Sep 10 21:13:24 2018
### 

@<TRIPOS>MOLECULE
5c7d_ligand
   41    43     1     0     0
SMALL
GAST_HUCK


@<TRIPOS>ATOM
      1 C1        -15.4820  -21.5650   -0.3400 C.3       1 4YF        -0.0167
      2 C2        -15.9400  -20.1800   -0.7710 C.3       1 4YF         0.0156
      3 C3        -15.9310  -20.0100   -2.2880 C.3       1 4YF         0.0139
      4 N4        -16.2950  -18.6450   -2.6870 N.4       1 4YF         0.2601
      5 C5        -16.4840  -18.4850   -4.1340 C.3       1 4YF         0.0649
      6 C6        -15.2970  -18.8430   -5.0100 C.2       1 4YF         0.2538
      7 C10       -16.6400  -18.9460   -8.4410 C.3       1 4YF         0.0078
      8 C11       -15.1740  -19.2430   -8.5910 C.ar      1 4YF         0.0054
      9 C12       -14.4120  -19.5530   -9.6980 C.ar      1 4YF        -0.0078
     10 C14       -12.5370  -19.7120   -8.4210 C.ar      1 4YF         0.0927
     11 C16       -13.1920  -19.4140   -7.2590 C.ar      1 4YF        -0.0044
     12 C19       -15.3910  -17.7610   -0.5850 C.3       1 4YF         0.0080
     13 O7        -14.2060  -19.1140   -4.5200 O.2       1 4YF        -0.3776
     14 N8        -15.5010  -18.8470   -6.3700 N.am      1 4YF        -0.2084
     15 C9        -16.7530  -18.4000   -7.0340 C.3       1 4YF         0.0656
     16 N13       -13.1010  -19.7860   -9.6150 N.ar      1 4YF        -0.3133
     17 CL        -10.8280  -20.0240   -8.3680 Cl        1 4YF        -0.0514
     18 C17       -14.5440  -19.1750   -7.3570 C.ar      1 4YF         0.0905
     19 C18       -15.3800  -17.6570   -2.1000 C.3       1 4YF         0.0113
     20 N20       -15.0380  -19.1430   -0.1660 N.4       1 4YF         0.2364
     21 H1        -16.1430  -22.3242   -0.7834 H         1 4YF         0.0286
     22 H2        -15.5219  -21.6396    0.7567 H         1 4YF         0.0286
     23 H3        -14.4500  -21.7328   -0.6817 H         1 4YF         0.0286
     24 H4        -16.9660  -20.0237   -0.4065 H         1 4YF         0.0901
     25 H5        -16.6520  -20.7139   -2.7292 H         1 4YF         0.0871
     26 H6        -14.9222  -20.2339   -2.6652 H         1 4YF         0.0871
     27 H7        -17.1977  -18.4666   -2.2755 H         1 4YF         0.2057
     28 H8        -16.7358  -17.4314   -4.3248 H         1 4YF         0.1069
     29 H9        -17.3274  -19.1239   -4.4347 H         1 4YF         0.1069
     30 H10       -17.2395  -19.8611   -8.5560 H         1 4YF         0.0432
     31 H11       -16.9664  -18.1986   -9.1792 H         1 4YF         0.0432
     32 H12       -14.8941  -19.6092  -10.6673 H         1 4YF         0.0691
     33 H13       -12.6730  -19.3682   -6.3084 H         1 4YF         0.0551
     34 H14       -16.3949  -17.5124   -0.2104 H         1 4YF         0.0867
     35 H15       -14.6582  -17.0554   -0.1664 H         1 4YF         0.0867
     36 H16       -17.6350  -18.8146   -6.5239 H         1 4YF         0.0611
     37 H17       -16.8184  -17.3020   -7.0453 H         1 4YF         0.0611
     38 H18       -15.6986  -16.6467   -2.3964 H         1 4YF         0.0868
     39 H19       -14.3605  -17.8429   -2.4688 H         1 4YF         0.0868
     40 H20       -14.0902  -19.3342   -0.4509 H         1 4YF         0.2020
     41 H21       -15.1057  -19.2028    0.8379 H         1 4YF         0.2020
@<TRIPOS>BOND
     1    2    1 1  
     2    3    2 1  
     3    2   20 1  
     4    4    3 1  
     5    5    4 1  
     6    4   19 1  
     7    6    5 1  
     8    6   13 2  
     9   14    6 am 
    10    7    8 1  
    11   15    7 1  
    12    8    9 ar 
    13    8   18 ar 
    14    9   16 ar 
    15   11   10 ar 
    16   16   10 ar 
    17   10   17 1  
    18   18   11 ar 
    19   19   12 1  
    20   12   20 1  
    21   14   15 1  
    22   14   18 1  
    23    1   21 1  
    24    1   22 1  
    25    1   23 1  
    26    2   24 1  
    27    3   25 1  
    28    3   26 1  
    29    4   27 1  
    30    5   28 1  
    31    5   29 1  
    32    7   30 1  
    33    7   31 1  
    34    9   32 1  
    35   11   33 1  
    36   12   34 1  
    37   12   35 1  
    38   15   36 1  
    39   15   37 1  
    40   19   38 1  
    41   19   39 1  
    42   20   40 1  
    43   20   41 1  
@<TRIPOS>SUBSTRUCTURE
     1 4YF         1

