### 
### Created by X-TOOL on Mon Sep 10 21:13:23 2018
### 

@<TRIPOS>MOLECULE
5c7n_ligand
   48    50     1     0     0
SMALL
GAST_HUCK


@<TRIPOS>ATOM
      1 C10        13.1220    1.9570   -3.5690 C.ar      1 BMF        -0.0239
      2 N12        14.5100    1.5230   -5.5020 N.2       1 BMF        -0.1737
      3 C15        12.3480    0.6060   -6.9320 C.2       1 BMF         0.1414
      4 C17        10.0500    0.0770   -7.3890 C.2       1 BMF         0.3581
      5 C20         6.8180   -0.7760   -8.7670 C.3       1 BMF        -0.0372
      6 C22        12.2090    1.0570   -5.6140 C.2       1 BMF        -0.0099
      7 C26        17.0580    1.4040   -7.1680 C.3       1 BMF         0.0176
      8 C28        11.5790    2.3660   -1.7480 C.ar      1 BMF        -0.0719
      9 C01        12.3650    3.2040    0.3640 C.3       1 BMF        -0.0346
     10 C02        12.6250    2.7910   -0.9400 C.ar      1 BMF        -0.0251
     11 C03        13.9250    2.8040   -1.4440 C.ar      1 BMF         0.0672
     12 N04        14.8670    3.2260   -0.5800 N.am      1 BMF        -0.1942
     13 S05        16.3520    3.7920   -1.1220 S.o2      1 BMF         0.0560
     14 C06        17.3060    4.3660    0.2660 C.3       1 BMF         0.0785
     15 O07        17.1350    2.6750   -1.8270 O.2       1 BMF        -0.1504
     16 O08        16.1400    4.9600   -2.0880 O.2       1 BMF        -0.1504
     17 C09        14.1790    2.3870   -2.7570 C.ar      1 BMF        -0.0406
     18 C11        13.3090    1.5210   -4.8910 C.2       1 BMF         0.0540
     19 N13        14.5760    1.0980   -6.7460 N.pl3     1 BMF        -0.1146
     20 C14        13.5620    0.6430   -7.4800 C.2       1 BMF         0.2116
     21 N16        11.3650    0.1620   -7.7440 N.am      1 BMF        -0.1925
     22 O18         9.1490   -0.3420   -8.3170 O.3       1 BMF        -0.2579
     23 C19         7.8220   -0.0570   -7.8670 C.3       1 BMF         0.0752
     24 O21         9.6320    0.3250   -6.2580 O.2       1 BMF        -0.3634
     25 N23        14.0380    0.2990   -8.6850 N.2       1 BMF        -0.2733
     26 N24        15.2680    0.5090   -8.7250 N.2       1 BMF        -0.2688
     27 C25        15.6330    1.0040   -7.5440 C.2       1 BMF         0.1614
     28 C27        11.8280    1.9530   -3.0510 C.ar      1 BMF        -0.0735
     29 H1          5.7960   -0.5585   -8.4231 H         1 BMF         0.0255
     30 H2          6.9968   -1.8605   -8.7227 H         1 BMF         0.0255
     31 H3          6.9384   -0.4266   -9.8030 H         1 BMF         0.0255
     32 H4         11.2262    1.0456   -5.1450 H         1 BMF         0.0447
     33 H5         17.7279    1.2186   -8.0206 H         1 BMF         0.0458
     34 H6         17.3902    0.8089   -6.3046 H         1 BMF         0.0458
     35 H7         17.0824    2.4726   -6.9081 H         1 BMF         0.0458
     36 H8         10.5663    2.3564   -1.3616 H         1 BMF         0.0518
     37 H9         11.2873    3.1192    0.5675 H         1 BMF         0.0366
     38 H10        12.6800    4.2507    0.4868 H         1 BMF         0.0366
     39 H11        12.9221    2.5684    1.0679 H         1 BMF         0.0366
     40 H12        14.6791    3.2020    0.4019 H         1 BMF         0.2132
     41 H13        18.2795    4.7374   -0.0867 H         1 BMF         0.0487
     42 H14        17.4636    3.5364    0.9709 H         1 BMF         0.0487
     43 H15        16.7648    5.1792    0.7718 H         1 BMF         0.0487
     44 H16        15.1916    2.3971   -3.1438 H         1 BMF         0.0477
     45 H17        11.6176   -0.1240   -8.6683 H         1 BMF         0.2375
     46 H18         7.7025   -0.4063   -6.8308 H         1 BMF         0.0609
     47 H19         7.6441    1.0276   -7.9112 H         1 BMF         0.0609
     48 H20        11.0042    1.6230   -3.6736 H         1 BMF         0.0486
@<TRIPOS>BOND
     1    1   17 ar 
     2   18    1 1  
     3    1   28 ar 
     4   18    2 2  
     5   19    2 1  
     6    3    6 2  
     7    3   20 1  
     8   21    3 1  
     9    4   21 am 
    10   22    4 1  
    11    4   24 2  
    12   23    5 1  
    13    6   18 1  
    14   27    7 1  
    15    8   10 ar 
    16   28    8 ar 
    17   10    9 1  
    18   11   10 ar 
    19   11   12 1  
    20   17   11 ar 
    21   12   13 1  
    22   13   14 1  
    23   13   15 2  
    24   13   16 2  
    25   20   19 1  
    26   19   27 1  
    27   20   25 2  
    28   22   23 1  
    29   25   26 1  
    30   26   27 2  
    31    5   29 1  
    32    5   30 1  
    33    5   31 1  
    34    6   32 1  
    35    7   33 1  
    36    7   34 1  
    37    7   35 1  
    38    8   36 1  
    39    9   37 1  
    40    9   38 1  
    41    9   39 1  
    42   12   40 1  
    43   14   41 1  
    44   14   42 1  
    45   14   43 1  
    46   17   44 1  
    47   21   45 1  
    48   23   46 1  
    49   23   47 1  
    50   28   48 1  
@<TRIPOS>SUBSTRUCTURE
     1 BMF         1

