### 
### Created by X-TOOL on Mon Sep 10 21:13:25 2018
### 

@<TRIPOS>MOLECULE
5c83_ligand
   67    70     1     0     0
SMALL
GAST_HUCK


@<TRIPOS>ATOM
      1 C1        -14.3900  -15.6340   -4.3260 C.3       1 4YN         0.0367
      2 C3        -16.2020  -16.3320   -2.9190 C.3       1 4YN         0.0950
      3 C5        -15.5290  -17.7750   -0.9880 C.3       1 4YN         0.0131
      4 C7        -15.9490  -20.2240   -1.0490 C.3       1 4YN         0.0157
      5 C8        -15.4630  -21.5570   -0.4980 C.3       1 4YN        -0.0167
      6 C11       -16.4550  -18.8700   -4.5530 C.3       1 4YN         0.0692
      7 C12       -15.1730  -19.0040   -5.3580 C.2       1 4YN         0.2700
      8 C15       -16.5060  -18.4240   -7.4140 C.3       1 4YN         0.0416
      9 C16       -16.1510  -18.4090   -8.9200 C.3       1 4YN        -0.0273
     10 C19       -14.6400  -18.5600   -8.9080 C.ar      1 4YN        -0.0080
     11 C22       -11.9580  -18.8740   -8.5250 C.ar      1 4YN         0.0511
     12 C23       -10.4670  -19.0380   -8.3900 C.3       1 4YN         0.0366
     13 C24       -10.0120  -20.4380   -8.7070 C.ar      1 4YN        -0.0256
     14 C25       -10.1290  -21.4480   -7.7630 C.ar      1 4YN        -0.0570
     15 C26        -9.7110  -22.7320   -8.0560 C.ar      1 4YN        -0.0676
     16 C27        -9.1750  -23.0180   -9.2890 C.ar      1 4YN        -0.0680
     17 C28        -9.0530  -22.0260  -10.2340 C.ar      1 4YN        -0.0676
     18 C31       -14.1630  -18.7730   -7.6250 C.ar      1 4YN         0.1121
     19 O2        -15.7820  -15.9560   -4.2360 O.3       1 4YN        -0.3772
     20 C4        -15.5850  -17.6790   -2.5130 C.3       1 4YN         0.0458
     21 N6        -15.0740  -19.1180   -0.5370 N.4       1 4YN         0.2367
     22 C9        -15.9350  -20.1840   -2.5730 C.3       1 4YN         0.0142
     23 N10       -16.2860  -18.8540   -3.0900 N.4       1 4YN         0.2641
     24 O13       -14.1190  -19.2980   -4.8080 O.2       1 4YN        -0.3679
     25 N14       -15.2450  -18.7840   -6.7140 N.am      1 4YN        -0.1965
     26 C17       -16.8260  -19.5570   -9.6630 C.3       1 4YN        -0.0922
     27 C18       -16.5610  -17.0920   -9.5620 C.3       1 4YN        -0.0922
     28 C20       -13.7390  -18.5130   -9.9530 C.ar      1 4YN         0.0155
     29 N21       -12.4250  -18.6670   -9.7680 N.ar      1 4YN        -0.2790
     30 C29        -9.4690  -20.7420   -9.9470 C.ar      1 4YN        -0.0570
     31 C30       -12.8050  -18.9340   -7.4140 C.ar      1 4YN         0.0172
     32 H1        -14.1441  -15.3567   -5.3617 H         1 4YN         0.0524
     33 H2        -13.7915  -16.5077   -4.0284 H         1 4YN         0.0524
     34 H3        -14.1648  -14.7902   -3.6572 H         1 4YN         0.0524
     35 H4        -17.2985  -16.4177   -2.9009 H         1 4YN         0.0618
     36 H5        -15.8827  -15.5592   -2.2043 H         1 4YN         0.0618
     37 H6        -16.5332  -17.5840   -0.5817 H         1 4YN         0.0871
     38 H7        -14.8294  -17.0157   -0.6085 H         1 4YN         0.0871
     39 H8        -16.9800  -20.0599   -0.7024 H         1 4YN         0.0901
     40 H9        -16.1061  -22.3659   -0.8749 H         1 4YN         0.0286
     41 H10       -15.5053  -21.5369    0.6010 H         1 4YN         0.0286
     42 H11       -14.4264  -21.7317   -0.8219 H         1 4YN         0.0286
     43 H12       -17.1066  -19.7182   -4.8096 H         1 4YN         0.1073
     44 H13       -16.9438  -17.9298   -4.8480 H         1 4YN         0.1073
     45 H14       -17.2862  -19.1721   -7.2101 H         1 4YN         0.0495
     46 H15       -16.8555  -17.4322   -7.0912 H         1 4YN         0.0495
     47 H16       -10.1775  -18.7982   -7.3563 H         1 4YN         0.0659
     48 H17        -9.9710  -18.3405   -9.0810 H         1 4YN         0.0659
     49 H18       -10.5512  -21.2283   -6.7890 H         1 4YN         0.0565
     50 H19        -9.8059  -23.5150   -7.3124 H         1 4YN         0.0601
     51 H20        -8.8482  -24.0261   -9.5168 H         1 4YN         0.0565
     52 H21        -8.6294  -22.2532  -11.2056 H         1 4YN         0.0601
     53 H22       -14.5530  -17.6971   -2.8933 H         1 4YN         0.0928
     54 H23       -15.0817  -19.1402    0.4707 H         1 4YN         0.2020
     55 H24       -14.1345  -19.2693   -0.8693 H         1 4YN         0.2020
     56 H25       -16.6613  -20.9167   -2.9546 H         1 4YN         0.0871
     57 H26       -14.9274  -20.4482   -2.9264 H         1 4YN         0.0871
     58 H27       -17.2265  -18.7222   -2.7522 H         1 4YN         0.2061
     59 H28       -16.5525  -19.5158  -10.7277 H         1 4YN         0.0103
     60 H29       -17.9177  -19.4681   -9.5612 H         1 4YN         0.0103
     61 H30       -16.4947  -20.5151   -9.2362 H         1 4YN         0.0103
     62 H31       -16.0775  -16.2590   -9.0308 H         1 4YN         0.0103
     63 H32       -17.6536  -16.9797   -9.5028 H         1 4YN         0.0103
     64 H33       -16.2483  -17.0851  -10.6166 H         1 4YN         0.0103
     65 H34       -14.1104  -18.3455  -10.9575 H         1 4YN         0.1001
     66 H35        -9.3708  -19.9648  -10.6962 H         1 4YN         0.0565
     67 H36       -12.4100  -19.1014   -6.4185 H         1 4YN         0.0603
@<TRIPOS>BOND
     1   19    1 1  
     2    2   19 1  
     3   20    2 1  
     4   20    3 1  
     5    3   21 1  
     6    4    5 1  
     7   21    4 1  
     8    4   22 1  
     9    6    7 1  
    10   23    6 1  
    11    7   24 2  
    12    7   25 am 
    13    8    9 1  
    14   25    8 1  
    15   10    9 1  
    16    9   26 1  
    17    9   27 1  
    18   18   10 ar 
    19   10   28 ar 
    20   11   12 1  
    21   11   29 ar 
    22   31   11 ar 
    23   12   13 1  
    24   13   14 ar 
    25   13   30 ar 
    26   14   15 ar 
    27   15   16 ar 
    28   17   16 ar 
    29   30   17 ar 
    30   25   18 1  
    31   18   31 ar 
    32   20   23 1  
    33   22   23 1  
    34   28   29 ar 
    35    1   32 1  
    36    1   33 1  
    37    1   34 1  
    38    2   35 1  
    39    2   36 1  
    40    3   37 1  
    41    3   38 1  
    42    4   39 1  
    43    5   40 1  
    44    5   41 1  
    45    5   42 1  
    46    6   43 1  
    47    6   44 1  
    48    8   45 1  
    49    8   46 1  
    50   12   47 1  
    51   12   48 1  
    52   14   49 1  
    53   15   50 1  
    54   16   51 1  
    55   17   52 1  
    56   20   53 1  
    57   21   54 1  
    58   21   55 1  
    59   22   56 1  
    60   22   57 1  
    61   23   58 1  
    62   26   59 1  
    63   26   60 1  
    64   26   61 1  
    65   27   62 1  
    66   27   63 1  
    67   27   64 1  
    68   28   65 1  
    69   30   66 1  
    70   31   67 1  
@<TRIPOS>SUBSTRUCTURE
     1 4YN         1

