### 
### Created by X-TOOL on Mon Sep 10 21:13:24 2018
### 

@<TRIPOS>MOLECULE
5c84_ligand
   54    56     1     0     0
SMALL
GAST_HUCK


@<TRIPOS>ATOM
      1 C1        -13.8820  -15.7320   -4.4030 C.3       1 4YL         0.0367
      2 C3        -15.7930  -16.3060   -3.0610 C.3       1 4YL         0.0950
      3 C5        -15.4720  -17.7580   -1.0290 C.3       1 4YL         0.0131
      4 C7        -15.8850  -20.2120   -1.0670 C.3       1 4YL         0.0157
      5 C8        -15.3810  -21.5370   -0.5180 C.3       1 4YL        -0.0167
      6 C11       -16.3690  -18.8440   -4.5680 C.3       1 4YL         0.0694
      7 C12       -15.1030  -19.0220   -5.3890 C.2       1 4YL         0.2709
      8 C15       -16.5030  -18.6800   -7.4540 C.3       1 4YL         0.0436
      9 C16       -16.1290  -18.5280   -8.9420 C.3       1 4YL        -0.0244
     10 C19       -14.7110  -19.0660   -8.9780 C.ar      1 4YL        -0.0039
     11 C22       -12.2210  -20.0110   -8.6630 C.ar      1 4YL         0.1301
     12 C24       -12.9400  -19.7420   -7.5210 C.ar      1 4YL         0.0315
     13 C25       -14.2190  -19.2560   -7.6970 C.ar      1 4YL         0.1177
     14 O2        -15.2750  -16.0790   -4.3810 O.3       1 4YL        -0.3772
     15 C4        -15.3890  -17.6990   -2.5520 C.3       1 4YL         0.0458
     16 N6        -15.0450  -19.0920   -0.5260 N.4       1 4YL         0.2367
     17 C9        -15.8410  -20.1610   -2.5910 C.3       1 4YL         0.0142
     18 N10       -16.1740  -18.8280   -3.1100 N.4       1 4YL         0.2642
     19 O13       -14.0370  -19.2760   -4.8440 O.2       1 4YL        -0.3674
     20 N14       -15.2060  -18.8860   -6.7550 N.am      1 4YL        -0.1942
     21 C17       -17.0770  -19.3220   -9.8350 C.3       1 4YL        -0.0907
     22 C18       -16.1580  -17.0660   -9.3660 C.3       1 4YL        -0.0907
     23 C20       -13.8990  -19.3700  -10.0560 C.ar      1 4YL         0.0183
     24 N21       -12.6610  -19.8400   -9.9000 N.ar      1 4YL        -0.2671
     25 CL        -10.6000  -20.6250   -8.5160 Cl        1 4YL        -0.0234
     26 H1        -13.5598  -15.5745   -5.4429 H         1 4YL         0.0524
     27 H2        -13.2939  -16.5473   -3.9565 H         1 4YL         0.0524
     28 H3        -13.7250  -14.8084   -3.8266 H         1 4YL         0.0524
     29 H4        -16.8904  -16.2350   -3.0864 H         1 4YL         0.0618
     30 H5        -15.3917  -15.5419   -2.3791 H         1 4YL         0.0618
     31 H6        -16.5101  -17.5708   -0.7172 H         1 4YL         0.0871
     32 H7        -14.8159  -16.9851   -0.6022 H         1 4YL         0.0871
     33 H8        -16.9263  -20.0734   -0.7407 H         1 4YL         0.0901
     34 H9        -15.9975  -22.3568   -0.9153 H         1 4YL         0.0286
     35 H10       -15.4467  -21.5278    0.5800 H         1 4YL         0.0286
     36 H11       -14.3341  -21.6853   -0.8215 H         1 4YL         0.0286
     37 H12       -17.0511  -19.6721   -4.8108 H         1 4YL         0.1073
     38 H13       -16.8322  -17.8899   -4.8596 H         1 4YL         0.1073
     39 H14       -17.1641  -19.5468   -7.3072 H         1 4YL         0.0501
     40 H15       -17.0019  -17.7717   -7.0851 H         1 4YL         0.0501
     41 H16       -12.5228  -19.9037   -6.5337 H         1 4YL         0.0656
     42 H17       -14.3402  -17.8542   -2.8452 H         1 4YL         0.0928
     43 H18       -15.1136  -19.0944    0.4796 H         1 4YL         0.2020
     44 H19       -14.0869  -19.2474   -0.7978 H         1 4YL         0.2020
     45 H20       -16.5633  -20.8877   -2.9910 H         1 4YL         0.0871
     46 H21       -14.8279  -20.4287   -2.9256 H         1 4YL         0.0871
     47 H22       -17.0994  -18.6553   -2.7496 H         1 4YL         0.2061
     48 H23       -16.7838  -19.1928  -10.8873 H         1 4YL         0.0107
     49 H24       -18.1053  -18.9578   -9.6935 H         1 4YL         0.0107
     50 H25       -17.0255  -20.3879   -9.5682 H         1 4YL         0.0107
     51 H26       -15.4766  -16.4853   -8.7268 H         1 4YL         0.0107
     52 H27       -17.1807  -16.6744   -9.2625 H         1 4YL         0.0107
     53 H28       -15.8375  -16.9820  -10.4149 H         1 4YL         0.0107
     54 H29       -14.2814  -19.2214  -11.0594 H         1 4YL         0.1002
@<TRIPOS>BOND
     1   14    1 1  
     2    2   14 1  
     3   15    2 1  
     4   15    3 1  
     5    3   16 1  
     6    4    5 1  
     7   16    4 1  
     8    4   17 1  
     9    6    7 1  
    10   18    6 1  
    11    7   19 2  
    12    7   20 am 
    13    8    9 1  
    14   20    8 1  
    15   10    9 1  
    16    9   21 1  
    17    9   22 1  
    18   13   10 ar 
    19   10   23 ar 
    20   12   11 ar 
    21   11   24 ar 
    22   11   25 1  
    23   13   12 ar 
    24   20   13 1  
    25   15   18 1  
    26   17   18 1  
    27   23   24 ar 
    28    1   26 1  
    29    1   27 1  
    30    1   28 1  
    31    2   29 1  
    32    2   30 1  
    33    3   31 1  
    34    3   32 1  
    35    4   33 1  
    36    5   34 1  
    37    5   35 1  
    38    5   36 1  
    39    6   37 1  
    40    6   38 1  
    41    8   39 1  
    42    8   40 1  
    43   12   41 1  
    44   15   42 1  
    45   16   43 1  
    46   16   44 1  
    47   17   45 1  
    48   17   46 1  
    49   18   47 1  
    50   21   48 1  
    51   21   49 1  
    52   21   50 1  
    53   22   51 1  
    54   22   52 1  
    55   22   53 1  
    56   23   54 1  
@<TRIPOS>SUBSTRUCTURE
     1 4YL         1

