### 
### Created by X-TOOL on Mon Sep 10 21:13:29 2018
### 

@<TRIPOS>MOLECULE
5c85_ligand
   19    20     1     0     0
SMALL
GAST_HUCK


@<TRIPOS>ATOM
      1 O          14.6990    0.5980   -8.4520 O.2       1 4YO        -0.3838
      2 C          14.6870    1.2550   -7.4130 C.2       1 4YO         0.2227
      3 CA         15.7980    2.0230   -7.0480 C.3       1 4YO         0.1168
      4 N          15.7660    2.4950   -5.6410 N.pl3     1 4YO        -0.3095
      5 CAL        14.5680    2.5590   -4.9240 C.ar      1 4YO         0.0657
      6 CAE        14.5080    3.2420   -3.7170 C.ar      1 4YO        -0.0479
      7 CAJ        13.3050    3.2910   -3.0320 C.ar      1 4YO        -0.0153
      8 BR1        13.1970    4.2100   -1.3930 Br        1 4YO        -0.0673
      9 CAC        12.1760    2.6640   -3.5470 C.ar      1 4YO        -0.0796
     10 CAD        12.2380    1.9840   -4.7530 C.ar      1 4YO        -0.0492
     11 CAK        13.4370    1.9410   -5.4420 C.ar      1 4YO         0.0890
     12 NAH        13.5260    1.2480   -6.6510 N.am      1 4YO        -0.2348
     13 H1         15.8432    2.9023   -7.7074 H         1 4YO         0.0755
     14 H2         16.7023    1.4126   -7.1882 H         1 4YO         0.0755
     15 H3         16.6438    2.7809   -5.1842 H         1 4YO         0.1742
     16 H4         15.3894    3.7297   -3.3165 H         1 4YO         0.0490
     17 H5         11.2404    2.7073   -3.0012 H         1 4YO         0.0493
     18 H6         11.3581    1.4920   -5.1515 H         1 4YO         0.0466
     19 H7         12.7330    0.7332   -6.9767 H         1 4YO         0.2230
@<TRIPOS>BOND
     1    1    2 2  
     2    2    3 1  
     3    2   12 am 
     4    3    4 1  
     5    4    5 1  
     6    5    6 ar 
     7    5   11 ar 
     8    6    7 ar 
     9    7    8 1  
    10    7    9 ar 
    11    9   10 ar 
    12   10   11 ar 
    13   11   12 1  
    14    3   13 1  
    15    3   14 1  
    16    4   15 1  
    17    6   16 1  
    18    9   17 1  
    19   10   18 1  
    20   12   19 1  
@<TRIPOS>SUBSTRUCTURE
     1 4YO         1

