### 
### Created by X-TOOL on Mon Sep 10 21:13:27 2018
### 

@<TRIPOS>MOLECULE
5c87_ligand
   18    19     1     0     0
SMALL
GAST_HUCK


@<TRIPOS>ATOM
      1 CAE         7.9260  -11.3340    3.7080 C.ar      1 4YS        -0.0642
      2 CAB         6.6690  -10.7760    3.5010 C.ar      1 4YS        -0.0681
      3 CAC         5.7510  -11.4340    2.6930 C.ar      1 4YS        -0.0662
      4 CAF         6.0820  -12.6460    2.0910 C.ar      1 4YS        -0.0523
      5 CAK         7.3390  -13.2060    2.2920 C.ar      1 4YS         0.0476
      6 CAJ         8.2580  -12.5450    3.1070 C.ar      1 4YS        -0.0349
      7 CAG         9.5150  -13.1010    3.3210 C.2       1 4YS        -0.0478
      8 CAD         9.8370  -14.3120    2.7150 C.2       1 4YS         0.0497
      9 NAH         8.8960  -14.9650    1.9050 N.am      1 4YS        -0.2245
     10 CAI         7.6880  -14.4270    1.7050 C.2       1 4YS         0.2263
     11 OAA         6.7680  -15.0560    0.9140 O.2       1 4YS        -0.3934
     12 H1          8.6474  -10.8258    4.3375 H         1 4YS         0.0546
     13 H2          6.4074   -9.8331    3.9676 H         1 4YS         0.0622
     14 H3          4.7704  -11.0017    2.5296 H         1 4YS         0.0548
     15 H4          5.3579  -13.1539    1.4643 H         1 4YS         0.0640
     16 H5         10.2398  -12.5940    3.9562 H         1 4YS         0.0288
     17 H6         10.8206  -14.7531    2.8699 H         1 4YS         0.1143
     18 H7          9.1296  -15.8371    1.4750 H         1 4YS         0.2490
@<TRIPOS>BOND
     1    1    2 ar 
     2    1    6 ar 
     3    2    3 ar 
     4    3    4 ar 
     5    4    5 ar 
     6    5    6 ar 
     7    5   10 1  
     8    6    7 1  
     9    7    8 2  
    10    8    9 am 
    11    9   10 am 
    12   10   11 2  
    13    1   12 1  
    14    2   13 1  
    15    3   14 1  
    16    4   15 1  
    17    7   16 1  
    18    8   17 1  
    19    9   18 1  
@<TRIPOS>SUBSTRUCTURE
     1 4YS         1

