### 
### Created by X-TOOL on Mon Sep 10 21:13:24 2018
### 

@<TRIPOS>MOLECULE
5c8k_ligand
   56    60     1     0     0
SMALL
GAST_HUCK


@<TRIPOS>ATOM
      1 C4        -51.5420   -2.3570  -28.0720 C.3       1 4YV        -0.0058
      2 C5        -52.8370   -1.6180  -27.7150 C.3       1 4YV         0.0359
      3 C11       -56.1550    0.4280  -26.5290 C.ar      1 4YV         0.0002
      4 C7        -52.0000   -1.3110  -25.3070 C.3       1 4YV         0.0359
      5 C8        -50.6720   -1.9570  -25.7080 C.3       1 4YV        -0.0058
      6 C9        -54.1300   -0.5800  -25.9650 C.ar      1 4YV         0.1771
      7 C12       -56.0640    1.2490  -25.4210 C.ar      1 4YV        -0.0022
      8 C13       -54.9450    1.1220  -24.5880 C.ar      1 4YV         0.1342
      9 C3        -50.3980   -1.7740  -27.2150 C.3       1 4YV         0.0621
     10 C1        -48.6660   -3.5600  -27.3500 C.3       1 4YV         0.0368
     11 O2        -49.0710   -2.1980  -27.5940 O.3       1 4YV        -0.3796
     12 N6        -53.1330   -1.5190  -26.2510 N.pl3     1 4YV        -0.2781
     13 N10       -55.1980   -0.4590  -26.7630 N.ar      1 4YV        -0.2724
     14 N14       -54.0110    0.2140  -24.8930 N.ar      1 4YV        -0.2378
     15 N15       -54.8680    1.9500  -23.4710 N.pl3     1 4YV        -0.2475
     16 C16       -54.2050    1.6880  -22.2690 C.ar      1 4YV         0.1224
     17 C17       -53.2060    0.7130  -22.1660 C.ar      1 4YV         0.0088
     18 C18       -52.5730    0.5140  -20.9410 C.ar      1 4YV         0.0946
     19 C19       -52.9440    1.3460  -19.8530 C.ar      1 4YV         0.0510
     20 C20       -53.9410    2.3180  -20.0450 C.ar      1 4YV         0.0021
     21 N21       -54.5330    2.4510  -21.2220 N.ar      1 4YV        -0.2941
     22 N22       -52.1790    0.9680  -18.7940 N.2       1 4YV        -0.3037
     23 C23       -51.3900   -0.0030  -19.1520 C.2       1 4YV         0.1072
     24 N24       -51.5880   -0.3310  -20.4670 N.pl3     1 4YV        -0.2295
     25 C25       -50.8640   -1.3500  -21.2530 C.3       1 4YV         0.0696
     26 C26       -49.8550   -0.6720  -22.2060 C.3       1 4YV        -0.0228
     27 C27       -48.6170   -0.4410  -21.3110 C.3       1 4YV        -0.0502
     28 C28       -48.5420   -1.7710  -20.5150 C.3       1 4YV        -0.0502
     29 C29       -49.9980   -2.2850  -20.3890 C.3       1 4YV        -0.0228
     30 H1        -51.3158   -2.2163  -29.1392 H         1 4YV         0.0310
     31 H2        -51.6558   -3.4303  -27.8596 H         1 4YV         0.0310
     32 H3        -53.6735   -2.1460  -28.1961 H         1 4YV         0.0527
     33 H4        -52.7678   -0.5967  -28.1177 H         1 4YV         0.0527
     34 H5        -57.0017    0.5087  -27.2010 H         1 4YV         0.0847
     35 H6        -51.8336   -0.2277  -25.2130 H         1 4YV         0.0527
     36 H7        -52.2944   -1.7229  -24.3305 H         1 4YV         0.0527
     37 H8        -50.7115   -3.0320  -25.4780 H         1 4YV         0.0310
     38 H9        -49.8576   -1.4892  -25.1354 H         1 4YV         0.0310
     39 H10       -56.8398    1.9737  -25.2019 H         1 4YV         0.0580
     40 H11       -50.4182   -0.6893  -27.3968 H         1 4YV         0.0597
     41 H12       -47.6329   -3.7035  -27.6995 H         1 4YV         0.0524
     42 H13       -49.3349   -4.2443  -27.8925 H         1 4YV         0.0524
     43 H14       -48.7210   -3.7714  -26.2719 H         1 4YV         0.0524
     44 H15       -55.3535    2.8559  -23.5382 H         1 4YV         0.2178
     45 H16       -52.9280    0.1196  -23.0295 H         1 4YV         0.0539
     46 H17       -54.2276    2.9639  -19.2230 H         1 4YV         0.0750
     47 H18       -50.6700   -0.4889  -18.4952 H         1 4YV         0.1352
     48 H19       -51.5960   -1.9404  -21.8237 H         1 4YV         0.0645
     49 H20       -50.2507    0.2821  -22.5843 H         1 4YV         0.0294
     50 H21       -49.6109   -1.3295  -23.0534 H         1 4YV         0.0294
     51 H22       -48.7634    0.4185  -20.6403 H         1 4YV         0.0266
     52 H23       -47.7108   -0.2849  -21.9147 H         1 4YV         0.0266
     53 H24       -48.1129   -1.5943  -19.5177 H         1 4YV         0.0266
     54 H25       -47.9248   -2.5039  -21.0552 H         1 4YV         0.0266
     55 H26       -50.0699   -3.3189  -20.7575 H         1 4YV         0.0294
     56 H27       -50.3259   -2.2460  -19.3398 H         1 4YV         0.0294
@<TRIPOS>BOND
     1    2    1 1  
     2    1    9 1  
     3   12    2 1  
     4    3    7 ar 
     5   13    3 ar 
     6    4    5 1  
     7   12    4 1  
     8    5    9 1  
     9    6   12 1  
    10    6   13 ar 
    11    6   14 ar 
    12    7    8 ar 
    13    8   14 ar 
    14    8   15 1  
    15    9   11 1  
    16   11   10 1  
    17   15   16 1  
    18   16   17 ar 
    19   16   21 ar 
    20   17   18 ar 
    21   18   19 ar 
    22   18   24 1  
    23   19   20 ar 
    24   19   22 1  
    25   20   21 ar 
    26   22   23 2  
    27   23   24 1  
    28   24   25 1  
    29   25   26 1  
    30   25   29 1  
    31   26   27 1  
    32   27   28 1  
    33   28   29 1  
    34    1   30 1  
    35    1   31 1  
    36    2   32 1  
    37    2   33 1  
    38    3   34 1  
    39    4   35 1  
    40    4   36 1  
    41    5   37 1  
    42    5   38 1  
    43    7   39 1  
    44    9   40 1  
    45   10   41 1  
    46   10   42 1  
    47   10   43 1  
    48   15   44 1  
    49   17   45 1  
    50   20   46 1  
    51   23   47 1  
    52   25   48 1  
    53   26   49 1  
    54   26   50 1  
    55   27   51 1  
    56   27   52 1  
    57   28   53 1  
    58   28   54 1  
    59   29   55 1  
    60   29   56 1  
@<TRIPOS>SUBSTRUCTURE
     1 4YV         1

