### 
### Created by X-TOOL on Mon Sep 10 21:13:25 2018
### 

@<TRIPOS>MOLECULE
5c8m_ligand
   57    60     1     0     0
SMALL
GAST_HUCK


@<TRIPOS>ATOM
      1 C4        -54.7130    1.5010  -21.2730 C.ar      1 4YW         0.0381
      2 C5        -55.7040    2.4670  -21.4950 C.ar      1 4YW        -0.0031
      3 C11       -52.6590   -1.1820  -22.6950 C.3       1 4YW         0.0637
      4 C7        -55.9480    1.8120  -23.7270 C.ar      1 4YW         0.1200
      5 C8        -54.9470    0.8420  -23.5880 C.ar      1 4YW         0.0063
      6 C9        -54.3180    0.6690  -22.3480 C.ar      1 4YW         0.0901
      7 C12       -51.1620   -0.9400  -22.9180 C.3       1 4YW        -0.0355
      8 C13       -53.0010   -2.6250  -22.3120 C.3       1 4YW        -0.0355
      9 N3        -53.9640    1.1390  -20.2020 N.2       1 4YW        -0.3161
     10 C1        -52.1870   -0.4060  -19.5120 C.3       1 4YW         0.0185
     11 C2        -53.1510    0.1760  -20.5240 C.2       1 4YW         0.1213
     12 N6        -56.2710    2.5860  -22.6870 N.ar      1 4YW        -0.2977
     13 N10       -53.3300   -0.1650  -21.8550 N.pl3     1 4YW        -0.2259
     14 N14       -56.6090    2.0600  -24.9420 N.pl3     1 4YW        -0.2485
     15 C15       -56.6920    1.2170  -26.0480 C.ar      1 4YW         0.1338
     16 C16       -57.7530    1.3750  -26.9540 C.ar      1 4YW        -0.0023
     17 C17       -57.8170    0.5370  -28.0540 C.ar      1 4YW         0.0002
     18 N18       -56.8870   -0.4030  -28.2100 N.ar      1 4YW        -0.2725
     19 C19       -55.8740   -0.5470  -27.3480 C.ar      1 4YW         0.1770
     20 N20       -55.7840    0.2660  -26.2910 N.ar      1 4YW        -0.2379
     21 N21       -54.9390   -1.5700  -27.5340 N.pl3     1 4YW        -0.2782
     22 C22       -54.5250   -1.6730  -28.9600 C.3       1 4YW         0.0353
     23 C23       -53.3440   -2.6210  -29.2000 C.3       1 4YW        -0.0099
     24 C24       -52.2430   -2.1580  -28.2430 C.3       1 4YW         0.0803
     25 C25       -52.6570   -2.4560  -26.7950 C.3       1 4YW        -0.0099
     26 C26       -53.8860   -1.5920  -26.4770 C.3       1 4YW         0.0353
     27 S27       -50.5560   -2.6080  -28.7530 S.o2      1 4YW        -0.0309
     28 O28       -50.1000   -3.6880  -27.9470 O.2       1 4YW        -0.1743
     29 O29       -50.6000   -2.7890  -30.1620 O.2       1 4YW        -0.1743
     30 C30       -49.4980   -1.1770  -28.3760 C.3       1 4YW         0.0548
     31 H1        -56.0088    3.1212  -20.6862 H         1 4YW         0.0724
     32 H2        -53.1067   -1.0492  -23.6909 H         1 4YW         0.0634
     33 H3        -54.6607    0.2288  -24.4348 H         1 4YW         0.0533
     34 H4        -50.7512   -1.7413  -23.5498 H         1 4YW         0.0258
     35 H5        -50.6429   -0.9351  -21.9482 H         1 4YW         0.0258
     36 H6        -51.0176    0.0300  -23.4161 H         1 4YW         0.0258
     37 H7        -54.0877   -2.7188  -22.1697 H         1 4YW         0.0258
     38 H8        -52.4847   -2.8884  -21.3771 H         1 4YW         0.0258
     39 H9        -52.6763   -3.3041  -23.1141 H         1 4YW         0.0258
     40 H10       -52.3164    0.1048  -18.5464 H         1 4YW         0.0497
     41 H11       -51.1549   -0.2655  -19.8657 H         1 4YW         0.0497
     42 H12       -52.3893   -1.4802  -19.3885 H         1 4YW         0.0497
     43 H13       -57.0867    2.9688  -25.0242 H         1 4YW         0.2173
     44 H14       -58.5067    2.1377  -26.7953 H         1 4YW         0.0579
     45 H15       -58.6149    0.6448  -28.7798 H         1 4YW         0.0847
     46 H16       -54.2402   -0.6701  -29.3107 H         1 4YW         0.0527
     47 H17       -55.3837   -2.0356  -29.5441 H         1 4YW         0.0527
     48 H18       -53.0009   -2.5505  -30.2427 H         1 4YW         0.0303
     49 H19       -53.6336   -3.6588  -28.9786 H         1 4YW         0.0303
     50 H20       -52.2479   -1.0601  -28.3100 H         1 4YW         0.0537
     51 H21       -51.8340   -2.2042  -26.1100 H         1 4YW         0.0303
     52 H22       -52.9096   -3.5213  -26.6886 H         1 4YW         0.0303
     53 H23       -54.3409   -1.9752  -25.5517 H         1 4YW         0.0527
     54 H24       -53.5433   -0.5591  -26.3167 H         1 4YW         0.0527
     55 H25       -48.4613   -1.4005  -28.6679 H         1 4YW         0.0464
     56 H26       -49.5377   -0.9657  -27.2972 H         1 4YW         0.0464
     57 H27       -49.8552   -0.2995  -28.9350 H         1 4YW         0.0464
@<TRIPOS>BOND
     1    1    2 ar 
     2    6    1 ar 
     3    1    9 1  
     4    2   12 ar 
     5    3    7 1  
     6    3    8 1  
     7   13    3 1  
     8    5    4 ar 
     9    4   12 ar 
    10    4   14 1  
    11    6    5 ar 
    12    6   13 1  
    13    9   11 2  
    14   11   10 1  
    15   11   13 1  
    16   14   15 1  
    17   15   16 ar 
    18   15   20 ar 
    19   16   17 ar 
    20   17   18 ar 
    21   18   19 ar 
    22   19   20 ar 
    23   19   21 1  
    24   21   22 1  
    25   21   26 1  
    26   22   23 1  
    27   23   24 1  
    28   24   25 1  
    29   24   27 1  
    30   25   26 1  
    31   27   28 2  
    32   27   29 2  
    33   27   30 1  
    34    2   31 1  
    35    3   32 1  
    36    5   33 1  
    37    7   34 1  
    38    7   35 1  
    39    7   36 1  
    40    8   37 1  
    41    8   38 1  
    42    8   39 1  
    43   10   40 1  
    44   10   41 1  
    45   10   42 1  
    46   14   43 1  
    47   16   44 1  
    48   17   45 1  
    49   22   46 1  
    50   22   47 1  
    51   23   48 1  
    52   23   49 1  
    53   24   50 1  
    54   25   51 1  
    55   25   52 1  
    56   26   53 1  
    57   26   54 1  
    58   30   55 1  
    59   30   56 1  
    60   30   57 1  
@<TRIPOS>SUBSTRUCTURE
     1 4YW         1

