### 
### Created by X-TOOL on Mon Sep 10 21:13:24 2018
### 

@<TRIPOS>MOLECULE
5c8n_ligand
   64    67     1     0     0
SMALL
GAST_HUCK


@<TRIPOS>ATOM
      1 C4        -52.7300    1.3400  -19.7870 C.ar      1 4YX         0.0381
      2 C5        -53.7190    2.2970  -19.9760 C.ar      1 4YX        -0.0031
      3 C11       -50.7840   -1.2780  -21.3360 C.3       1 4YX         0.0637
      4 C7        -53.9970    1.6700  -22.2130 C.ar      1 4YX         0.1200
      5 C8        -53.0060    0.7000  -22.1340 C.ar      1 4YX         0.0063
      6 C9        -52.3660    0.5340  -20.8950 C.ar      1 4YX         0.0901
      7 C12       -49.3450   -0.9350  -21.6970 C.3       1 4YX        -0.0355
      8 C13       -51.0860   -2.7420  -21.0570 C.3       1 4YX        -0.0355
      9 N3        -51.9620    0.9610  -18.7290 N.2       1 4YX        -0.3161
     10 C1        -50.2140   -0.6470  -18.1260 C.3       1 4YX         0.0185
     11 C2        -51.1810   -0.0150  -19.0960 C.2       1 4YX         0.1213
     12 N6        -54.3050    2.4290  -21.1600 N.ar      1 4YX        -0.2977
     13 N10       -51.3890   -0.3070  -20.4310 N.pl3     1 4YX        -0.2259
     14 N14       -54.6960    1.9350  -23.3780 N.pl3     1 4YX        -0.2485
     15 C15       -54.7860    1.1170  -24.4820 C.ar      1 4YX         0.1338
     16 C16       -55.9270    1.2060  -25.2850 C.ar      1 4YX        -0.0023
     17 C17       -55.9870    0.3840  -26.4020 C.ar      1 4YX         0.0002
     18 N18       -54.9710   -0.4310  -26.6580 N.ar      1 4YX        -0.2725
     19 C19       -53.8910   -0.4730  -25.8910 C.ar      1 4YX         0.1770
     20 N20       -53.8000    0.2860  -24.8160 N.ar      1 4YX        -0.2379
     21 N21       -52.8520   -1.3450  -26.1790 N.pl3     1 4YX        -0.2781
     22 C22       -52.5660   -1.6570  -27.5970 C.3       1 4YX         0.0361
     23 C23       -51.9310   -3.0490  -27.6180 C.3       1 4YX        -0.0027
     24 C24       -50.6760   -3.1080  -26.7170 C.3       1 4YX         0.0777
     25 C25       -50.9320   -2.5400  -25.3000 C.3       1 4YX        -0.0027
     26 C26       -51.6460   -1.1690  -25.3540 C.3       1 4YX         0.0361
     27 C27       -50.2630   -4.5790  -26.5570 C.3       1 4YX         0.0166
     28 C28       -49.7130   -5.1270  -27.8850 C.3       1 4YX        -0.0327
     29 N29       -49.1760   -6.4810  -27.7120 N.4       1 4YX         0.2186
     30 O30       -49.6490   -2.3510  -27.3940 O.3       1 4YX        -0.3762
     31 C31       -48.4320   -2.0840  -26.6810 C.3       1 4YX         0.0372
     32 H1        -54.0135    2.9386  -19.1534 H         1 4YX         0.0724
     33 H2        -51.3222   -1.1045  -22.2795 H         1 4YX         0.0634
     34 H3        -52.7377    0.0960  -22.9932 H         1 4YX         0.0533
     35 H4        -48.9455   -1.7005  -22.3785 H         1 4YX         0.0258
     36 H5        -48.7348   -0.9042  -20.7823 H         1 4YX         0.0258
     37 H6        -49.3151    0.0473  -22.1911 H         1 4YX         0.0258
     38 H7        -52.1519   -2.8559  -20.8101 H         1 4YX         0.0258
     39 H8        -50.4746   -3.0877  -20.2105 H         1 4YX         0.0258
     40 H9        -50.8501   -3.3415  -21.9486 H         1 4YX         0.0258
     41 H10       -50.3161   -0.1672  -17.1414 H         1 4YX         0.0497
     42 H11       -49.1859   -0.5138  -18.4938 H         1 4YX         0.0497
     43 H12       -50.4348   -1.7208  -18.0353 H         1 4YX         0.0497
     44 H13       -55.1985    2.8329  -23.4236 H         1 4YX         0.2173
     45 H14       -56.7330    1.8899  -25.0448 H         1 4YX         0.0579
     46 H15       -56.8513    0.4073  -27.0559 H         1 4YX         0.0847
     47 H16       -51.8696   -0.9157  -28.0159 H         1 4YX         0.0527
     48 H17       -53.4979   -1.6560  -28.1814 H         1 4YX         0.0527
     49 H18       -51.6426   -3.2957  -28.6505 H         1 4YX         0.0313
     50 H19       -52.6659   -3.7835  -27.2570 H         1 4YX         0.0313
     51 H20       -49.9678   -2.4197  -24.7845 H         1 4YX         0.0313
     52 H21       -51.5612   -3.2478  -24.7404 H         1 4YX         0.0313
     53 H22       -51.9255   -0.8483  -24.3396 H         1 4YX         0.0527
     54 H23       -50.9845   -0.4161  -25.8074 H         1 4YX         0.0527
     55 H24       -51.1395   -5.1712  -26.2555 H         1 4YX         0.0345
     56 H25       -49.4850   -4.6553  -25.7831 H         1 4YX         0.0345
     57 H26       -48.9109   -4.4648  -28.2429 H         1 4YX         0.0814
     58 H27       -50.5247   -5.1539  -28.6269 H         1 4YX         0.0814
     59 H28       -48.8225   -6.8174  -28.5940 H         1 4YX         0.1994
     60 H29       -49.9077   -7.0938  -27.3876 H         1 4YX         0.1994
     61 H30       -48.4288   -6.4623  -27.0357 H         1 4YX         0.1994
     62 H31       -47.7519   -1.5029  -27.3212 H         1 4YX         0.0524
     63 H32       -47.9527   -3.0348  -26.4048 H         1 4YX         0.0524
     64 H33       -48.6588   -1.5097  -25.7707 H         1 4YX         0.0524
@<TRIPOS>BOND
     1    1    2 ar 
     2    6    1 ar 
     3    1    9 1  
     4    2   12 ar 
     5    3    7 1  
     6    3    8 1  
     7   13    3 1  
     8    5    4 ar 
     9    4   12 ar 
    10    4   14 1  
    11    6    5 ar 
    12    6   13 1  
    13    9   11 2  
    14   11   10 1  
    15   11   13 1  
    16   14   15 1  
    17   15   16 ar 
    18   15   20 ar 
    19   16   17 ar 
    20   17   18 ar 
    21   18   19 ar 
    22   19   20 ar 
    23   19   21 1  
    24   21   22 1  
    25   21   26 1  
    26   22   23 1  
    27   23   24 1  
    28   24   25 1  
    29   24   27 1  
    30   24   30 1  
    31   25   26 1  
    32   27   28 1  
    33   28   29 1  
    34   30   31 1  
    35    2   32 1  
    36    3   33 1  
    37    5   34 1  
    38    7   35 1  
    39    7   36 1  
    40    7   37 1  
    41    8   38 1  
    42    8   39 1  
    43    8   40 1  
    44   10   41 1  
    45   10   42 1  
    46   10   43 1  
    47   14   44 1  
    48   16   45 1  
    49   17   46 1  
    50   22   47 1  
    51   22   48 1  
    52   23   49 1  
    53   23   50 1  
    54   25   51 1  
    55   25   52 1  
    56   26   53 1  
    57   26   54 1  
    58   27   55 1  
    59   27   56 1  
    60   28   57 1  
    61   28   58 1  
    62   29   59 1  
    63   29   60 1  
    64   29   61 1  
    65   31   62 1  
    66   31   63 1  
    67   31   64 1  
@<TRIPOS>SUBSTRUCTURE
     1 4YX         1

