### 
### Created by X-TOOL on Mon Sep 10 21:13:25 2018
### 

@<TRIPOS>MOLECULE
5c91_ligand
   45    46     1     0     0
SMALL
GAST_HUCK


@<TRIPOS>ATOM
      1 O3        -36.9880    3.4340   -4.4930 O.3       1 4YU        -0.3303
      2 C4        -36.1060    9.8520   -4.2280 C.3       1 4YU         0.0314
      3 C5        -35.5210    8.5530   -6.2430 C.2       1 4YU         0.1680
      4 C6        -35.0460    7.3050   -6.9370 C.2       1 4YU         0.0439
      5 N1        -33.9830    5.9530   -8.3930 N.pl3     1 4YU        -0.2575
      6 C7        -34.1540    7.2570   -8.1170 C.2       1 4YU         0.0671
      7 C8        -33.5660    8.4340   -8.8510 C.3       1 4YU         0.0017
      8 C9        -33.1560    5.4310   -9.5180 C.3       1 4YU         0.0425
      9 C10       -34.6710    5.1920   -7.5090 C.ar      1 4YU         0.0577
     10 C11       -34.7970    3.8080   -7.3950 C.ar      1 4YU        -0.0510
     11 C12       -35.5700    3.2490   -6.3800 C.ar      1 4YU        -0.0480
     12 C13       -36.2340    4.0570   -5.4600 C.ar      1 4YU         0.0703
     13 C14       -37.4800    4.0670   -3.3090 C.3       1 4YU         0.0569
     14 C15       -36.1200    5.4490   -5.5680 C.ar      1 4YU        -0.0512
     15 O1        -36.1110   10.4690   -0.5500 O.2       1 4YU        -0.3704
     16 C1        -37.2340   10.5140   -1.0360 C.2       1 4YU         0.2335
     17 O         -38.3870   10.1030   -0.2360 O.3       1 4YU        -0.2802
     18 C         -38.3640    8.9420    0.5930 C.3       1 4YU         0.0658
     19 C2        -37.4480   11.0200   -2.4520 C.3       1 4YU         0.0505
     20 C3        -37.4600    9.9120   -3.5180 C.3       1 4YU        -0.0147
     21 N         -35.6990    8.6260   -4.9130 N.am      1 4YU        -0.2940
     22 O2        -35.7220    9.5190   -6.9640 O.2       1 4YU        -0.4103
     23 C16       -35.3420    6.0000   -6.5830 C.ar      1 4YU        -0.0271
     24 H1        -35.3384   10.0625   -3.4687 H         1 4YU         0.0519
     25 H2        -36.1057   10.6532   -4.9817 H         1 4YU         0.0519
     26 H3        -33.8995    9.3674   -8.3739 H         1 4YU         0.0467
     27 H4        -33.9012    8.4176   -9.8985 H         1 4YU         0.0467
     28 H5        -32.4681    8.3765   -8.8164 H         1 4YU         0.0467
     29 H6        -32.7143    6.2737  -10.0701 H         1 4YU         0.0565
     30 H7        -33.7899    4.8405  -10.1959 H         1 4YU         0.0565
     31 H8        -32.3535    4.7937   -9.1182 H         1 4YU         0.0565
     32 H9        -34.2893    3.1619   -8.1020 H         1 4YU         0.0521
     33 H10       -35.6559    2.1710   -6.3051 H         1 4YU         0.0458
     34 H11       -38.0505    3.3387   -2.7139 H         1 4YU         0.0573
     35 H12       -38.1344    4.9064   -3.5868 H         1 4YU         0.0573
     36 H13       -36.6336    4.4428   -2.7153 H         1 4YU         0.0573
     37 H14       -36.6348    6.0939   -4.8651 H         1 4YU         0.0410
     38 H15       -39.3357    8.8318    1.0966 H         1 4YU         0.0577
     39 H16       -37.5699    9.0456    1.3471 H         1 4YU         0.0577
     40 H17       -38.1687    8.0536   -0.0255 H         1 4YU         0.0577
     41 H18       -36.6378   11.7236   -2.6939 H         1 4YU         0.0519
     42 H19       -38.4135   11.5458   -2.4890 H         1 4YU         0.0519
     43 H20       -37.6609    8.9444   -3.0349 H         1 4YU         0.0310
     44 H21       -38.2484   10.1246   -4.2550 H         1 4YU         0.0310
     45 H22       -35.5459    7.8030   -4.3660 H         1 4YU         0.1827
@<TRIPOS>BOND
     1   12    1 1  
     2    1   13 1  
     3   20    2 1  
     4    2   21 1  
     5    3    4 1  
     6   21    3 am 
     7    3   22 2  
     8    4    6 2  
     9    4   23 1  
    10    6    5 1  
    11    5    8 1  
    12    9    5 1  
    13    6    7 1  
    14    9   10 ar 
    15   23    9 ar 
    16   10   11 ar 
    17   12   11 ar 
    18   14   12 ar 
    19   23   14 ar 
    20   16   15 2  
    21   16   17 1  
    22   19   16 1  
    23   17   18 1  
    24   19   20 1  
    25    2   24 1  
    26    2   25 1  
    27    7   26 1  
    28    7   27 1  
    29    7   28 1  
    30    8   29 1  
    31    8   30 1  
    32    8   31 1  
    33   10   32 1  
    34   11   33 1  
    35   13   34 1  
    36   13   35 1  
    37   13   36 1  
    38   14   37 1  
    39   18   38 1  
    40   18   39 1  
    41   18   40 1  
    42   19   41 1  
    43   19   42 1  
    44   20   43 1  
    45   20   44 1  
    46   21   45 1  
@<TRIPOS>SUBSTRUCTURE
     1 4YU         1

