### 
### Created by X-TOOL on Mon Sep 10 21:13:24 2018
### 

@<TRIPOS>MOLECULE
5cal_ligand
   54    56     1     0     0
SMALL
GAST_HUCK


@<TRIPOS>ATOM
      1 C4        -52.7840    1.5370  -19.3620 C.ar      1 4Z8         0.0381
      2 C5        -53.7480    2.4970  -19.6950 C.ar      1 4Z8        -0.0031
      3 C11       -50.5890   -1.2760  -20.3250 C.3       1 4Z8         0.0637
      4 C7        -53.8730    1.7240  -21.8930 C.ar      1 4Z8         0.1200
      5 C8        -52.8930    0.7500  -21.6510 C.ar      1 4Z8         0.0063
      6 C9        -52.3360    0.6320  -20.3640 C.ar      1 4Z8         0.0901
      7 C12       -51.4300   -2.3860  -20.9680 C.3       1 4Z8        -0.0355
      8 C13       -49.5080   -0.7450  -21.2710 C.3       1 4Z8        -0.0355
      9 N3        -52.1060    1.2470  -18.2230 N.2       1 4Z8        -0.3161
     10 C1        -50.3980   -0.3090  -17.3570 C.3       1 4Z8         0.0185
     11 C2        -51.2960    0.2520  -18.4330 C.2       1 4Z8         0.1213
     12 N6        -54.2560    2.5440  -20.9140 N.ar      1 4Z8        -0.2977
     13 N10       -51.3910   -0.1800  -19.7360 N.pl3     1 4Z8        -0.2259
     14 N14       -54.5000    1.9380  -23.1310 N.pl3     1 4Z8        -0.2485
     15 C15       -54.5270    1.1190  -24.2560 C.ar      1 4Z8         0.1338
     16 C16       -55.6330    1.1620  -25.1240 C.ar      1 4Z8        -0.0023
     17 C17       -55.6200    0.3330  -26.2400 C.ar      1 4Z8         0.0002
     18 N18       -54.5700   -0.4650  -26.4540 N.ar      1 4Z8        -0.2726
     19 C19       -53.5430   -0.4940  -25.6070 C.ar      1 4Z8         0.1743
     20 N20       -53.5100    0.3020  -24.5500 N.ar      1 4Z8        -0.2381
     21 N21       -52.4410   -1.2840  -25.8610 N.pl3     1 4Z8        -0.2926
     22 C22       -52.2180   -2.5520  -25.1530 C.3       1 4Z8         0.0425
     23 C23       -50.9280   -3.2700  -25.6050 C.3       1 4Z8         0.0657
     24 C24       -50.7370   -3.1550  -27.1290 C.3       1 4Z8        -0.0513
     25 C25       -49.7450   -2.6010  -24.9020 C.3       1 4Z8        -0.0513
     26 C26       -50.9650   -4.7320  -25.1810 C.2       1 4Z8         0.2008
     27 O27       -51.4460   -5.0580  -24.1060 O.2       1 4Z8        -0.3445
     28 N28       -50.4470   -5.7080  -25.9660 N.am      1 4Z8        -0.2997
     29 H1        -54.0801    3.2073  -18.9465 H         1 4Z8         0.0724
     30 H2        -50.0590   -1.7483  -19.4848 H         1 4Z8         0.0634
     31 H3        -52.5671    0.0931  -22.4494 H         1 4Z8         0.0533
     32 H4        -50.7641   -3.1584  -21.3803 H         1 4Z8         0.0258
     33 H5        -52.0424   -1.9604  -21.7765 H         1 4Z8         0.0258
     34 H6        -52.0865   -2.8354  -20.2084 H         1 4Z8         0.0258
     35 H7        -48.9345    0.0459  -20.7653 H         1 4Z8         0.0258
     36 H8        -49.9814   -0.3338  -22.1748 H         1 4Z8         0.0258
     37 H9        -48.8316   -1.5656  -21.5523 H         1 4Z8         0.0258
     38 H10       -50.5524    0.2501  -16.4223 H         1 4Z8         0.0497
     39 H11       -49.3478   -0.2161  -17.6706 H         1 4Z8         0.0497
     40 H12       -50.6396   -1.3697  -17.1939 H         1 4Z8         0.0497
     41 H13       -55.0126    2.8270  -23.2191 H         1 4Z8         0.2173
     42 H14       -56.4705    1.8219  -24.9286 H         1 4Z8         0.0579
     43 H15       -56.4552    0.3341  -26.9311 H         1 4Z8         0.0847
     44 H16       -51.7560   -0.9766  -26.5661 H         1 4Z8         0.1858
     45 H17       -53.0745   -3.2157  -25.3423 H         1 4Z8         0.0515
     46 H18       -52.1458   -2.3449  -24.0751 H         1 4Z8         0.0515
     47 H19       -49.8127   -3.6740  -27.4229 H         1 4Z8         0.0222
     48 H20       -50.6672   -2.0940  -27.4108 H         1 4Z8         0.0222
     49 H21       -51.5946   -3.6149  -27.6418 H         1 4Z8         0.0222
     50 H22       -49.8742   -2.6790  -23.8124 H         1 4Z8         0.0222
     51 H23       -49.6988   -1.5406  -25.1907 H         1 4Z8         0.0222
     52 H24       -48.8116   -3.1025  -25.1974 H         1 4Z8         0.0222
     53 H25       -50.4825   -6.6616  -25.6671 H         1 4Z8         0.1820
     54 H26       -50.0293   -5.4745  -26.8441 H         1 4Z8         0.1820
@<TRIPOS>BOND
     1    1    2 ar 
     2    6    1 ar 
     3    1    9 1  
     4    2   12 ar 
     5    3    7 1  
     6    3    8 1  
     7   13    3 1  
     8    5    4 ar 
     9    4   12 ar 
    10    4   14 1  
    11    6    5 ar 
    12    6   13 1  
    13    9   11 2  
    14   11   10 1  
    15   11   13 1  
    16   14   15 1  
    17   15   16 ar 
    18   15   20 ar 
    19   16   17 ar 
    20   17   18 ar 
    21   18   19 ar 
    22   19   20 ar 
    23   19   21 1  
    24   21   22 1  
    25   22   23 1  
    26   23   24 1  
    27   23   25 1  
    28   23   26 1  
    29   26   27 2  
    30   26   28 am 
    31    2   29 1  
    32    3   30 1  
    33    5   31 1  
    34    7   32 1  
    35    7   33 1  
    36    7   34 1  
    37    8   35 1  
    38    8   36 1  
    39    8   37 1  
    40   10   38 1  
    41   10   39 1  
    42   10   40 1  
    43   14   41 1  
    44   16   42 1  
    45   17   43 1  
    46   21   44 1  
    47   22   45 1  
    48   22   46 1  
    49   24   47 1  
    50   24   48 1  
    51   24   49 1  
    52   25   50 1  
    53   25   51 1  
    54   25   52 1  
    55   28   53 1  
    56   28   54 1  
@<TRIPOS>SUBSTRUCTURE
     1 4Z8         1

