### 
### Created by X-TOOL on Mon Sep 10 21:13:24 2018
### 

@<TRIPOS>MOLECULE
5can_ligand
   55    58     1     0     0
SMALL
GAST_HUCK


@<TRIPOS>ATOM
      1 C4        -53.0750    1.5580  -19.6130 C.ar      1 4ZB         0.0381
      2 C5        -54.0750    2.5200  -19.8400 C.ar      1 4ZB        -0.0031
      3 C11       -51.0540   -1.0920  -21.1080 C.3       1 4ZB         0.0637
      4 C7        -54.3070    1.8440  -22.0850 C.ar      1 4ZB         0.1200
      5 C8        -53.2790    0.9140  -21.9500 C.ar      1 4ZB         0.0063
      6 C9        -52.6700    0.7400  -20.7020 C.ar      1 4ZB         0.0901
      7 C12       -49.5520   -0.8910  -21.3220 C.3       1 4ZB        -0.0355
      8 C13       -51.4850   -2.5300  -20.8210 C.3       1 4ZB        -0.0355
      9 N3        -52.3240    1.1770  -18.5410 N.2       1 4ZB        -0.3161
     10 C1        -50.5770   -0.4100  -17.8750 C.3       1 4ZB         0.0185
     11 C2        -51.5270    0.1970  -18.8760 C.2       1 4ZB         0.1213
     12 N6        -54.6540    2.6060  -21.0330 N.ar      1 4ZB        -0.2977
     13 N10       -51.6900   -0.1000  -20.2220 N.pl3     1 4ZB        -0.2259
     14 N14       -54.9700    2.0530  -23.3080 N.pl3     1 4ZB        -0.2485
     15 C15       -55.0130    1.1970  -24.4050 C.ar      1 4ZB         0.1338
     16 C16       -56.1600    1.1320  -25.2140 C.ar      1 4ZB        -0.0023
     17 C17       -56.1390    0.2810  -26.3160 C.ar      1 4ZB         0.0002
     18 N18       -55.0380   -0.4320  -26.5810 N.ar      1 4ZB        -0.2725
     19 C19       -53.9750   -0.3920  -25.7730 C.ar      1 4ZB         0.1769
     20 N20       -53.9650    0.4450  -24.7370 N.ar      1 4ZB        -0.2380
     21 N21       -52.7850   -1.0430  -26.0900 N.pl3     1 4ZB        -0.2789
     22 C22       -51.8100   -1.2230  -24.9800 C.3       1 4ZB         0.0330
     23 C23       -50.6580   -1.9690  -25.7030 C.3       1 4ZB        -0.0183
     24 C24       -51.4320   -2.9640  -26.6030 C.3       1 4ZB         0.0706
     25 C25       -52.8090   -2.3030  -26.8630 C.3       1 4ZB         0.0458
     26 C26       -50.7000   -3.0580  -27.9490 C.3       1 4ZB        -0.0510
     27 C27       -51.5790   -4.2940  -25.8580 C.2       1 4ZB         0.2011
     28 O28       -52.3010   -4.3900  -24.8680 O.2       1 4ZB        -0.3444
     29 N29       -50.9010   -5.3990  -26.2470 N.am      1 4ZB        -0.2997
     30 H1        -54.3734    3.1909  -19.0426 H         1 4ZB         0.0724
     31 H2        -51.4867   -0.8799  -22.0968 H         1 4ZB         0.0634
     32 H3        -52.9537    0.3304  -22.8036 H         1 4ZB         0.0533
     33 H4        -49.1692   -1.6743  -21.9928 H         1 4ZB         0.0258
     34 H5        -49.0325   -0.9509  -20.3543 H         1 4ZB         0.0258
     35 H6        -49.3748    0.0966  -21.7728 H         1 4ZB         0.0258
     36 H7        -52.5758   -2.5653  -20.6837 H         1 4ZB         0.0258
     37 H8        -50.9886   -2.8860  -19.9062 H         1 4ZB         0.0258
     38 H9        -51.2009   -3.1737  -21.6666 H         1 4ZB         0.0258
     39 H10       -50.7214    0.0689  -16.8953 H         1 4ZB         0.0497
     40 H11       -49.5413   -0.2532  -18.2106 H         1 4ZB         0.0497
     41 H12       -50.7752   -1.4885  -17.7886 H         1 4ZB         0.0497
     42 H13       -55.4825    2.9414  -23.4027 H         1 4ZB         0.2173
     43 H14       -57.0367    1.7276  -24.9866 H         1 4ZB         0.0579
     44 H15       -57.0099    0.1965  -26.9558 H         1 4ZB         0.0847
     45 H16       -52.2340   -1.8297  -24.1663 H         1 4ZB         0.0525
     46 H17       -51.4736   -0.2555  -24.5790 H         1 4ZB         0.0525
     47 H18       -50.0125   -2.4977  -24.9862 H         1 4ZB         0.0278
     48 H19       -50.0492   -1.2773  -26.3038 H         1 4ZB         0.0278
     49 H20       -52.9412   -2.0956  -27.9351 H         1 4ZB         0.0518
     50 H21       -53.6225   -2.9553  -26.5127 H         1 4ZB         0.0518
     51 H22       -49.7152   -3.5245  -27.7990 H         1 4ZB         0.0222
     52 H23       -50.5679   -2.0487  -28.3658 H         1 4ZB         0.0222
     53 H24       -51.2923   -3.6682  -28.6467 H         1 4ZB         0.0222
     54 H25       -51.0128   -6.2567  -25.7452 H         1 4ZB         0.1820
     55 H26       -50.2883   -5.3577  -27.0362 H         1 4ZB         0.1820
@<TRIPOS>BOND
     1    1    2 ar 
     2    6    1 ar 
     3    1    9 1  
     4    2   12 ar 
     5    3    7 1  
     6    3    8 1  
     7   13    3 1  
     8    5    4 ar 
     9    4   12 ar 
    10    4   14 1  
    11    6    5 ar 
    12    6   13 1  
    13    9   11 2  
    14   11   10 1  
    15   11   13 1  
    16   14   15 1  
    17   15   16 ar 
    18   15   20 ar 
    19   16   17 ar 
    20   17   18 ar 
    21   18   19 ar 
    22   19   20 ar 
    23   19   21 1  
    24   21   22 1  
    25   21   25 1  
    26   22   23 1  
    27   23   24 1  
    28   24   25 1  
    29   24   26 1  
    30   24   27 1  
    31   27   28 2  
    32   27   29 am 
    33    2   30 1  
    34    3   31 1  
    35    5   32 1  
    36    7   33 1  
    37    7   34 1  
    38    7   35 1  
    39    8   36 1  
    40    8   37 1  
    41    8   38 1  
    42   10   39 1  
    43   10   40 1  
    44   10   41 1  
    45   14   42 1  
    46   16   43 1  
    47   17   44 1  
    48   22   45 1  
    49   22   46 1  
    50   23   47 1  
    51   23   48 1  
    52   25   49 1  
    53   25   50 1  
    54   26   51 1  
    55   26   52 1  
    56   26   53 1  
    57   29   54 1  
    58   29   55 1  
@<TRIPOS>SUBSTRUCTURE
     1 4ZB         1

