### 
### Created by X-TOOL on Mon Sep 10 21:13:24 2018
### 

@<TRIPOS>MOLECULE
5cao_ligand
   56    58     1     0     0
SMALL
GAST_HUCK


@<TRIPOS>ATOM
      1 C4        -54.3970    1.6160  -21.0740 C.ar      1 4ZG         0.0381
      2 C5        -55.3900    2.5560  -21.3850 C.ar      1 4ZG        -0.0031
      3 C11       -52.1870   -1.0430  -22.3030 C.3       1 4ZG         0.0637
      4 C7        -55.4720    1.8510  -23.6080 C.ar      1 4ZG         0.1200
      5 C8        -54.4510    0.9160  -23.3860 C.ar      1 4ZG         0.0063
      6 C9        -53.9100    0.7760  -22.1020 C.ar      1 4ZG         0.0901
      7 C12       -50.7000   -0.7210  -22.4950 C.3       1 4ZG        -0.0355
      8 C13       -52.4620   -2.4900  -21.8840 C.3       1 4ZG        -0.0355
      9 N3        -53.7200    1.2850  -19.9450 N.2       1 4ZG        -0.3161
     10 C1        -51.9650   -0.2220  -19.1090 C.3       1 4ZG         0.0185
     11 C2        -52.8670    0.3310  -20.1910 C.2       1 4ZG         0.1213
     12 N6        -55.8920    2.6320  -22.6070 N.ar      1 4ZG        -0.2977
     13 N10       -52.9440   -0.0310  -21.5270 N.pl3     1 4ZG        -0.2259
     14 N14       -56.0410    2.0660  -24.8730 N.pl3     1 4ZG        -0.2485
     15 C15       -56.0580    1.1740  -25.9340 C.ar      1 4ZG         0.1338
     16 C16       -57.1330    1.2110  -26.8370 C.ar      1 4ZG        -0.0023
     17 C17       -57.1410    0.2910  -27.8790 C.ar      1 4ZG         0.0002
     18 N18       -56.1330   -0.5760  -28.0090 N.ar      1 4ZG        -0.2726
     19 C19       -55.1260   -0.5980  -27.1410 C.ar      1 4ZG         0.1745
     20 N20       -55.0850    0.2720  -26.1250 N.ar      1 4ZG        -0.2381
     21 N21       -54.1270   -1.5430  -27.3100 N.pl3     1 4ZG        -0.2900
     22 C22       -52.9540   -1.6160  -26.4250 C.3       1 4ZG         0.0550
     23 C23       -52.2460   -2.9770  -26.4950 C.3       1 4ZG         0.1021
     24 C24       -53.0810   -4.0420  -25.7600 C.3       1 4ZG        -0.0383
     25 C25       -50.9020   -2.8170  -25.7690 C.3       1 4ZG        -0.0383
     26 S26       -52.0020   -3.4120  -28.2510 S.o2      1 4ZG        -0.0268
     27 O27       -53.2720   -3.7090  -28.8270 O.2       1 4ZG        -0.1740
     28 O28       -51.2010   -2.3880  -28.8490 O.2       1 4ZG        -0.1740
     29 C29       -51.0480   -4.9630  -28.2630 C.3       1 4ZG         0.0551
     30 H1        -55.7507    3.2285  -20.6151 H         1 4ZG         0.0724
     31 H2        -52.6088   -0.9718  -23.3164 H         1 4ZG         0.0634
     32 H3        -54.0829    0.3057  -24.2028 H         1 4ZG         0.0533
     33 H4        -50.2236   -1.5227  -23.0784 H         1 4ZG         0.0258
     34 H5        -50.2118   -0.6430  -21.5124 H         1 4ZG         0.0258
     35 H6        -50.5979    0.2335  -23.0320 H         1 4ZG         0.0258
     36 H7        -53.5457   -2.6384  -21.7679 H         1 4ZG         0.0258
     37 H8        -51.9591   -2.6968  -20.9278 H         1 4ZG         0.0258
     38 H9        -52.0788   -3.1742  -22.6553 H         1 4ZG         0.0258
     39 H10       -52.1697    0.2964  -18.1606 H         1 4ZG         0.0497
     40 H11       -50.9138   -0.0658  -19.3927 H         1 4ZG         0.0497
     41 H12       -52.1559   -1.2984  -18.9871 H         1 4ZG         0.0497
     42 H13       -56.4916    2.9791  -25.0287 H         1 4ZG         0.2173
     43 H14       -57.9321    1.9349  -26.7248 H         1 4ZG         0.0579
     44 H15       -57.9636    0.2771  -28.5848 H         1 4ZG         0.0847
     45 H16       -54.2085   -2.2188  -28.0831 H         1 4ZG         0.1861
     46 H17       -53.2823   -1.4424  -25.3896 H         1 4ZG         0.0545
     47 H18       -52.2408   -0.8322  -26.7198 H         1 4ZG         0.0545
     48 H19       -53.2071   -3.7471  -24.7078 H         1 4ZG         0.0251
     49 H20       -52.5641   -5.0117  -25.8096 H         1 4ZG         0.0251
     50 H21       -54.0682   -4.1278  -26.2375 H         1 4ZG         0.0251
     51 H22       -51.0830   -2.5557  -24.7159 H         1 4ZG         0.0251
     52 H23       -50.3183   -2.0183  -26.2499 H         1 4ZG         0.0251
     53 H24       -50.3422   -3.7625  -25.8211 H         1 4ZG         0.0251
     54 H25       -50.8696   -5.2757  -29.3024 H         1 4ZG         0.0464
     55 H26       -51.6140   -5.7457  -27.7367 H         1 4ZG         0.0464
     56 H27       -50.0841   -4.8046  -27.7573 H         1 4ZG         0.0464
@<TRIPOS>BOND
     1    1    2 ar 
     2    6    1 ar 
     3    1    9 1  
     4    2   12 ar 
     5    3    7 1  
     6    3    8 1  
     7   13    3 1  
     8    5    4 ar 
     9    4   12 ar 
    10    4   14 1  
    11    6    5 ar 
    12    6   13 1  
    13    9   11 2  
    14   11   10 1  
    15   11   13 1  
    16   14   15 1  
    17   15   16 ar 
    18   15   20 ar 
    19   16   17 ar 
    20   17   18 ar 
    21   18   19 ar 
    22   19   20 ar 
    23   19   21 1  
    24   21   22 1  
    25   22   23 1  
    26   23   24 1  
    27   23   25 1  
    28   23   26 1  
    29   26   27 2  
    30   26   28 2  
    31   26   29 1  
    32    2   30 1  
    33    3   31 1  
    34    5   32 1  
    35    7   33 1  
    36    7   34 1  
    37    7   35 1  
    38    8   36 1  
    39    8   37 1  
    40    8   38 1  
    41   10   39 1  
    42   10   40 1  
    43   10   41 1  
    44   14   42 1  
    45   16   43 1  
    46   17   44 1  
    47   21   45 1  
    48   22   46 1  
    49   22   47 1  
    50   24   48 1  
    51   24   49 1  
    52   24   50 1  
    53   25   51 1  
    54   25   52 1  
    55   25   53 1  
    56   29   54 1  
    57   29   55 1  
    58   29   56 1  
@<TRIPOS>SUBSTRUCTURE
     1 4ZG         1

