### 
### Created by X-TOOL on Mon Sep 10 21:13:23 2018
### 

@<TRIPOS>MOLECULE
5caq_ligand
   55    58     1     0     0
SMALL
GAST_HUCK


@<TRIPOS>ATOM
      1 C4        -52.7160    1.3730  -19.6110 C.ar      1 4ZJ         0.0381
      2 C5        -53.7120    2.3380  -19.7850 C.ar      1 4ZJ        -0.0031
      3 C11       -50.7120   -1.1740  -21.2660 C.3       1 4ZJ         0.0637
      4 C7        -53.9860    1.7650  -22.0390 C.ar      1 4ZJ         0.1200
      5 C8        -52.9670    0.8260  -21.9580 C.ar      1 4ZJ         0.0063
      6 C9        -52.3360    0.6060  -20.7330 C.ar      1 4ZJ         0.0901
      7 C12       -51.2020   -2.6190  -21.1340 C.3       1 4ZJ        -0.0355
      8 C13       -49.2340   -0.9420  -21.5560 C.3       1 4ZJ        -0.0355
      9 N3        -51.9310    0.9620  -18.5800 N.2       1 4ZJ        -0.3161
     10 C1        -50.1270   -0.6150  -18.0300 C.3       1 4ZJ         0.0185
     11 C2        -51.1090    0.0310  -18.9770 C.2       1 4ZJ         0.1213
     12 N6        -54.3140    2.4820  -20.9610 N.ar      1 4ZJ        -0.2977
     13 N10       -51.3300   -0.2340  -20.3180 N.pl3     1 4ZJ        -0.2259
     14 N14       -54.6320    2.0420  -23.2530 N.pl3     1 4ZJ        -0.2485
     15 C15       -54.7720    1.1860  -24.3440 C.ar      1 4ZJ         0.1338
     16 C16       -55.9330    1.2570  -25.1350 C.ar      1 4ZJ        -0.0023
     17 C17       -56.0550    0.4000  -26.2200 C.ar      1 4ZJ         0.0002
     18 N18       -55.0700   -0.4610  -26.4710 N.ar      1 4ZJ        -0.2725
     19 C19       -53.9730   -0.5350  -25.7030 C.ar      1 4ZJ         0.1771
     20 N20       -53.8260    0.2990  -24.6680 N.ar      1 4ZJ        -0.2379
     21 N21       -52.9610   -1.4520  -25.9940 N.pl3     1 4ZJ        -0.2754
     22 C22       -51.7870   -1.5820  -25.0880 C.3       1 4ZJ         0.0361
     23 C23       -50.4760   -1.5250  -25.8940 C.3       1 4ZJ        -0.0031
     24 C24       -50.5320   -2.5790  -27.0240 C.3       1 4ZJ         0.0931
     25 C25       -51.7000   -2.2680  -27.9810 C.3       1 4ZJ         0.1473
     26 C26       -53.0320   -2.2840  -27.2260 C.3       1 4ZJ         0.0671
     27 F27       -51.5560   -0.9550  -28.4310 F         1 4ZJ        -0.2406
     28 O28       -49.3080   -2.5650  -27.7710 O.3       1 4ZJ        -0.3768
     29 C29       -48.4450   -3.6800  -27.5440 C.3       1 4ZJ         0.0369
     30 H1        -53.9956    2.9739  -18.9542 H         1 4ZJ         0.0724
     31 H2        -51.1695   -0.8721  -22.2197 H         1 4ZJ         0.0634
     32 H3        -52.6644    0.2692  -22.8375 H         1 4ZJ         0.0533
     33 H4        -50.6905   -3.2489  -21.8767 H         1 4ZJ         0.0258
     34 H5        -52.2876   -2.6554  -21.3077 H         1 4ZJ         0.0258
     35 H6        -50.9798   -2.9906  -20.1228 H         1 4ZJ         0.0258
     36 H7        -49.0385    0.1385  -21.6219 H         1 4ZJ         0.0258
     37 H8        -48.9677   -1.4216  -22.5095 H         1 4ZJ         0.0258
     38 H9        -48.6290   -1.3753  -20.7460 H         1 4ZJ         0.0258
     39 H10       -50.2221   -0.1569  -17.0345 H         1 4ZJ         0.0497
     40 H11       -49.1038   -0.4669  -18.4055 H         1 4ZJ         0.0497
     41 H12       -50.3395   -1.6920  -17.9598 H         1 4ZJ         0.0497
     42 H13       -55.0479    2.9795  -23.3485 H         1 4ZJ         0.2173
     43 H14       -56.7176    1.9676  -24.9016 H         1 4ZJ         0.0579
     44 H15       -56.9356    0.4308  -26.8515 H         1 4ZJ         0.0847
     45 H16       -51.8441   -2.5436  -24.5569 H         1 4ZJ         0.0527
     46 H17       -51.7996   -0.7589  -24.3584 H         1 4ZJ         0.0527
     47 H18       -49.6257   -1.7410  -25.2304 H         1 4ZJ         0.0311
     48 H19       -50.3551   -0.5227  -26.3307 H         1 4ZJ         0.0311
     49 H20       -50.6782   -3.5751  -26.5809 H         1 4ZJ         0.0626
     50 H21       -51.7114   -2.9824  -28.8173 H         1 4ZJ         0.0698
     51 H22       -53.8212   -1.8877  -27.8819 H         1 4ZJ         0.0556
     52 H23       -53.2736   -3.3200  -26.9462 H         1 4ZJ         0.0556
     53 H24       -47.5399   -3.5745  -28.1601 H         1 4ZJ         0.0524
     54 H25       -48.9672   -4.6092  -27.8157 H         1 4ZJ         0.0524
     55 H26       -48.1631   -3.7151  -26.4813 H         1 4ZJ         0.0524
@<TRIPOS>BOND
     1    1    2 ar 
     2    6    1 ar 
     3    1    9 1  
     4    2   12 ar 
     5    3    7 1  
     6    3    8 1  
     7   13    3 1  
     8    5    4 ar 
     9    4   12 ar 
    10    4   14 1  
    11    6    5 ar 
    12    6   13 1  
    13    9   11 2  
    14   11   10 1  
    15   11   13 1  
    16   14   15 1  
    17   15   16 ar 
    18   15   20 ar 
    19   16   17 ar 
    20   17   18 ar 
    21   18   19 ar 
    22   19   20 ar 
    23   19   21 1  
    24   21   22 1  
    25   21   26 1  
    26   22   23 1  
    27   23   24 1  
    28   24   25 1  
    29   24   28 1  
    30   25   26 1  
    31   25   27 1  
    32   28   29 1  
    33    2   30 1  
    34    3   31 1  
    35    5   32 1  
    36    7   33 1  
    37    7   34 1  
    38    7   35 1  
    39    8   36 1  
    40    8   37 1  
    41    8   38 1  
    42   10   39 1  
    43   10   40 1  
    44   10   41 1  
    45   14   42 1  
    46   16   43 1  
    47   17   44 1  
    48   22   45 1  
    49   22   46 1  
    50   23   47 1  
    51   23   48 1  
    52   24   49 1  
    53   25   50 1  
    54   26   51 1  
    55   26   52 1  
    56   29   53 1  
    57   29   54 1  
    58   29   55 1  
@<TRIPOS>SUBSTRUCTURE
     1 4ZJ         1

