### 
### Created by X-TOOL on Mon Sep 10 21:13:23 2018
### 

@<TRIPOS>MOLECULE
5cas_ligand
   59    62     1     0     0
SMALL
GAST_HUCK


@<TRIPOS>ATOM
      1 C14       -49.5290   -0.9330  -21.9370 C.3       1 4ZQ         0.4187
      2 C5        -52.7010    1.1850  -19.6160 C.ar      1 4ZQ         0.0382
      3 C6        -53.6990    2.1450  -19.7830 C.ar      1 4ZQ        -0.0030
      4 C8        -53.9630    1.5540  -22.0310 C.ar      1 4ZQ         0.1200
      5 C9        -52.9340    0.6070  -21.9630 C.ar      1 4ZQ         0.0063
      6 C10       -52.3000    0.3960  -20.7280 C.ar      1 4ZQ         0.0905
      7 C12       -50.5780   -1.4870  -20.9850 C.3       1 4ZQ         0.1610
      8 C13       -51.4850   -2.5990  -21.5440 C.3       1 4ZQ        -0.0267
      9 C3        -51.1220   -0.1330  -18.9190 C.2       1 4ZQ         0.1539
     10 C1        -50.0070   -0.1520  -16.6200 C.3       1 4ZQ        -0.0204
     11 C2        -50.1210   -0.8110  -17.9990 C.3       1 4ZQ         0.1340
     12 N4        -51.9480    0.8060  -18.5630 N.2       1 4ZQ        -0.3137
     13 N7        -54.2950    2.2700  -20.9560 N.ar      1 4ZQ        -0.2977
     14 N11       -51.3020   -0.4340  -20.2480 N.pl3     1 4ZQ        -0.2146
     15 F15       -48.7110   -0.0380  -21.2590 F         1 4ZQ        -0.1676
     16 F16       -48.7580   -1.9750  -22.4320 F         1 4ZQ        -0.1676
     17 F17       -50.1300   -0.2570  -22.9890 F         1 4ZQ        -0.1676
     18 N18       -54.6470    1.8740  -23.2090 N.pl3     1 4ZQ        -0.2485
     19 C19       -54.8220    1.1100  -24.3530 C.ar      1 4ZQ         0.1338
     20 C20       -56.0020    1.2570  -25.1000 C.ar      1 4ZQ        -0.0023
     21 C21       -56.1520    0.4760  -26.2450 C.ar      1 4ZQ         0.0002
     22 N22       -55.1840   -0.3760  -26.5810 N.ar      1 4ZQ        -0.2725
     23 C23       -54.0720   -0.5150  -25.8420 C.ar      1 4ZQ         0.1771
     24 N24       -53.8870    0.2600  -24.7720 N.ar      1 4ZQ        -0.2379
     25 N25       -53.0250   -1.3500  -26.2420 N.pl3     1 4ZQ        -0.2754
     26 C26       -52.0410   -1.8280  -25.2400 C.3       1 4ZQ         0.0361
     27 C27       -50.6300   -1.8160  -25.8790 C.3       1 4ZQ        -0.0031
     28 C28       -50.6230   -2.6120  -27.2070 C.3       1 4ZQ         0.0931
     29 C29       -51.7110   -2.1110  -28.1830 C.3       1 4ZQ         0.1473
     30 C30       -53.0940   -2.0810  -27.5270 C.3       1 4ZQ         0.0671
     31 F31       -51.4170   -0.7950  -28.5290 F         1 4ZQ        -0.2406
     32 O32       -49.3540   -2.4510  -27.8440 O.3       1 4ZQ        -0.3768
     33 C33       -48.5140   -3.6060  -27.7360 C.3       1 4ZQ         0.0369
     34 O34       -50.5620   -2.1560  -17.8340 O.3       1 4ZQ        -0.3700
     35 H1        -53.9841    2.7847  -18.9556 H         1 4ZQ         0.0724
     36 H2        -52.6338    0.0498  -22.8430 H         1 4ZQ         0.0533
     37 H3        -49.9864   -1.9997  -20.2122 H         1 4ZQ         0.0728
     38 H4        -52.1973   -2.9159  -20.7680 H         1 4ZQ         0.0261
     39 H5        -50.8679   -3.4574  -21.8478 H         1 4ZQ         0.0261
     40 H6        -52.0377   -2.2180  -22.4154 H         1 4ZQ         0.0261
     41 H7        -49.2673   -0.6956  -16.0139 H         1 4ZQ         0.0286
     42 H8        -50.9852   -0.1811  -16.1177 H         1 4ZQ         0.0286
     43 H9        -49.6866    0.8936  -16.7386 H         1 4ZQ         0.0286
     44 H10       -49.1301   -0.7970  -18.4763 H         1 4ZQ         0.0864
     45 H11       -55.0813    2.8077  -23.2293 H         1 4ZQ         0.2173
     46 H12       -56.7725    1.9562  -24.7957 H         1 4ZQ         0.0579
     47 H13       -57.0446    0.5607  -26.8542 H         1 4ZQ         0.0847
     48 H14       -52.2973   -2.8517  -24.9296 H         1 4ZQ         0.0527
     49 H15       -52.0549   -1.1645  -24.3628 H         1 4ZQ         0.0527
     50 H16       -49.9135   -2.2730  -25.1806 H         1 4ZQ         0.0311
     51 H17       -50.3336   -0.7759  -26.0801 H         1 4ZQ         0.0311
     52 H18       -50.7961   -3.6758  -26.9870 H         1 4ZQ         0.0626
     53 H19       -51.7309   -2.7536  -29.0755 H         1 4ZQ         0.0698
     54 H20       -53.8048   -1.5751  -28.1970 H         1 4ZQ         0.0556
     55 H21       -53.4331   -3.1111  -27.3431 H         1 4ZQ         0.0556
     56 H22       -47.5584   -3.4133  -28.2457 H         1 4ZQ         0.0524
     57 H23       -49.0125   -4.4671  -28.2049 H         1 4ZQ         0.0524
     58 H24       -48.3258   -3.8246  -26.6745 H         1 4ZQ         0.0524
     59 H25       -51.4096   -2.1598  -17.4050 H         1 4ZQ         0.2143
@<TRIPOS>BOND
     1    7    1 1  
     2    1   15 1  
     3    1   16 1  
     4    1   17 1  
     5    2    3 ar 
     6    2    6 ar 
     7   12    2 1  
     8    3   13 ar 
     9    5    4 ar 
    10   13    4 ar 
    11    4   18 1  
    12    6    5 ar 
    13    6   14 1  
    14    7    8 1  
    15   14    7 1  
    16    9   11 1  
    17    9   12 2  
    18    9   14 1  
    19   11   10 1  
    20   11   34 1  
    21   18   19 1  
    22   19   20 ar 
    23   19   24 ar 
    24   20   21 ar 
    25   21   22 ar 
    26   22   23 ar 
    27   23   24 ar 
    28   23   25 1  
    29   25   26 1  
    30   25   30 1  
    31   26   27 1  
    32   27   28 1  
    33   28   29 1  
    34   28   32 1  
    35   29   30 1  
    36   29   31 1  
    37   32   33 1  
    38    3   35 1  
    39    5   36 1  
    40    7   37 1  
    41    8   38 1  
    42    8   39 1  
    43    8   40 1  
    44   10   41 1  
    45   10   42 1  
    46   10   43 1  
    47   11   44 1  
    48   18   45 1  
    49   20   46 1  
    50   21   47 1  
    51   26   48 1  
    52   26   49 1  
    53   27   50 1  
    54   27   51 1  
    55   28   52 1  
    56   29   53 1  
    57   30   54 1  
    58   30   55 1  
    59   33   56 1  
    60   33   57 1  
    61   33   58 1  
    62   34   59 1  
@<TRIPOS>SUBSTRUCTURE
     1 4ZQ         1

