### 
### Created by X-TOOL on Mon Sep 10 21:13:23 2018
### 

@<TRIPOS>MOLECULE
5cau_ligand
   59    62     1     0     0
SMALL
GAST_HUCK


@<TRIPOS>ATOM
      1 C14       -49.6030   -1.0120  -21.9970 C.3       1 4ZR         0.4187
      2 C5        -52.7440    1.0990  -19.7160 C.ar      1 4ZR         0.0382
      3 C6        -53.7210    2.0750  -19.8810 C.ar      1 4ZR        -0.0030
      4 C8        -53.9950    1.4740  -22.1210 C.ar      1 4ZR         0.1200
      5 C9        -53.0030    0.4930  -22.0470 C.ar      1 4ZR         0.0063
      6 C10       -52.3640    0.2850  -20.8170 C.ar      1 4ZR         0.0905
      7 C12       -50.6690   -1.6110  -21.0870 C.3       1 4ZR         0.1610
      8 C13       -51.5250   -2.7360  -21.6940 C.3       1 4ZR        -0.0267
      9 C3        -51.1770   -0.2280  -19.0130 C.2       1 4ZR         0.1539
     10 C1        -50.1140   -0.1730  -16.7040 C.3       1 4ZR        -0.0204
     11 C2        -50.1770   -0.8640  -18.0690 C.3       1 4ZR         0.1340
     12 N4        -51.9920    0.7190  -18.6640 N.2       1 4ZR        -0.3137
     13 N7        -54.2970    2.2230  -21.0590 N.ar      1 4ZR        -0.2977
     14 N11       -51.3960   -0.5730  -20.3300 N.pl3     1 4ZR        -0.2146
     15 F15       -50.1770   -0.3040  -23.0390 F         1 4ZR        -0.1676
     16 F16       -48.8080   -0.1400  -21.2550 F         1 4ZR        -0.1676
     17 F17       -48.8150   -2.0260  -22.5250 F         1 4ZR        -0.1676
     18 N18       -54.6860    1.7850  -23.2900 N.pl3     1 4ZR        -0.2485
     19 C19       -54.8980    1.0050  -24.4110 C.ar      1 4ZR         0.1338
     20 C20       -56.1110    1.1230  -25.1090 C.ar      1 4ZR        -0.0023
     21 C21       -56.2620    0.3410  -26.2460 C.ar      1 4ZR         0.0002
     22 N22       -55.2910   -0.4890  -26.6260 N.ar      1 4ZR        -0.2725
     23 C23       -54.1490   -0.5950  -25.9380 C.ar      1 4ZR         0.1771
     24 N24       -53.9610    0.1750  -24.8650 N.ar      1 4ZR        -0.2379
     25 N25       -53.0950   -1.4080  -26.3760 N.pl3     1 4ZR        -0.2754
     26 C26       -53.1940   -2.1540  -27.6530 C.3       1 4ZR         0.0361
     27 C27       -51.8190   -2.2230  -28.3440 C.3       1 4ZR        -0.0031
     28 C28       -50.7440   -2.7320  -27.3600 C.3       1 4ZR         0.0931
     29 C29       -50.6940   -1.8630  -26.0800 C.3       1 4ZR         0.1473
     30 C30       -52.0740   -1.8560  -25.3980 C.3       1 4ZR         0.0671
     31 F31       -50.3550   -0.5590  -26.4610 F         1 4ZR        -0.2406
     32 O32       -49.4770   -2.6730  -28.0180 O.3       1 4ZR        -0.3768
     33 C33       -48.5890   -3.7410  -27.6710 C.3       1 4ZR         0.0369
     34 O34       -50.5880   -2.2060  -17.8730 O.3       1 4ZR        -0.3700
     35 H1        -54.0068    2.7086  -19.0492 H         1 4ZR         0.0724
     36 H2        -52.7343   -0.0925  -22.9188 H         1 4ZR         0.0533
     37 H3        -50.0870   -2.1357  -20.3150 H         1 4ZR         0.0728
     38 H4        -52.2536   -3.0856  -20.9478 H         1 4ZR         0.0261
     39 H5        -50.8747   -3.5720  -21.9911 H         1 4ZR         0.0261
     40 H6        -52.0588   -2.3549  -22.5770 H         1 4ZR         0.0261
     41 H7        -49.3727   -0.6811  -16.0697 H         1 4ZR         0.0286
     42 H8        -51.1021   -0.2204  -16.2230 H         1 4ZR         0.0286
     43 H9        -49.8218    0.8789  -16.8386 H         1 4ZR         0.0286
     44 H10       -49.1780   -0.8370  -18.5287 H         1 4ZR         0.0864
     45 H11       -55.0966    2.7290  -23.3236 H         1 4ZR         0.2173
     46 H12       -56.8939    1.7943  -24.7750 H         1 4ZR         0.0579
     47 H13       -57.1744    0.4058  -26.8277 H         1 4ZR         0.0847
     48 H14       -53.9075   -1.6434  -28.3164 H         1 4ZR         0.0527
     49 H15       -53.5487   -3.1751  -27.4494 H         1 4ZR         0.0527
     50 H16       -51.5404   -1.2190  -28.6968 H         1 4ZR         0.0311
     51 H17       -51.8788   -2.9095  -29.2014 H         1 4ZR         0.0311
     52 H18       -50.9696   -3.7717  -27.0805 H         1 4ZR         0.0626
     53 H19       -49.9400   -2.2609  -25.3849 H         1 4ZR         0.0698
     54 H20       -52.3178   -2.8703  -25.0491 H         1 4ZR         0.0556
     55 H21       -52.0578   -1.1673  -24.5405 H         1 4ZR         0.0556
     56 H22       -47.6417   -3.6223  -28.2173 H         1 4ZR         0.0524
     57 H23       -49.0495   -4.7030  -27.9403 H         1 4ZR         0.0524
     58 H24       -48.3934   -3.7183  -26.5888 H         1 4ZR         0.0524
     59 H25       -51.4449   -2.2169  -17.4629 H         1 4ZR         0.2143
@<TRIPOS>BOND
     1    7    1 1  
     2    1   15 1  
     3    1   16 1  
     4    1   17 1  
     5    2    3 ar 
     6    2    6 ar 
     7   12    2 1  
     8    3   13 ar 
     9    5    4 ar 
    10   13    4 ar 
    11    4   18 1  
    12    6    5 ar 
    13    6   14 1  
    14    7    8 1  
    15   14    7 1  
    16    9   11 1  
    17    9   12 2  
    18    9   14 1  
    19   11   10 1  
    20   11   34 1  
    21   18   19 1  
    22   19   20 ar 
    23   19   24 ar 
    24   20   21 ar 
    25   21   22 ar 
    26   22   23 ar 
    27   23   24 ar 
    28   23   25 1  
    29   25   26 1  
    30   25   30 1  
    31   26   27 1  
    32   27   28 1  
    33   28   29 1  
    34   28   32 1  
    35   29   30 1  
    36   29   31 1  
    37   32   33 1  
    38    3   35 1  
    39    5   36 1  
    40    7   37 1  
    41    8   38 1  
    42    8   39 1  
    43    8   40 1  
    44   10   41 1  
    45   10   42 1  
    46   10   43 1  
    47   11   44 1  
    48   18   45 1  
    49   20   46 1  
    50   21   47 1  
    51   26   48 1  
    52   26   49 1  
    53   27   50 1  
    54   27   51 1  
    55   28   52 1  
    56   29   53 1  
    57   30   54 1  
    58   30   55 1  
    59   33   56 1  
    60   33   57 1  
    61   33   58 1  
    62   34   59 1  
@<TRIPOS>SUBSTRUCTURE
     1 4ZR         1

