### 
### Created by X-TOOL on Mon Sep 10 21:13:24 2018
### 

@<TRIPOS>MOLECULE
5cav_ligand
   59    62     1     0     0
SMALL
GAST_HUCK


@<TRIPOS>ATOM
      1 C14       -49.7640   -1.3820  -21.5290 C.3       1 4ZQ         0.4187
      2 C5        -52.9230    0.9730  -19.4470 C.ar      1 4ZQ         0.0382
      3 C6        -53.8650    1.9770  -19.6830 C.ar      1 4ZQ        -0.0030
      4 C8        -54.1440    1.2900  -21.8900 C.ar      1 4ZQ         0.1200
      5 C9        -53.1900    0.2710  -21.7430 C.ar      1 4ZQ         0.0063
      6 C10       -52.5580    0.0910  -20.4990 C.ar      1 4ZQ         0.0905
      7 C12       -50.8730   -1.8900  -20.6000 C.3       1 4ZQ         0.1610
      8 C13       -51.7820   -2.8800  -21.3390 C.3       1 4ZQ        -0.0267
      9 C3        -51.4150   -0.3720  -18.6440 C.2       1 4ZQ         0.1539
     10 C1        -50.0430   -0.0170  -16.5540 C.3       1 4ZQ        -0.0204
     11 C2        -50.4680   -1.0090  -17.6410 C.3       1 4ZQ         0.1340
     12 N4        -52.2060    0.6240  -18.3580 N.2       1 4ZQ        -0.3137
     13 N7        -54.4320    2.0920  -20.8680 N.ar      1 4ZQ        -0.2977
     14 N11       -51.6060   -0.7710  -19.9510 N.pl3     1 4ZQ        -0.2146
     15 F15       -49.0110   -0.3920  -20.8910 F         1 4ZQ        -0.1676
     16 F16       -48.9130   -2.4550  -21.8220 F         1 4ZQ        -0.1676
     17 F17       -50.3060   -0.8570  -22.7080 F         1 4ZQ        -0.1676
     18 N18       -54.8200    1.5940  -23.0790 N.pl3     1 4ZQ        -0.2485
     19 C19       -54.9520    0.8260  -24.2280 C.ar      1 4ZQ         0.1338
     20 C20       -56.1270    0.9370  -24.9910 C.ar      1 4ZQ        -0.0023
     21 C21       -56.2470    0.1510  -26.1290 C.ar      1 4ZQ         0.0002
     22 N22       -55.2470   -0.6600  -26.4730 N.ar      1 4ZQ        -0.2725
     23 C23       -54.1420   -0.7650  -25.7270 C.ar      1 4ZQ         0.1771
     24 N24       -53.9860    0.0030  -24.6460 N.ar      1 4ZQ        -0.2379
     25 N25       -53.1050   -1.6170  -26.1060 N.pl3     1 4ZQ        -0.2754
     26 C26       -52.2620   -2.2180  -25.0550 C.3       1 4ZQ         0.0361
     27 C27       -50.8370   -2.3070  -25.6240 C.3       1 4ZQ        -0.0031
     28 C28       -50.8480   -3.0610  -26.9750 C.3       1 4ZQ         0.0931
     29 C29       -51.9230   -2.5240  -27.9540 C.3       1 4ZQ         0.1473
     30 C30       -53.2910   -2.4940  -27.2760 C.3       1 4ZQ         0.0671
     31 F31       -51.6420   -1.2060  -28.3330 F         1 4ZQ        -0.2406
     32 O32       -49.5470   -2.9420  -27.5760 O.3       1 4ZQ        -0.3768
     33 C33       -48.7300   -4.1190  -27.6160 C.3       1 4ZQ         0.0369
     34 O34       -51.1150   -2.1340  -17.0390 O.3       1 4ZQ        -0.3700
     35 H1        -54.1311    2.6647  -18.8885 H         1 4ZQ         0.0724
     36 H2        -52.9424   -0.3714  -22.5803 H         1 4ZQ         0.0533
     37 H3        -50.3845   -2.4529  -19.7910 H         1 4ZQ         0.0728
     38 H4        -52.5702   -3.2330  -20.6576 H         1 4ZQ         0.0261
     39 H5        -51.1858   -3.7371  -21.6852 H         1 4ZQ         0.0261
     40 H6        -52.2421   -2.3800  -22.2040 H         1 4ZQ         0.0261
     41 H7        -49.3601   -0.5149  -15.8499 H         1 4ZQ         0.0286
     42 H8        -50.9327    0.3376  -16.0130 H         1 4ZQ         0.0286
     43 H9        -49.5309    0.8386  -17.0183 H         1 4ZQ         0.0286
     44 H10       -49.5688   -1.3525  -18.1733 H         1 4ZQ         0.0864
     45 H11       -55.2827    2.5139  -23.1041 H         1 4ZQ         0.2173
     46 H12       -56.9182    1.6179  -24.6988 H         1 4ZQ         0.0579
     47 H13       -57.1463    0.1965  -26.7325 H         1 4ZQ         0.0847
     48 H14       -52.6317   -3.2225  -24.8016 H         1 4ZQ         0.0527
     49 H15       -52.2713   -1.5859  -24.1548 H         1 4ZQ         0.0527
     50 H16       -50.1944   -2.8459  -24.9122 H         1 4ZQ         0.0311
     51 H17       -50.4429   -1.2916  -25.7777 H         1 4ZQ         0.0311
     52 H18       -51.0589   -4.1228  -26.7798 H         1 4ZQ         0.0626
     53 H19       -51.9566   -3.1708  -28.8431 H         1 4ZQ         0.0698
     54 H20       -54.0519   -2.0808  -27.9544 H         1 4ZQ         0.0556
     55 H21       -53.5907   -3.5043  -26.9607 H         1 4ZQ         0.0556
     56 H22       -47.7704   -3.8830  -28.0992 H         1 4ZQ         0.0524
     57 H23       -49.2456   -4.9040  -28.1887 H         1 4ZQ         0.0524
     58 H24       -48.5469   -4.4733  -26.5909 H         1 4ZQ         0.0524
     59 H25       -51.3771   -2.7468  -17.7160 H         1 4ZQ         0.2143
@<TRIPOS>BOND
     1    7    1 1  
     2    1   15 1  
     3    1   16 1  
     4    1   17 1  
     5    2    3 ar 
     6    2    6 ar 
     7   12    2 1  
     8    3   13 ar 
     9    5    4 ar 
    10   13    4 ar 
    11    4   18 1  
    12    6    5 ar 
    13    6   14 1  
    14    7    8 1  
    15   14    7 1  
    16    9   11 1  
    17    9   12 2  
    18    9   14 1  
    19   11   10 1  
    20   11   34 1  
    21   18   19 1  
    22   19   20 ar 
    23   19   24 ar 
    24   20   21 ar 
    25   21   22 ar 
    26   22   23 ar 
    27   23   24 ar 
    28   23   25 1  
    29   25   26 1  
    30   25   30 1  
    31   26   27 1  
    32   27   28 1  
    33   28   29 1  
    34   28   32 1  
    35   29   30 1  
    36   29   31 1  
    37   32   33 1  
    38    3   35 1  
    39    5   36 1  
    40    7   37 1  
    41    8   38 1  
    42    8   39 1  
    43    8   40 1  
    44   10   41 1  
    45   10   42 1  
    46   10   43 1  
    47   11   44 1  
    48   18   45 1  
    49   20   46 1  
    50   21   47 1  
    51   26   48 1  
    52   26   49 1  
    53   27   50 1  
    54   27   51 1  
    55   28   52 1  
    56   29   53 1  
    57   30   54 1  
    58   30   55 1  
    59   33   56 1  
    60   33   57 1  
    61   33   58 1  
    62   34   59 1  
@<TRIPOS>SUBSTRUCTURE
     1 4ZQ         1

