### 
### Created by X-TOOL on Mon Sep 10 21:13:23 2018
### 

@<TRIPOS>MOLECULE
5cbr_ligand
   33    34     1     0     0
SMALL
GAST_HUCK


@<TRIPOS>ATOM
      1 N1          6.7590   11.9520   48.0490 N.4       1 4ZK         0.2341
      2 C4          8.6980   13.7030   49.2220 C.ar      1 4ZK        -0.0339
      3 C5          8.2450   14.6080   50.1950 C.ar      1 4ZK        -0.0505
      4 C6          9.4960   12.6150   49.5910 C.ar      1 4ZK        -0.0446
      5 C7          9.8400   12.4600   50.9430 C.ar      1 4ZK         0.0494
      6 C8          9.3950   13.3630   51.9140 C.ar      1 4ZK         0.0563
      7 C10         8.1190   15.4480   52.5470 C.ar      1 4ZK        -0.0010
      8 C13         7.2570   17.3450   54.3730 C.ar      1 4ZK         0.0389
      9 O1          6.1180   14.7990   45.7610 O.co2     1 4ZK        -0.5641
     10 C1          6.3810   13.6300   46.1340 C.2       1 4ZK         0.0866
     11 O2          6.3260   12.5740   45.4440 O.co2     1 4ZK        -0.5641
     12 C2          6.8430   13.3920   47.6040 C.3       1 4ZK         0.0378
     13 C3          8.2850   13.8890   47.7850 C.3       1 4ZK         0.0364
     14 CL1        10.8240   11.1190   51.3900 Cl        1 4ZK        -0.0715
     15 CL2         9.8380   13.1150   53.5870 Cl        1 4ZK        -0.0741
     16 C9          8.5870   14.4550   51.5580 C.ar      1 4ZK        -0.0061
     17 C11         9.0470   16.1540   53.3330 C.ar      1 4ZK        -0.0071
     18 C12         6.7700   15.7680   52.7280 C.ar      1 4ZK         0.0071
     19 N2          6.3290   16.6990   53.6200 N.ar      1 4ZK        -0.3065
     20 C14         8.6170   17.0960   54.2650 C.ar      1 4ZK         0.1153
     21 O3          9.5470   17.7460   55.0220 O.3       1 4ZK        -0.3256
     22 H1          7.0722   11.8767   49.0042 H         1 4ZK         0.2012
     23 H2          7.3442   11.3829   47.4577 H         1 4ZK         0.2012
     24 H3          5.8045   11.6348   47.9824 H         1 4ZK         0.2012
     25 H4          7.6201   15.4413   49.8949 H         1 4ZK         0.0570
     26 H5          9.8418   11.9058   48.8477 H         1 4ZK         0.0571
     27 H6          6.9202   18.0864   55.0885 H         1 4ZK         0.0746
     28 H7          6.1850   13.9830   48.2580 H         1 4ZK         0.1048
     29 H8          8.9570   13.3131   47.1318 H         1 4ZK         0.0501
     30 H9          8.3421   14.9553   47.5211 H         1 4ZK         0.0501
     31 H10        10.1073   15.9634   53.2125 H         1 4ZK         0.0660
     32 H11         6.0346   15.2469   52.1257 H         1 4ZK         0.0737
     33 H12         9.1092   18.3528   55.6074 H         1 4ZK         0.2505
@<TRIPOS>BOND
     1   12    1 1  
     2    3    2 ar 
     3    2    4 ar 
     4    2   13 1  
     5   16    3 ar 
     6    5    4 ar 
     7    6    5 ar 
     8    5   14 1  
     9    6   15 1  
    10   16    6 ar 
    11    7   16 1  
    12   17    7 ar 
    13    7   18 ar 
    14    8   19 ar 
    15   20    8 ar 
    16   10    9 ar 
    17   10   11 ar 
    18   12   10 1  
    19   13   12 1  
    20   17   20 ar 
    21   18   19 ar 
    22   20   21 1  
    23    1   22 1  
    24    1   23 1  
    25    1   24 1  
    26    3   25 1  
    27    4   26 1  
    28    8   27 1  
    29   12   28 1  
    30   13   29 1  
    31   13   30 1  
    32   17   31 1  
    33   18   32 1  
    34   21   33 1  
@<TRIPOS>SUBSTRUCTURE
     1 4ZK         1

