### 
### Created by X-TOOL on Mon Sep 10 21:13:22 2018
### 

@<TRIPOS>MOLECULE
5cbs_ligand
   34    35     1     0     0
SMALL
GAST_HUCK


@<TRIPOS>ATOM
      1 C1         59.9830    0.6430   40.4580 C.ar      1 E42        -0.0528
      2 C2         60.8480    1.2090   41.4140 C.ar      1 E42        -0.0355
      3 C3         61.0430    0.5410   42.6390 C.ar      1 E42        -0.0598
      4 C4         60.3960   -0.6600   42.9120 C.ar      1 E42        -0.0677
      5 C5         59.5490   -1.2130   41.9470 C.ar      1 E42        -0.0610
      6 C6         59.3350   -0.5750   40.7130 C.ar      1 E42        -0.0274
      7 C7         56.6780   -2.3600   37.8550 C.ar      1 E42        -0.0331
      8 C8         56.6630   -0.9790   38.0520 C.ar      1 E42        -0.0697
      9 C9         57.5310   -0.3850   38.9830 C.ar      1 E42        -0.0651
     10 C10        58.4230   -1.1780   39.7220 C.ar      1 E42        -0.0286
     11 C11        58.4150   -2.5670   39.5120 C.ar      1 E42        -0.0263
     12 C12        57.5540   -3.1460   38.5870 C.ar      1 E42         0.0880
     13 O1         57.5990   -4.5070   38.4460 O.3       1 E42        -0.3332
     14 C13        61.5320    2.5240   41.1030 C.3       1 E42         0.0361
     15 C14        60.8990    3.7430   41.8180 C.3       1 E42         0.0378
     16 N1         59.4630    3.9110   41.3880 N.4       1 E42         0.2341
     17 C15        60.9860    3.5450   43.3610 C.2       1 E42         0.0866
     18 O2         59.8950    3.5890   44.0020 O.co2     1 E42        -0.5641
     19 O3         62.1380    3.3130   43.8270 O.co2     1 E42        -0.5641
     20 H1         59.8162    1.1531   39.5162 H         1 E42         0.0560
     21 H2         61.7076    0.9695   43.3805 H         1 E42         0.0559
     22 H3         60.5468   -1.1609   43.8614 H         1 E42         0.0600
     23 H4         59.0478   -2.1516   42.1544 H         1 E42         0.0567
     24 H5         56.0088   -2.8154   37.1340 H         1 E42         0.0545
     25 H6         55.9777   -0.3609   37.4834 H         1 E42         0.0590
     26 H7         57.5120    0.6887   39.1312 H         1 E42         0.0532
     27 H8         59.0904   -3.1967   40.0798 H         1 E42         0.0544
     28 H9         56.9681   -4.7772   37.7892 H         1 E42         0.2480
     29 H10        61.4801    2.6935   40.0174 H         1 E42         0.0500
     30 H11        62.5849    2.4489   41.4125 H         1 E42         0.0500
     31 H12        61.4590    4.6489   41.5430 H         1 E42         0.1048
     32 H13        59.0620    4.7066   41.8594 H         1 E42         0.2012
     33 H14        58.9418    3.0817   41.6259 H         1 E42         0.2012
     34 H15        59.4256    4.0570   40.3913 H         1 E42         0.2012
@<TRIPOS>BOND
     1    1    2 ar 
     2    6    1 ar 
     3    2    3 ar 
     4    2   14 1  
     5    4    3 ar 
     6    5    4 ar 
     7    6    5 ar 
     8   10    6 1  
     9    8    7 ar 
    10    7   12 ar 
    11    9    8 ar 
    12    9   10 ar 
    13   10   11 ar 
    14   11   12 ar 
    15   12   13 1  
    16   14   15 1  
    17   15   16 1  
    18   15   17 1  
    19   17   18 ar 
    20   17   19 ar 
    21    1   20 1  
    22    3   21 1  
    23    4   22 1  
    24    5   23 1  
    25    7   24 1  
    26    8   25 1  
    27    9   26 1  
    28   11   27 1  
    29   13   28 1  
    30   14   29 1  
    31   14   30 1  
    32   15   31 1  
    33   16   32 1  
    34   16   33 1  
    35   16   34 1  
@<TRIPOS>SUBSTRUCTURE
     1 E42         1

