### 
### Created by X-TOOL on Mon Sep 10 21:13:24 2018
### 

@<TRIPOS>MOLECULE
5cc2_ligand
   20    21     1     0     0
SMALL
GAST_HUCK


@<TRIPOS>ATOM
      1 C4         13.4810    4.0170   23.7140 C.ar      1 CKA        -0.0440
      2 C5         14.8290    3.8580   23.4270 C.ar      1 CKA        -0.0446
      3 C6         15.5900    5.0010   23.1060 C.ar      1 CKA         0.0438
      4 C7         15.0430    6.2730   23.0660 C.ar      1 CKA        -0.0269
      5 C8         13.6690    6.4230   23.3600 C.ar      1 CKA         0.0474
      6 C9         11.7610    7.8590   23.6060 C.2       1 CKA         0.1009
      7 C10        11.3130    9.3380   23.5200 C.2       1 CKA         0.1099
      8 N1         13.0750    7.6590   23.3350 N.2       1 CKA        -0.2735
      9 C3         12.8750    5.2910   23.6880 C.ar      1 CKA         0.0497
     10 C1         10.9380    6.8080   23.9310 C.3       1 CKA         0.0916
     11 C2         11.4290    5.4450   23.9960 C.2       1 CKA         0.1481
     12 O1         10.7160    4.4670   24.2830 O.2       1 CKA        -0.3840
     13 CL1        17.2930    4.8030   22.7440 Cl        1 CKA        -0.0671
     14 O2         12.2300   10.1370   23.2090 O.co2     1 CKA        -0.5478
     15 O3         10.1140    9.5750   23.7720 O.co2     1 CKA        -0.5478
     16 H1         12.8831    3.1476   23.9625 H         1 CKA         0.0663
     17 H2         15.2875    2.8760   23.4490 H         1 CKA         0.0613
     18 H3         15.6541    7.1325   22.8153 H         1 CKA         0.0623
     19 H4         10.1272    6.8091   23.1876 H         1 CKA         0.0773
     20 H5         10.5246    7.0351   24.9247 H         1 CKA         0.0773
@<TRIPOS>BOND
     1    1    2 ar 
     2    9    1 ar 
     3    3    2 ar 
     4    4    3 ar 
     5    3   13 1  
     6    5    4 ar 
     7    8    5 1  
     8    5    9 ar 
     9    6    7 1  
    10    6    8 2  
    11    6   10 1  
    12    7   14 ar 
    13    7   15 ar 
    14    9   11 1  
    15   10   11 1  
    16   11   12 2  
    17    1   16 1  
    18    2   17 1  
    19    4   18 1  
    20   10   19 1  
    21   10   20 1  
@<TRIPOS>SUBSTRUCTURE
     1 CKA         1

