### 
### Created by X-TOOL on Mon Sep 10 21:13:20 2018
### 

@<TRIPOS>MOLECULE
5ccl_ligand
   37    39     1     0     0
SMALL
GAST_HUCK


@<TRIPOS>ATOM
      1 O01        16.2170    4.5520   14.4640 O.2       1 4ZW        -0.3919
      2 C02        16.2430    4.6490   15.7010 C.2       1 4ZW         0.1923
      3 N03        17.1730    3.9350   16.3710 N.am      1 4ZW        -0.2851
      4 C05        18.2170    3.1400   15.6830 C.3       1 4ZW         0.0508
      5 C07        17.6640    1.8030   15.2500 C.3       1 4ZW         0.0105
      6 C10        18.7560    0.9550   14.6350 C.3       1 4ZW        -0.0315
      7 N13        19.9210    0.8300   15.5210 N.4       1 4ZW         0.2271
      8 C15        20.4930    2.1100   15.8990 C.3       1 4ZW        -0.0315
      9 C18        19.4330    2.9660   16.5820 C.3       1 4ZW         0.0105
     10 C21        15.1960    5.4370   16.3980 C.ar      1 4ZW         0.0278
     11 C22        14.7520    6.5820   15.7280 C.ar      1 4ZW        -0.0509
     12 C24        13.7500    7.3470   16.2930 C.ar      1 4ZW         0.0047
     13 C25        13.1420    6.9110   17.4600 C.ar      1 4ZW         0.0779
     14 N26        12.1350    7.8060   17.8140 N.am      1 4ZW        -0.2319
     15 C28        11.9920    8.8110   16.8700 C.2       1 4ZW         0.2108
     16 O29        11.1320    9.6670   16.8590 O.2       1 4ZW        -0.3878
     17 C30        13.0470    8.5700   15.8210 C.3       1 4ZW         0.0736
     18 C33        13.5230    5.7570   18.1540 C.ar      1 4ZW        -0.0402
     19 C35        14.5490    5.0140   17.5680 C.ar      1 4ZW        -0.0616
     20 H1         17.1564    3.9432   17.3708 H         1 4ZW         0.1843
     21 H2         18.5317    3.6886   14.7830 H         1 4ZW         0.0559
     22 H3         16.8681    1.9631   14.5078 H         1 4ZW         0.0339
     23 H4         17.2497    1.2814   16.1253 H         1 4ZW         0.0339
     24 H5         19.0764    1.4190   13.6905 H         1 4ZW         0.0814
     25 H6         18.3545   -0.0489   14.4327 H         1 4ZW         0.0814
     26 H7         20.6281    0.2910   15.0461 H         1 4ZW         0.2013
     27 H8         19.6361    0.3468   16.3585 H         1 4ZW         0.2013
     28 H9         20.8567    2.6278   14.9992 H         1 4ZW         0.0814
     29 H10        21.3316    1.9453   16.5915 H         1 4ZW         0.0814
     30 H11        19.1229    2.4775   17.5175 H         1 4ZW         0.0339
     31 H12        19.8587    3.9547   16.8082 H         1 4ZW         0.0339
     32 H13        15.1888    6.8654   14.7772 H         1 4ZW         0.0570
     33 H14        11.5840    7.7327   18.6453 H         1 4ZW         0.2278
     34 H15        12.5876    8.4015   14.8358 H         1 4ZW         0.0647
     35 H16        13.7408    9.4215   15.7613 H         1 4ZW         0.0647
     36 H17        13.0527    5.4600   19.0844 H         1 4ZW         0.0500
     37 H18        14.8547    4.0827   18.0309 H         1 4ZW         0.0578
@<TRIPOS>BOND
     1    1    2 2  
     2    2    3 am 
     3    2   10 1  
     4    3    4 1  
     5    4    5 1  
     6    4    9 1  
     7    5    6 1  
     8    6    7 1  
     9    7    8 1  
    10    8    9 1  
    11   10   11 ar 
    12   10   19 ar 
    13   11   12 ar 
    14   12   13 ar 
    15   12   17 1  
    16   13   14 1  
    17   13   18 ar 
    18   14   15 am 
    19   15   16 2  
    20   15   17 1  
    21   18   19 ar 
    22    3   20 1  
    23    4   21 1  
    24    5   22 1  
    25    5   23 1  
    26    6   24 1  
    27    6   25 1  
    28    7   26 1  
    29    7   27 1  
    30    8   28 1  
    31    8   29 1  
    32    9   30 1  
    33    9   31 1  
    34   11   32 1  
    35   14   33 1  
    36   17   34 1  
    37   17   35 1  
    38   18   36 1  
    39   19   37 1  
@<TRIPOS>SUBSTRUCTURE
     1 4ZW         1

