### 
### Created by X-TOOL on Mon Sep 10 21:13:24 2018
### 

@<TRIPOS>MOLECULE
5ccm_ligand
   74    79     1     0     0
SMALL
GAST_HUCK


@<TRIPOS>ATOM
      1 CL1        15.7800    3.2030   18.1470 Cl        1 4ZX        -0.0745
      2 C02        15.6240    4.6890   17.2660 C.ar      1 4ZX         0.0408
      3 C03        14.6270    5.5460   17.7370 C.ar      1 4ZX        -0.0264
      4 C05        14.4320    6.7420   17.0900 C.ar      1 4ZX         0.0784
      5 C06        15.1860    7.1240   15.9940 C.ar      1 4ZX         0.0050
      6 C07        14.7250    8.4620   15.5260 C.3       1 4ZX         0.0737
      7 C10        13.6010    8.7700   16.5080 C.2       1 4ZX         0.2108
      8 O11        12.9080    9.7610   16.5150 O.2       1 4ZX        -0.3878
      9 N12        13.5080    7.7130   17.3910 N.am      1 4ZX        -0.2319
     10 C14        16.1840    6.2970   15.5120 C.ar      1 4ZX        -0.0504
     11 C16        16.4210    5.0660   16.1560 C.ar      1 4ZX         0.0415
     12 C17        17.4670    4.2100   15.5480 C.2       1 4ZX         0.1926
     13 O18        17.5600    4.1890   14.3300 O.2       1 4ZX        -0.3919
     14 N19        18.2940    3.3800   16.2350 N.am      1 4ZX        -0.2853
     15 C21        19.3120    2.4930   15.6620 C.3       1 4ZX         0.0446
     16 C23        18.6560    1.2800   14.9400 C.3       1 4ZX        -0.0099
     17 C26        18.5250    0.0020   15.7880 C.3       1 4ZX         0.0445
     18 C28        17.6050    0.1610   16.9880 C.3       1 4ZX        -0.0312
     19 C31        18.4940    0.8060   18.0470 C.3       1 4ZX        -0.0312
     20 C34        19.9190    0.8130   17.4800 C.3       1 4ZX         0.0445
     21 C36        20.3440    2.0850   16.7310 C.3       1 4ZX        -0.0099
     22 N39        19.8420   -0.1900   16.4200 N.am      1 4ZX        -0.2157
     23 S40        20.4330   -1.7170   16.7030 S.o2      1 4ZX         0.1210
     24 O41        21.7680   -1.5240   17.2400 O.2       1 4ZX        -0.1352
     25 O42        19.3330   -2.3530   17.4140 O.2       1 4ZX        -0.1352
     26 N43        20.5960   -2.3040   15.1480 N.am      1 4ZX        -0.2215
     27 C44        21.5060   -1.5710   14.2440 C.3       1 4ZX         0.0359
     28 C47        22.9260   -2.0970   14.4190 C.3       1 4ZX         0.0075
     29 C50        22.9400   -3.6180   14.2440 C.3       1 4ZX        -0.0183
     30 C52        21.8790   -4.3730   15.0700 C.3       1 4ZX         0.0075
     31 C55        20.4960   -3.7590   14.9370 C.3       1 4ZX         0.0359
     32 N58        24.2790   -4.1440   14.4130 N.4       1 4ZX         0.2413
     33 C60        25.0040   -4.0890   15.6750 C.3       1 4ZX         0.0004
     34 C63        26.4390   -4.4220   15.3770 C.ar      1 4ZX         0.0013
     35 C64        26.8910   -5.7500   15.4790 C.ar      1 4ZX        -0.0553
     36 C66        28.2230   -6.0500   15.1840 C.ar      1 4ZX        -0.0684
     37 C68        29.1000   -5.0400   14.7800 C.ar      1 4ZX        -0.0687
     38 C70        28.6560   -3.7190   14.6700 C.ar      1 4ZX        -0.0684
     39 C72        27.3260   -3.4110   14.9640 C.ar      1 4ZX        -0.0553
     40 H1         14.0209    5.2737   18.5935 H         1 4ZX         0.0505
     41 H2         14.3517    8.4173   14.4923 H         1 4ZX         0.0648
     42 H3         15.5302    9.2084   15.5931 H         1 4ZX         0.0648
     43 H4         12.8561    7.6611   18.1475 H         1 4ZX         0.2278
     44 H5         16.7749    6.5910   14.6521 H         1 4ZX         0.0570
     45 H6         18.1994    3.3729   17.2305 H         1 4ZX         0.1843
     46 H7         19.8540    3.0660   14.8953 H         1 4ZX         0.0556
     47 H8         19.2654    1.0404   14.0562 H         1 4ZX         0.0306
     48 H9         17.6474    1.5800   14.6196 H         1 4ZX         0.0306
     49 H10        18.2211   -0.8500   15.1621 H         1 4ZX         0.0515
     50 H11        17.2349   -0.8168   17.3300 H         1 4ZX         0.0284
     51 H12        16.7519    0.8111   16.7440 H         1 4ZX         0.0284
     52 H13        18.4593    0.2218   18.9784 H         1 4ZX         0.0284
     53 H14        18.1603    1.8349   18.2469 H         1 4ZX         0.0284
     54 H15        20.6498    0.5648   18.2638 H         1 4ZX         0.0515
     55 H16        20.4494    2.9060   17.4555 H         1 4ZX         0.0306
     56 H17        21.3114    1.9025   16.2403 H         1 4ZX         0.0306
     57 H18        21.4794   -0.4985   14.4871 H         1 4ZX         0.0480
     58 H19        21.1858   -1.7188   13.2021 H         1 4ZX         0.0480
     59 H20        23.2887   -1.8418   15.4256 H         1 4ZX         0.0336
     60 H21        23.5817   -1.6365   13.6653 H         1 4ZX         0.0336
     61 H22        22.6724   -3.8001   13.1927 H         1 4ZX         0.0852
     62 H23        22.1747   -4.3510   16.1293 H         1 4ZX         0.0336
     63 H24        21.8373   -5.4158   14.7225 H         1 4ZX         0.0336
     64 H25        20.0984   -3.9596   13.9312 H         1 4ZX         0.0480
     65 H26        19.8243   -4.1959   15.6906 H         1 4ZX         0.0480
     66 H27        24.8538   -3.6586   13.7422 H         1 4ZX         0.2030
     67 H28        24.2262   -5.1199   14.1665 H         1 4ZX         0.2030
     68 H29        24.5862   -4.8207   16.3821 H         1 4ZX         0.0980
     69 H30        24.9330   -3.0799   16.1069 H         1 4ZX         0.0980
     70 H31        26.2098   -6.5359   15.7847 H         1 4ZX         0.0558
     71 H32        28.5778   -7.0708   15.2689 H         1 4ZX         0.0599
     72 H33        30.1313   -5.2824   14.5504 H         1 4ZX         0.0559
     73 H34        29.3402   -2.9382   14.3583 H         1 4ZX         0.0599
     74 H35        26.9757   -2.3891   14.8737 H         1 4ZX         0.0558
@<TRIPOS>BOND
     1    1    2 1  
     2    2    3 ar 
     3    2   11 ar 
     4    3    4 ar 
     5    4    5 ar 
     6    4    9 1  
     7    5    6 1  
     8    5   10 ar 
     9    6    7 1  
    10    7    8 2  
    11    7    9 am 
    12   10   11 ar 
    13   11   12 1  
    14   12   13 2  
    15   12   14 am 
    16   14   15 1  
    17   15   16 1  
    18   15   21 1  
    19   16   17 1  
    20   17   18 1  
    21   17   22 1  
    22   18   19 1  
    23   19   20 1  
    24   20   21 1  
    25   20   22 1  
    26   22   23 am 
    27   23   24 2  
    28   23   25 2  
    29   23   26 am 
    30   26   27 1  
    31   26   31 1  
    32   27   28 1  
    33   28   29 1  
    34   29   30 1  
    35   29   32 1  
    36   30   31 1  
    37   32   33 1  
    38   33   34 1  
    39   34   35 ar 
    40   34   39 ar 
    41   35   36 ar 
    42   36   37 ar 
    43   37   38 ar 
    44   38   39 ar 
    45    3   40 1  
    46    6   41 1  
    47    6   42 1  
    48    9   43 1  
    49   10   44 1  
    50   14   45 1  
    51   15   46 1  
    52   16   47 1  
    53   16   48 1  
    54   17   49 1  
    55   18   50 1  
    56   18   51 1  
    57   19   52 1  
    58   19   53 1  
    59   20   54 1  
    60   21   55 1  
    61   21   56 1  
    62   27   57 1  
    63   27   58 1  
    64   28   59 1  
    65   28   60 1  
    66   29   61 1  
    67   30   62 1  
    68   30   63 1  
    69   31   64 1  
    70   31   65 1  
    71   32   66 1  
    72   32   67 1  
    73   33   68 1  
    74   33   69 1  
    75   35   70 1  
    76   36   71 1  
    77   37   72 1  
    78   38   73 1  
    79   39   74 1  
@<TRIPOS>SUBSTRUCTURE
     1 4ZX         1

