### 
### Created by X-TOOL on Mon Sep 10 21:13:28 2018
### 

@<TRIPOS>MOLECULE
5cdh_ligand
   14    13     1     0     0
SMALL
GAST_HUCK


@<TRIPOS>ATOM
      1 O1        113.7350   31.4580   27.4770 O.co2     1 TLA        -0.5662
      2 O11       113.9790   29.3020   27.6900 O.co2     1 TLA        -0.5662
      3 C1        114.1950   30.3610   27.0440 C.2       1 TLA         0.0677
      4 C2        114.9970   30.3280   25.7560 C.3       1 TLA         0.1445
      5 O2        115.4710   29.0300   25.4420 O.3       1 TLA        -0.3733
      6 C3        116.2110   31.1950   25.9470 C.3       1 TLA         0.1445
      7 O3        116.9060   30.7800   27.0810 O.3       1 TLA        -0.3733
      8 C4        117.0890   30.9440   24.7630 C.2       1 TLA         0.0677
      9 O4        116.6600   31.3430   23.6480 O.co2     1 TLA        -0.5662
     10 O41       118.2050   30.3500   24.9090 O.co2     1 TLA        -0.5662
     11 H1        114.3772   30.7056   24.9294 H         1 TLA         0.0809
     12 H2        116.0320   28.7207   26.1435 H         1 TLA         0.2126
     13 H3        115.9323   32.2562   26.0254 H         1 TLA         0.0809
     14 H4        117.6723   31.3288   27.1999 H         1 TLA         0.2126
@<TRIPOS>BOND
     1    1    3 ar 
     2    3    2 ar 
     3    3    4 1  
     4    4    5 1  
     5    4    6 1  
     6    6    7 1  
     7    6    8 1  
     8    8    9 ar 
     9    8   10 ar 
    10    4   11 1  
    11    5   12 1  
    12    6   13 1  
    13    7   14 1  
@<TRIPOS>SUBSTRUCTURE
     1 TLA         1

