### 
### Created by X-TOOL on Mon Sep 10 21:13:29 2018
### 

@<TRIPOS>MOLECULE
5ceh_ligand
   35    37     1     0     0
SMALL
GAST_HUCK


@<TRIPOS>ATOM
      1 C4        128.7810  369.3110  115.5250 C.2       1 50P         0.0659
      2 C5        129.3700  368.2490  114.8500 C.2       1 50P         0.0922
      3 C8        129.6840  369.6550  112.9220 C.2       1 50P         0.2547
      4 C9        130.0530  370.1310  111.6540 C.2       1 50P         0.1290
      5 C10       129.5960  371.4570  111.6220 C.2       1 50P         0.0126
      6 C13       128.6270  370.6240  114.8920 C.2       1 50P         0.2704
      7 C3        126.6570  369.3810  116.9110 C.3       1 50P        -0.0560
      8 C1        128.7950  370.2170  117.9140 C.3       1 50P        -0.0560
      9 C2        128.1810  369.2310  116.9190 C.3       1 50P        -0.0130
     10 N6        129.8080  368.4460  113.5520 N.pl3     1 50P        -0.2289
     11 N11       129.0220  371.8180  112.7590 N.2       1 50P        -0.1970
     12 N12       129.0940  370.7030  113.5660 N.am      1 50P        -0.0777
     13 O14       128.1660  371.6130  115.4540 O.2       1 50P        -0.3763
     14 C15       130.8410  369.4290  110.6700 C.1       1 50P         0.0453
     15 N16       131.4860  368.8380  109.9270 N.1       1 50P        -0.3799
     16 C17       129.6490  366.8870  115.3690 C.ar      1 50P         0.0097
     17 C18       128.6570  366.1530  116.0220 C.ar      1 50P        -0.0514
     18 C19       128.9220  364.8740  116.4750 C.ar      1 50P        -0.0611
     19 C20       130.1520  364.3020  116.2830 C.ar      1 50P        -0.0618
     20 C21       131.1390  365.0100  115.6370 C.ar      1 50P        -0.0611
     21 C22       130.8910  366.2940  115.1850 C.ar      1 50P        -0.0514
     22 H1        129.7014  372.1143  110.7602 H         1 50P         0.0644
     23 H2        126.2768  369.3157  117.9411 H         1 50P         0.0250
     24 H3        126.2127  368.5780  116.3046 H         1 50P         0.0250
     25 H4        126.3868  370.3570  116.4817 H         1 50P         0.0250
     26 H5        129.8892  370.1038  117.9145 H         1 50P         0.0250
     27 H6        128.4047  370.0119  118.9218 H         1 50P         0.0250
     28 H7        128.5328  371.2444  117.6213 H         1 50P         0.0250
     29 H8        128.4041  368.2210  117.2934 H         1 50P         0.0412
     30 H9        130.2398  367.6601  113.0453 H         1 50P         0.2258
     31 H10       127.6756  366.5875  116.1743 H         1 50P         0.0626
     32 H11       128.1469  364.3168  116.9885 H         1 50P         0.0617
     33 H12       130.3466  363.2965  116.6383 H         1 50P         0.0617
     34 H13       132.1133  364.5608  115.4817 H         1 50P         0.0617
     35 H14       131.6769  366.8444  114.6805 H         1 50P         0.0626
@<TRIPOS>BOND
     1    2    1 2  
     2    1    6 1  
     3    1    9 1  
     4   10    2 1  
     5    2   16 1  
     6    3    4 2  
     7    3   10 1  
     8    3   12 1  
     9    4    5 1  
    10    4   14 1  
    11    5   11 2  
    12    6   12 am 
    13    6   13 2  
    14    9    7 1  
    15    9    8 1  
    16   11   12 1  
    17   14   15 3  
    18   16   17 ar 
    19   16   21 ar 
    20   17   18 ar 
    21   18   19 ar 
    22   19   20 ar 
    23   20   21 ar 
    24    5   22 1  
    25    7   23 1  
    26    7   24 1  
    27    7   25 1  
    28    8   26 1  
    29    8   27 1  
    30    8   28 1  
    31    9   29 1  
    32   10   30 1  
    33   17   31 1  
    34   18   32 1  
    35   19   33 1  
    36   20   34 1  
    37   21   35 1  
@<TRIPOS>SUBSTRUCTURE
     1 50P         1

