### 
### Created by X-TOOL on Mon Sep 10 21:13:27 2018
### 

@<TRIPOS>MOLECULE
5cei_ligand
   32    34     1     0     0
SMALL
GAST_HUCK


@<TRIPOS>ATOM
      1 C5          5.5210   58.8400   53.1600 C.2       1 50R         0.1068
      2 C6          5.7480   58.7770   51.8390 C.2       1 50R        -0.0293
      3 C11         8.8330   60.6720   52.1690 C.ar      1 50R         0.0127
      4 C7          6.9210   59.4080   51.3980 C.ar      1 50R         0.0397
      5 C8          7.4820   59.5230   50.0910 C.ar      1 50R         0.1456
      6 C9          8.6740   60.1960   49.9240 C.ar      1 50R         0.0344
      7 C12         7.6310   60.0010   52.4520 C.ar      1 50R         0.0614
      8 N2          3.5460   57.4150   53.2360 N.am      1 50R        -0.2892
      9 C3          4.3860   58.2500   53.8730 C.2       1 50R         0.2145
     10 C1          2.4330   56.8340   53.9880 C.3       1 50R         0.0188
     11 O4          4.2330   58.4830   55.0580 O.2       1 50R        -0.3859
     12 N10         9.3230   60.7380   50.9450 N.ar      1 50R        -0.3171
     13 S13         6.7720   59.7430   53.9780 S.3       1 50R        -0.0179
     14 O14         6.8680   59.0190   48.9900 O.3       1 50R        -0.2477
     15 C15         6.6370   57.7090   48.7050 C.ar      1 50R         0.1221
     16 C16         5.7670   57.4250   47.6620 C.ar      1 50R        -0.0248
     17 C17         5.4860   56.1200   47.3140 C.ar      1 50R        -0.0584
     18 C18         6.0720   55.0690   47.9940 C.ar      1 50R        -0.0011
     19 C19         6.9500   55.3550   49.0340 C.ar      1 50R        -0.0584
     20 C20         7.2370   56.6650   49.3920 C.ar      1 50R        -0.0248
     21 I21         5.6170   53.0880   47.4140 I         1 50R        -0.0581
     22 H1          5.0680   58.2705   51.1556 H         1 50R         0.0558
     23 H2          9.3731   61.1489   52.9789 H         1 50R         0.0690
     24 H3          9.0928   60.2845   48.9281 H         1 50R         0.0673
     25 H4          3.6790   57.1958   52.2694 H         1 50R         0.1836
     26 H5          1.8460   56.1794   53.3270 H         1 50R         0.0483
     27 H6          1.7897   57.6395   54.3718 H         1 50R         0.0483
     28 H7          2.8267   56.2463   54.8304 H         1 50R         0.0483
     29 H8          5.3030   58.2375   47.1146 H         1 50R         0.0561
     30 H9          4.7995   55.9170   46.5000 H         1 50R         0.0619
     31 H10         7.4185   54.5405   49.5745 H         1 50R         0.0619
     32 H11         7.9258   56.8704   50.2035 H         1 50R         0.0561
@<TRIPOS>BOND
     1    2    1 2  
     2    1    9 1  
     3    1   13 1  
     4    4    2 1  
     5    7    3 ar 
     6    3   12 ar 
     7    4    5 ar 
     8    4    7 ar 
     9    5    6 ar 
    10    5   14 1  
    11    6   12 ar 
    12    7   13 1  
    13    9    8 am 
    14    8   10 1  
    15    9   11 2  
    16   14   15 1  
    17   15   16 ar 
    18   15   20 ar 
    19   16   17 ar 
    20   17   18 ar 
    21   18   19 ar 
    22   18   21 1  
    23   19   20 ar 
    24    2   22 1  
    25    3   23 1  
    26    6   24 1  
    27    8   25 1  
    28   10   26 1  
    29   10   27 1  
    30   10   28 1  
    31   16   29 1  
    32   17   30 1  
    33   19   31 1  
    34   20   32 1  
@<TRIPOS>SUBSTRUCTURE
     1 50R         1

