### 
### Created by X-TOOL on Mon Sep 10 21:13:25 2018
### 

@<TRIPOS>MOLECULE
5cf4_ligand
   60    64     1     0     0
SMALL
GAST_HUCK


@<TRIPOS>ATOM
      1 C17         0.5860   45.5980    1.1590 C.3       1 50Y        -0.0386
      2 C16        -0.3220   46.7010    1.5730 C.3       1 50Y         0.0484
      3 C15        -0.8930   48.5330   -0.9790 C.2       1 50Y         0.2227
      4 C20        -0.8180   47.5360   -3.3850 C.3       1 50Y         0.0446
      5 C21        -0.0070   49.8470   -2.7750 C.3       1 50Y         0.0446
      6 C22        -0.5870   46.0990   -3.0820 C.3       1 50Y        -0.0277
      7 C23        -1.9650   46.5910   -3.3640 C.3       1 50Y        -0.0277
      8 C24        -0.8250   51.0930   -2.7710 C.3       1 50Y        -0.0277
      9 C11        -6.7000   44.4280    0.1240 C.2       1 50Y         0.1023
     10 C27        -3.5810   43.1820    5.7800 C.3       1 50Y        -0.0093
     11 C1         -3.6700   46.3530    0.1020 C.ar      1 50Y         0.0196
     12 C2         -2.7240   46.1200    1.1100 C.ar      1 50Y         0.1104
     13 N3         -2.8630   45.3750    2.2140 N.ar      1 50Y        -0.2888
     14 C4         -4.0220   44.7160    2.3820 C.ar      1 50Y         0.1029
     15 C5         -5.0170   44.7640    1.3750 C.ar      1 50Y         0.0723
     16 C6         -4.8460   45.5810    0.2560 C.ar      1 50Y         0.0902
     17 C7         -3.0910   47.2900   -0.7990 C.2       1 50Y        -0.0445
     18 C8         -1.8210   47.5600   -0.3520 C.2       1 50Y         0.1270
     19 N9         -1.5820   46.8290    0.8100 N.pl3     1 50Y        -0.2534
     20 N10        -6.2000   44.0490    1.2750 N.2       1 50Y        -0.3089
     21 N12        -5.9480   45.3500   -0.5400 N.pl3     1 50Y        -0.2402
     22 N13        -4.2040   44.0450    3.5310 N.pl3     1 50Y        -0.3107
     23 C14        -6.2710   45.9690   -1.8200 C.3       1 50Y         0.0477
     24 O18        -0.4660   49.4190   -0.2500 O.2       1 50Y        -0.3887
     25 N19        -0.6150   48.5560   -2.3130 N.am      1 50Y        -0.2666
     26 C25        -0.4460   50.4520   -4.0640 C.3       1 50Y        -0.0277
     27 C26        -3.2710   44.1350    4.6410 C.3       1 50Y         0.0292
     28 C28        -3.0540   43.6660    7.1060 C.3       1 50Y         0.0491
     29 O29        -3.8500   44.7770    7.5060 O.3       1 50Y        -0.3829
     30 C30        -3.4270   45.3460    8.7400 C.3       1 50Y         0.0364
     31 H           1.4835   45.6037    1.7949 H         1 50Y         0.0255
     32 H           0.8800   45.7398    0.1086 H         1 50Y         0.0255
     33 H           0.0660   44.6348    1.2674 H         1 50Y         0.0255
     34 H           0.2301   47.6469    1.4706 H         1 50Y         0.0597
     35 H          -0.5839   46.5418    2.6294 H         1 50Y         0.0597
     36 H          -0.4854   47.9554   -4.3460 H         1 50Y         0.0557
     37 H           1.0527   49.8817   -2.4820 H         1 50Y         0.0557
     38 H          -0.3112   45.7889   -2.0633 H         1 50Y         0.0288
     39 H          -0.0712   45.4586   -3.8126 H         1 50Y         0.0288
     40 H          -2.4668   46.3138   -4.3028 H         1 50Y         0.0288
     41 H          -2.7068   46.6441   -2.5535 H         1 50Y         0.0288
     42 H          -0.3688   52.0497   -2.4767 H         1 50Y         0.0288
     43 H          -1.8698   51.0641   -2.4281 H         1 50Y         0.0288
     44 H          -7.6338   44.0403   -0.2669 H         1 50Y         0.1296
     45 H          -3.1254   42.2062    5.5558 H         1 50Y         0.0307
     46 H          -4.6725   43.0683    5.8560 H         1 50Y         0.0307
     47 H          -3.5676   47.7150   -1.6811 H         1 50Y         0.0390
     48 H          -5.0353   43.4447    3.6288 H         1 50Y         0.1816
     49 H          -7.2228   45.5635   -2.1935 H         1 50Y         0.0577
     50 H          -5.4713   45.7532   -2.5438 H         1 50Y         0.0577
     51 H          -6.3626   47.0572   -1.6883 H         1 50Y         0.0577
     52 H          -1.2114   49.9506   -4.6745 H         1 50Y         0.0288
     53 H           0.2896   50.9362   -4.7231 H         1 50Y         0.0288
     54 H          -2.2621   43.9097    4.2651 H         1 50Y         0.0521
     55 H          -3.2956   45.1628    5.0322 H         1 50Y         0.0521
     56 H          -2.0036   43.9754    7.0019 H         1 50Y         0.0560
     57 H          -3.1274   42.8632    7.8544 H         1 50Y         0.0560
     58 H          -4.0777   46.1957    8.9941 H         1 50Y         0.0523
     59 H          -2.3881   45.6951    8.6458 H         1 50Y         0.0523
     60 H          -3.4883   44.5871    9.5339 H         1 50Y         0.0523
@<TRIPOS>BOND
     1    2    1 1  
     2   19    2 1  
     3   18    3 1  
     4    3   24 2  
     5    3   25 am 
     6    4    6 1  
     7    4    7 1  
     8   25    4 1  
     9    5    8 1  
    10   25    5 1  
    11    5   26 1  
    12    7    6 1  
    13   26    8 1  
    14   20    9 2  
    15    9   21 1  
    16   27   10 1  
    17   10   28 1  
    18   12   11 ar 
    19   16   11 ar 
    20   11   17 1  
    21   13   12 ar 
    22   12   19 1  
    23   14   13 ar 
    24   14   15 ar 
    25   22   14 1  
    26   15   16 ar 
    27   15   20 1  
    28   16   21 1  
    29   17   18 2  
    30   19   18 1  
    31   21   23 1  
    32   22   27 1  
    33   28   29 1  
    34   29   30 1  
    35    1   31 1  
    36    1   32 1  
    37    1   33 1  
    38    2   34 1  
    39    2   35 1  
    40    4   36 1  
    41    5   37 1  
    42    6   38 1  
    43    6   39 1  
    44    7   40 1  
    45    7   41 1  
    46    8   42 1  
    47    8   43 1  
    48    9   44 1  
    49   10   45 1  
    50   10   46 1  
    51   17   47 1  
    52   22   48 1  
    53   23   49 1  
    54   23   50 1  
    55   23   51 1  
    56   26   52 1  
    57   26   53 1  
    58   27   54 1  
    59   27   55 1  
    60   28   56 1  
    61   28   57 1  
    62   30   58 1  
    63   30   59 1  
    64   30   60 1  
@<TRIPOS>SUBSTRUCTURE
     1 50Y         1

