### 
### Created by X-TOOL on Mon Sep 10 21:13:23 2018
### 

@<TRIPOS>MOLECULE
5cf5_ligand
   59    64     1     0     0
SMALL
GAST_HUCK


@<TRIPOS>ATOM
      1 C13        -0.9730   48.3170   -1.2310 C.2       1 50W         0.2232
      2 C17         0.5290   45.8440    0.9710 C.3       1 50W        -0.0386
      3 C16        -0.4790   46.8640    1.4210 C.3       1 50W         0.0485
      4 C20        -0.0690   49.3950   -3.2020 C.3       1 50W         0.0446
      5 C21        -1.2030   47.1430   -3.4630 C.3       1 50W         0.0446
      6 C22        -0.7780   45.7530   -3.1410 C.3       1 50W        -0.0277
      7 C23        -0.1490   46.4820   -4.2810 C.3       1 50W        -0.0277
      8 C24        -0.7490   50.2080   -4.2500 C.3       1 50W        -0.0277
      9 C11        -1.9830   47.4410   -0.5970 C.2       1 50W         0.1278
     10 C1         -3.7720   46.1910   -0.0610 C.ar      1 50W         0.0209
     11 C2         -2.8030   46.0360    0.9410 C.ar      1 50W         0.1126
     12 N3         -2.8740   45.2950    2.0550 N.ar      1 50W        -0.2833
     13 C4         -4.0110   44.6230    2.2770 C.ar      1 50W         0.1303
     14 C5         -5.0580   44.6450    1.3200 C.ar      1 50W         0.0773
     15 C6         -4.9450   45.4310    0.1760 C.ar      1 50W         0.0914
     16 N7         -6.2500   43.9380    1.3040 N.2       1 50W        -0.3080
     17 C8         -6.8090   44.2900    0.1710 C.2       1 50W         0.1026
     18 N9         -6.0910   45.1910   -0.5520 N.pl3     1 50W        -0.2399
     19 C10        -3.2320   47.0850   -1.0230 C.2       1 50W        -0.0436
     20 N12        -1.7120   46.8050    0.6100 N.pl3     1 50W        -0.2526
     21 C14        -6.4710   45.7550   -1.8440 C.3       1 50W         0.0477
     22 N15        -4.2010   44.0190    3.5140 N.pl3     1 50W        -0.2304
     23 N18        -0.8070   48.2730   -2.5740 N.am      1 50W        -0.2665
     24 O19        -0.3740   49.1240   -0.5230 O.2       1 50W        -0.3884
     25 C25        -0.4820   50.7950   -2.9020 C.3       1 50W        -0.0277
     26 C26        -3.3210   44.0530    4.5570 C.2       1 50W         0.1926
     27 N27        -3.6320   43.4970    5.6970 N.2       1 50W        -0.3225
     28 S28        -1.8310   44.9360    4.5570 S.3       1 50W         0.0090
     29 C29        -2.6740   43.7770    6.6500 C.2       1 50W        -0.0298
     30 C30        -1.6250   44.5420    6.2340 C.2       1 50W         0.0084
     31 C31        -2.8460   43.1790    8.0080 C.3       1 50W        -0.0431
     32 C32        -0.4740   45.1240    7.0090 C.3       1 50W        -0.0326
     33 H           1.4306   45.9186    1.5968 H         1 50W         0.0255
     34 H           0.7956   46.0307   -0.0797 H         1 50W         0.0255
     35 H           0.0987   44.8362    1.0667 H         1 50W         0.0255
     36 H          -0.0378   47.8673    1.3272 H         1 50W         0.0597
     37 H          -0.7347   46.6728    2.4736 H         1 50W         0.0597
     38 H           0.9961   49.1379   -3.2992 H         1 50W         0.0557
     39 H          -2.2024   47.3299   -3.8828 H         1 50W         0.0557
     40 H          -1.4584   44.9108   -3.3349 H         1 50W         0.0288
     41 H          -0.1972   45.5527   -2.2286 H         1 50W         0.0288
     42 H           0.8955   46.8193   -4.2092 H         1 50W         0.0288
     43 H          -0.3657   46.1773   -5.3155 H         1 50W         0.0288
     44 H          -1.7792   49.9671   -4.5510 H         1 50W         0.0288
     45 H          -0.1841   50.5608   -5.1255 H         1 50W         0.0288
     46 H          -7.7627   43.8961   -0.1612 H         1 50W         0.1298
     47 H          -3.7231   47.4248   -1.9336 H         1 50W         0.0391
     48 H          -5.6924   46.4547   -2.1819 H         1 50W         0.0577
     49 H          -7.4266   46.2904   -1.7436 H         1 50W         0.0577
     50 H          -6.5802   44.9448   -2.5800 H         1 50W         0.0577
     51 H          -5.0804   43.5018    3.6559 H         1 50W         0.2243
     52 H           0.2794   51.5802   -2.7848 H         1 50W         0.0288
     53 H          -1.3157   50.9865   -2.2104 H         1 50W         0.0288
     54 H          -2.0112   43.4892    8.6536 H         1 50W         0.0327
     55 H          -2.8586   42.0821    7.9267 H         1 50W         0.0327
     56 H          -3.7948   43.5254    8.4437 H         1 50W         0.0327
     57 H          -0.5103   44.7616    8.0469 H         1 50W         0.0354
     58 H          -0.5445   46.2217    7.0013 H         1 50W         0.0354
     59 H           0.4742   44.8141    6.5454 H         1 50W         0.0354
@<TRIPOS>BOND
     1    9    1 1  
     2    1   23 am 
     3    1   24 2  
     4    3    2 1  
     5   20    3 1  
     6    4    8 1  
     7   23    4 1  
     8    4   25 1  
     9    5    6 1  
    10    5    7 1  
    11   23    5 1  
    12    7    6 1  
    13   25    8 1  
    14   19    9 2  
    15    9   20 1  
    16   10   11 ar 
    17   10   15 ar 
    18   10   19 1  
    19   11   12 ar 
    20   11   20 1  
    21   12   13 ar 
    22   13   14 ar 
    23   13   22 1  
    24   14   15 ar 
    25   14   16 1  
    26   15   18 1  
    27   16   17 2  
    28   17   18 1  
    29   18   21 1  
    30   22   26 1  
    31   26   27 2  
    32   26   28 1  
    33   27   29 1  
    34   28   30 1  
    35   29   30 2  
    36   29   31 1  
    37   30   32 1  
    38    2   33 1  
    39    2   34 1  
    40    2   35 1  
    41    3   36 1  
    42    3   37 1  
    43    4   38 1  
    44    5   39 1  
    45    6   40 1  
    46    6   41 1  
    47    7   42 1  
    48    7   43 1  
    49    8   44 1  
    50    8   45 1  
    51   17   46 1  
    52   19   47 1  
    53   21   48 1  
    54   21   49 1  
    55   21   50 1  
    56   22   51 1  
    57   25   52 1  
    58   25   53 1  
    59   31   54 1  
    60   31   55 1  
    61   31   56 1  
    62   32   57 1  
    63   32   58 1  
    64   32   59 1  
@<TRIPOS>SUBSTRUCTURE
     1 50W         1

