### 
### Created by X-TOOL on Mon Sep 10 21:13:23 2018
### 

@<TRIPOS>MOLECULE
5cf6_ligand
   55    59     1     0     0
SMALL
GAST_HUCK


@<TRIPOS>ATOM
      1 C13        -7.5530  -56.6650    0.9170 C.2       1 50O         0.2227
      2 C18       -12.0490  -59.3760   -4.5190 C.3       1 50O         0.0158
      3 C17       -10.0820  -62.0390    2.0480 C.3       1 50O         0.0477
      4 C16       -10.5110  -55.7690   -2.0340 C.3       1 50O         0.1043
      5 C21       -10.5500  -54.3120   -2.4140 C.3       1 50O         0.0727
      6 C24        -9.0500  -56.2930    2.7350 C.3       1 50O         0.0446
      7 C12       -11.5950  -62.5860    0.1110 C.2       1 50O         0.1023
      8 C27        -9.3930  -57.2320    3.8330 C.3       1 50O        -0.0277
      9 C1         -9.8910  -58.6640   -1.0820 C.ar      1 50O         0.1104
     10 C2         -9.7470  -59.5100    0.0280 C.ar      1 50O         0.0196
     11 N3         -9.1640  -57.5090   -0.8480 N.pl3     1 50O        -0.2505
     12 N4        -10.6030  -58.8870   -2.2000 N.ar      1 50O        -0.2888
     13 C5         -8.5390  -57.6380    0.3890 C.2       1 50O         0.1271
     14 C6        -11.2800  -60.9510   -1.2090 C.ar      1 50O         0.0723
     15 C7        -10.4860  -60.7120   -0.0870 C.ar      1 50O         0.0902
     16 N8        -11.9730  -62.1430   -1.0670 N.2       1 50O        -0.3089
     17 C9         -8.8840  -58.8460    0.9450 C.2       1 50O        -0.0445
     18 C10       -11.3190  -60.0140   -2.2640 C.ar      1 50O         0.1026
     19 N11       -10.6910  -61.7890    0.7470 N.pl3     1 50O        -0.2402
     20 C14        -9.1240  -56.3290   -1.7330 C.3       1 50O         0.0793
     21 N15       -12.0840  -60.2290   -3.3480 N.pl3     1 50O        -0.3138
     22 N19        -7.6720  -56.2410    2.1920 N.am      1 50O        -0.2666
     23 O20        -6.5460  -56.4790    0.2770 O.2       1 50O        -0.3887
     24 O22       -11.6800  -54.0750   -3.2550 O.3       1 50O        -0.3924
     25 O23       -11.1230  -56.5210   -3.0860 O.3       1 50O        -0.3869
     26 C25        -6.5790  -55.6420    3.0170 C.3       1 50O         0.0446
     27 C26        -9.3170  -55.7650    4.0970 C.3       1 50O        -0.0277
     28 C28        -5.1560  -55.9830    2.7310 C.3       1 50O        -0.0277
     29 C29        -5.8170  -56.5040    3.9660 C.3       1 50O        -0.0277
     30 H         -12.7598  -59.7534   -5.2689 H         1 50O         0.0484
     31 H         -11.0340  -59.3766   -4.9429 H         1 50O         0.0484
     32 H         -12.3268  -58.3505   -4.2341 H         1 50O         0.0484
     33 H         -10.4594  -62.9896    2.4529 H         1 50O         0.0577
     34 H         -10.3381  -61.2200    2.7362 H         1 50O         0.0577
     35 H          -8.9892  -62.0961    1.9364 H         1 50O         0.0577
     36 H         -11.1137  -55.8886   -1.1217 H         1 50O         0.0643
     37 H          -9.6284  -54.0478   -2.9533 H         1 50O         0.0584
     38 H         -10.6323  -53.6971   -1.5056 H         1 50O         0.0584
     39 H          -9.7708  -56.1155    1.9232 H         1 50O         0.0557
     40 H         -11.9706  -63.5077    0.5406 H         1 50O         0.1296
     41 H          -8.6250  -57.9053    4.2415 H         1 50O         0.0288
     42 H         -10.3675  -57.7422    3.8367 H         1 50O         0.0288
     43 H          -8.5568  -59.2264    1.9115 H         1 50O         0.0390
     44 H          -8.5262  -55.5445   -1.2460 H         1 50O         0.0626
     45 H          -8.6477  -56.6172   -2.6817 H         1 50O         0.0626
     46 H         -12.7238  -61.0362   -3.3463 H         1 50O         0.1813
     47 H         -11.7068  -53.1565   -3.4961 H         1 50O         0.2095
     48 H         -11.2027  -57.4294   -2.8195 H         1 50O         0.2100
     49 H          -6.8520  -54.6150    3.3010 H         1 50O         0.0557
     50 H         -10.2355  -55.1931    4.2954 H         1 50O         0.0288
     51 H          -8.4930  -55.3563    4.7002 H         1 50O         0.0288
     52 H          -4.3785  -55.2087    2.8081 H         1 50O         0.0288
     53 H          -4.9095  -56.6695    1.9076 H         1 50O         0.0288
     54 H          -6.0573  -57.5740    4.0518 H         1 50O         0.0288
     55 H          -5.5263  -56.1132    4.9523 H         1 50O         0.0288
@<TRIPOS>BOND
     1   13    1 1  
     2    1   22 am 
     3    1   23 2  
     4   21    2 1  
     5   19    3 1  
     6    4    5 1  
     7   20    4 1  
     8    4   25 1  
     9    5   24 1  
    10    6    8 1  
    11   22    6 1  
    12    6   27 1  
    13   16    7 2  
    14    7   19 1  
    15   27    8 1  
    16    9   10 ar 
    17    9   11 1  
    18   12    9 ar 
    19   15   10 ar 
    20   10   17 1  
    21   11   13 1  
    22   11   20 1  
    23   18   12 ar 
    24   17   13 2  
    25   14   15 ar 
    26   14   16 1  
    27   18   14 ar 
    28   15   19 1  
    29   18   21 1  
    30   22   26 1  
    31   26   28 1  
    32   26   29 1  
    33   28   29 1  
    34    2   30 1  
    35    2   31 1  
    36    2   32 1  
    37    3   33 1  
    38    3   34 1  
    39    3   35 1  
    40    4   36 1  
    41    5   37 1  
    42    5   38 1  
    43    6   39 1  
    44    7   40 1  
    45    8   41 1  
    46    8   42 1  
    47   17   43 1  
    48   20   44 1  
    49   20   45 1  
    50   21   46 1  
    51   24   47 1  
    52   25   48 1  
    53   26   49 1  
    54   27   50 1  
    55   27   51 1  
    56   28   52 1  
    57   28   53 1  
    58   29   54 1  
    59   29   55 1  
@<TRIPOS>SUBSTRUCTURE
     1 50O         1

