### 
### Created by X-TOOL on Mon Sep 10 21:13:23 2018
### 

@<TRIPOS>MOLECULE
5cf8_ligand
   60    65     1     0     0
SMALL
GAST_HUCK


@<TRIPOS>ATOM
      1 N14        -1.6530   46.8520    0.7090 N.pl3     1 50V        -0.2531
      2 C13        -1.8800   47.4350   -0.5340 C.2       1 50V         0.1273
      3 C18        -0.4280   46.8800    1.5260 C.3       1 50V         0.0484
      4 C15        -0.9010   48.3500   -1.1570 C.2       1 50V         0.2229
      5 C19         0.4610   45.7110    1.1510 C.3       1 50V        -0.0386
      6 C20        -0.1050   49.5520   -3.1170 C.3       1 50V         0.0446
      7 C21        -1.1490   47.2700   -3.4080 C.3       1 50V         0.0446
      8 C22        -0.8500   50.3620   -4.1190 C.3       1 50V        -0.0277
      9 C23        -0.5540   50.9290   -2.7710 C.3       1 50V        -0.0277
     10 C24        -0.7690   45.8740   -3.0580 C.3       1 50V        -0.0277
     11 C11        -6.3820   45.8320   -1.7630 C.3       1 50V         0.0477
     12 C12        -3.1200   47.0570   -0.9850 C.2       1 50V        -0.0441
     13 C27        -3.7150   43.4580    5.8150 C.2       1 50V        -0.0260
     14 C1         -3.6910   46.2110    0.0040 C.ar      1 50V         0.0202
     15 C2         -2.7550   46.1120    1.0440 C.ar      1 50V         0.1113
     16 N3         -2.8400   45.3930    2.1690 N.ar      1 50V        -0.2857
     17 C4         -3.9620   44.6940    2.3660 C.ar      1 50V         0.1205
     18 C5         -4.9930   44.6990    1.3990 C.ar      1 50V         0.0755
     19 C6         -4.8640   45.4670    0.2410 C.ar      1 50V         0.0907
     20 N7         -4.1290   44.0430    3.5680 N.pl3     1 50V        -0.2658
     21 N8         -6.2140   44.0430    1.4100 N.2       1 50V        -0.3085
     22 C9         -6.7790   44.4130    0.2810 C.2       1 50V         0.1024
     23 N10        -6.0280   45.2670   -0.4680 N.pl3     1 50V        -0.2401
     24 N16        -0.7890   48.3900   -2.5010 N.am      1 50V        -0.2666
     25 O17        -0.2850   49.1180   -0.4280 O.2       1 50V        -0.3886
     26 C25        -0.0500   46.5930   -4.1510 C.3       1 50V        -0.0277
     27 C26        -3.2470   44.0520    4.6500 C.2       1 50V         0.0954
     28 C28        -2.7860   43.7160    6.7720 C.2       1 50V         0.0584
     29 N29        -1.7900   44.3890    6.1700 N.pl3     1 50V        -0.2231
     30 N30        -2.0530   44.6200    4.8370 N.2       1 50V        -0.2269
     31 C31        -2.7830   43.3920    8.2270 C.3       1 50V        -0.0039
     32 C32        -0.5280   44.8510    6.7470 C.3       1 50V         0.0534
     33 H1         -0.6963   46.8090    2.5904 H         1 50V         0.0597
     34 H2          0.1107   47.8219    1.3457 H         1 50V         0.0597
     35 H3          1.3750   45.7345    1.7626 H         1 50V         0.0255
     36 H4          0.7301   45.7816    0.0868 H         1 50V         0.0255
     37 H5         -0.0769   44.7686    1.3315 H         1 50V         0.0255
     38 H6          0.9642   49.3333   -3.2548 H         1 50V         0.0557
     39 H7         -2.1148   47.4735   -3.8935 H         1 50V         0.0557
     40 H8         -1.8819   50.0916   -4.3875 H         1 50V         0.0288
     41 H9         -0.3306   50.7529   -5.0063 H         1 50V         0.0288
     42 H10         0.1838   51.7378   -2.6642 H         1 50V         0.0288
     43 H11        -1.3675   51.0765   -2.0454 H         1 50V         0.0288
     44 H12        -1.4470   45.0422   -3.2998 H         1 50V         0.0288
     45 H13        -0.2569   45.6652   -2.1071 H         1 50V         0.0288
     46 H14        -7.3811   45.4778   -2.0568 H         1 50V         0.0577
     47 H15        -5.6448   45.5150   -2.5153 H         1 50V         0.0577
     48 H16        -6.3876   46.9299   -1.6949 H         1 50V         0.0577
     49 H17        -3.5811   47.3510   -1.9267 H         1 50V         0.0390
     50 H18        -4.6409   42.8978    5.9368 H         1 50V         0.0218
     51 H19        -4.9928   43.4934    3.6801 H         1 50V         0.2101
     52 H20        -7.7637   44.0658   -0.0283 H         1 50V         0.1297
     53 H21         0.9919   46.9144   -4.0058 H         1 50V         0.0288
     54 H22        -0.1981   46.2914   -5.1984 H         1 50V         0.0288
     55 H23        -3.6996   42.8397    8.4815 H         1 50V         0.0437
     56 H24        -2.7426   44.3238    8.8101 H         1 50V         0.0437
     57 H25        -1.9047   42.7733    8.4631 H         1 50V         0.0437
     58 H26         0.0598   45.3696    5.9753 H         1 50V         0.0585
     59 H27         0.0410   43.9880    7.1230 H         1 50V         0.0585
     60 H28        -0.7356   45.5429    7.5765 H         1 50V         0.0585
@<TRIPOS>BOND
     1    1    2 1  
     2    1    3 1  
     3   15    1 1  
     4    2    4 1  
     5   12    2 2  
     6    3    5 1  
     7    4   24 am 
     8    4   25 2  
     9    6    8 1  
    10    6    9 1  
    11   24    6 1  
    12    7   10 1  
    13   24    7 1  
    14    7   26 1  
    15    9    8 1  
    16   26   10 1  
    17   23   11 1  
    18   14   12 1  
    19   27   13 1  
    20   13   28 2  
    21   15   14 ar 
    22   19   14 ar 
    23   16   15 ar 
    24   17   16 ar 
    25   17   18 ar 
    26   20   17 1  
    27   18   19 ar 
    28   18   21 1  
    29   19   23 1  
    30   20   27 1  
    31   21   22 2  
    32   22   23 1  
    33   27   30 2  
    34   28   29 1  
    35   28   31 1  
    36   29   30 1  
    37   29   32 1  
    38    3   33 1  
    39    3   34 1  
    40    5   35 1  
    41    5   36 1  
    42    5   37 1  
    43    6   38 1  
    44    7   39 1  
    45    8   40 1  
    46    8   41 1  
    47    9   42 1  
    48    9   43 1  
    49   10   44 1  
    50   10   45 1  
    51   11   46 1  
    52   11   47 1  
    53   11   48 1  
    54   12   49 1  
    55   13   50 1  
    56   20   51 1  
    57   22   52 1  
    58   26   53 1  
    59   26   54 1  
    60   31   55 1  
    61   31   56 1  
    62   31   57 1  
    63   32   58 1  
    64   32   59 1  
    65   32   60 1  
@<TRIPOS>SUBSTRUCTURE
     1 50V         1

