### 
### Created by X-TOOL on Mon Sep 10 21:13:25 2018
### 

@<TRIPOS>MOLECULE
5cfb_ligand
   48    54     1     0     0
SMALL
GAST_HUCK


@<TRIPOS>ATOM
      1 CAV       117.8140  133.1740   19.4170 C.3       1 SY9        -0.0427
      2 CAU       117.8910  132.4660   18.0600 C.3       1 SY9        -0.0085
      3 CAT       119.2040  131.7120   17.9630 C.3       1 SY9        -0.0004
      4 CAN       119.1330  130.5460   18.9410 C.3       1 SY9         0.0204
      5 CAK       118.8860  130.9790   20.3810 C.3       1 SY9         0.0638
      6 NAH       118.1220  129.8630   20.9330 N.am      1 SY9        -0.1999
      7 CAA       116.8650  130.2990   21.3810 C.ar      1 SY9         0.1052
      8 CAF       115.7930  129.5640   21.8840 C.ar      1 SY9        -0.0063
      9 CAE       114.6090  130.2000   22.2370 C.ar      1 SY9        -0.0464
     10 CAD       114.4820  131.5770   22.0710 C.ar      1 SY9        -0.0477
     11 CAC       115.5410  132.3190   21.5560 C.ar      1 SY9        -0.0530
     12 CAB       116.7260  131.6820   21.1940 C.ar      1 SY9        -0.0230
     13 CAG       118.0310  132.2330   20.6270 C.3       1 SY9         0.0242
     14 CAW       118.6570  133.1440   21.6700 C.3       1 SY9        -0.0348
     15 CAX       119.4940  134.1170   20.8480 C.3       1 SY9        -0.0411
     16 NAY       118.8450  134.2470   19.5260 N.4       1 SY9         0.2398
     17 CAS       119.9230  134.1600   18.5170 C.3       1 SY9        -0.0076
     18 CAR       120.2940  132.6940   18.3130 C.2       1 SY9        -0.0310
     19 CAQ       121.6280  132.4040   18.4900 C.2       1 SY9        -0.0782
     20 CAP       122.0940  131.1120   18.3660 C.3       1 SY9         0.0554
     21 OAO       121.6100  130.1390   19.3060 O.3       1 SY9        -0.3689
     22 CAM       120.3250  129.5590   18.9590 C.3       1 SY9         0.0844
     23 CAL       120.0620  128.4610   20.0600 C.3       1 SY9         0.0744
     24 CAI       118.6830  128.5840   20.7440 C.2       1 SY9         0.2264
     25 OAJ       118.1030  127.5720   21.1360 O.2       1 SY9        -0.3740
     26 H1        116.8147  133.6261   19.5003 H         1 SY9         0.0714
     27 H2        117.8345  133.2111   17.2528 H         1 SY9         0.0332
     28 H3        117.0534  131.7592   17.9660 H         1 SY9         0.0332
     29 H4        119.3609  131.3300   16.9435 H         1 SY9         0.0453
     30 H5        118.2558  129.9621   18.6255 H         1 SY9         0.0371
     31 H6        119.8520  131.1055   20.8916 H         1 SY9         0.0535
     32 H7        115.8834  128.4901   22.0005 H         1 SY9         0.0599
     33 H8        113.7843  129.6245   22.6415 H         1 SY9         0.0798
     34 H9        113.5567  132.0717   22.3434 H         1 SY9         0.0600
     35 H10       115.4438  133.3920   21.4366 H         1 SY9         0.0770
     36 H11       119.2906  132.5699   22.3621 H         1 SY9         0.0190
     37 H12       117.8821  133.6780   22.2395 H         1 SY9         0.0190
     38 H13       120.5157  133.7273   20.7290 H         1 SY9         0.0804
     39 H14       119.5310  135.0965   21.3471 H         1 SY9         0.0804
     40 H15       118.3907  135.1432   19.4450 H         1 SY9         0.2038
     41 H16       120.8034  134.7179   18.8686 H         1 SY9         0.0963
     42 H17       119.5735  134.5879   17.5658 H         1 SY9         0.0963
     43 H18       122.3246  133.2055   18.7312 H         1 SY9         0.0266
     44 H19       123.1893  131.1462   18.4618 H         1 SY9         0.0635
     45 H20       121.8248  130.7598   17.3593 H         1 SY9         0.0635
     46 H21       120.4002  129.0928   17.9655 H         1 SY9         0.0628
     47 H22       120.8411  128.5494   20.8314 H         1 SY9         0.0538
     48 H23       120.1268  127.4709   19.5852 H         1 SY9         0.0538
@<TRIPOS>BOND
     1    1    2 1  
     2    1   13 1  
     3    1   16 1  
     4    2    3 1  
     5    3    4 1  
     6    3   18 1  
     7    4    5 1  
     8    4   22 1  
     9    5    6 1  
    10    5   13 1  
    11    6    7 1  
    12    6   24 am 
    13    7    8 ar 
    14    7   12 ar 
    15    8    9 ar 
    16    9   10 ar 
    17   10   11 ar 
    18   11   12 ar 
    19   12   13 1  
    20   13   14 1  
    21   14   15 1  
    22   15   16 1  
    23   16   17 1  
    24   17   18 1  
    25   18   19 2  
    26   19   20 1  
    27   20   21 1  
    28   21   22 1  
    29   22   23 1  
    30   23   24 1  
    31   24   25 2  
    32    1   26 1  
    33    2   27 1  
    34    2   28 1  
    35    3   29 1  
    36    4   30 1  
    37    5   31 1  
    38    8   32 1  
    39    9   33 1  
    40   10   34 1  
    41   11   35 1  
    42   14   36 1  
    43   14   37 1  
    44   15   38 1  
    45   15   39 1  
    46   16   40 1  
    47   17   41 1  
    48   17   42 1  
    49   19   43 1  
    50   20   44 1  
    51   20   45 1  
    52   22   46 1  
    53   23   47 1  
    54   23   48 1  
@<TRIPOS>SUBSTRUCTURE
     1 SY9         1

