### 
### Created by X-TOOL on Mon Sep 10 21:13:25 2018
### 

@<TRIPOS>MOLECULE
5cgc_ligand
   28    30     1     0     0
SMALL
GAST_HUCK


@<TRIPOS>ATOM
      1 C2        -24.0300   18.1900   44.2130 C.ar      1 51D         0.1718
      2 C3        -23.5200   19.3770   44.7100 C.ar      1 51D         0.0892
      3 C4        -22.4900   19.3650   45.6240 C.ar      1 51D        -0.0115
      4 C5        -21.9580   18.1510   46.0550 C.ar      1 51D         0.0962
      5 C6        -22.4660   16.9530   45.5590 C.ar      1 51D        -0.0143
      6 C7        -23.5090   16.9640   44.6400 C.ar      1 51D         0.0516
      7 C8        -24.0150   15.6600   44.1290 C.ar      1 51D         0.0652
      8 C9        -24.4050   15.5000   42.7970 C.ar      1 51D         0.0317
      9 C10       -24.8580   14.2550   42.3780 C.ar      1 51D         0.2005
     10 C12       -24.5130   13.4360   44.4990 C.ar      1 51D         0.0783
     11 F1        -25.0390   18.2510   43.3230 F         1 51D        -0.1697
     12 N11       -24.8980   13.2540   43.2510 N.ar      1 51D        -0.2352
     13 N13       -24.0830   14.6030   44.9380 N.ar      1 51D        -0.2716
     14 N14       -25.2490   14.0660   41.0520 N.pl3     1 51D        -0.1407
     15 C15       -25.5550   12.8780   40.4720 C.2       1 51D         0.0706
     16 C16       -25.8690   13.1270   39.1830 C.2       1 51D        -0.0440
     17 C17       -25.7500   14.5050   38.9610 C.2       1 51D        -0.0024
     18 N18       -25.3770   15.0660   40.0800 N.2       1 51D        -0.2003
     19 C19       -20.8890   18.1490   47.0030 C.1       1 51D         0.0974
     20 N20       -20.0410   18.1570   47.7560 N.1       1 51D        -0.3313
     21 CL        -24.1790   20.8910   44.1790 Cl        1 51D        -0.0689
     22 H1        -22.0937   20.2982   46.0076 H         1 51D         0.0740
     23 H2        -22.0471   16.0097   45.8903 H         1 51D         0.0749
     24 H3        -24.3551   16.3315   42.1034 H         1 51D         0.0738
     25 H4        -24.5512   12.5989   45.1867 H         1 51D         0.1097
     26 H5        -25.5485   11.9031   40.9572 H         1 51D         0.1015
     27 H6        -26.1640   12.3845   38.4431 H         1 51D         0.0359
     28 H7        -25.9361   15.0191   38.0192 H         1 51D         0.0674
@<TRIPOS>BOND
     1    1    2 ar 
     2    1    6 ar 
     3    1   11 1  
     4    2    3 ar 
     5    2   21 1  
     6    3    4 ar 
     7    4    5 ar 
     8    4   19 1  
     9    5    6 ar 
    10    6    7 1  
    11    7    8 ar 
    12    7   13 ar 
    13    8    9 ar 
    14    9   12 ar 
    15    9   14 1  
    16   12   10 ar 
    17   10   13 ar 
    18   14   15 1  
    19   14   18 1  
    20   15   16 2  
    21   16   17 1  
    22   17   18 2  
    23   19   20 3  
    24    3   22 1  
    25    5   23 1  
    26    8   24 1  
    27   10   25 1  
    28   15   26 1  
    29   16   27 1  
    30   17   28 1  
@<TRIPOS>SUBSTRUCTURE
     1 51D         1

