### 
### Created by X-TOOL on Mon Sep 10 21:13:25 2018
### 

@<TRIPOS>MOLECULE
5cgd_ligand
   30    32     1     0     0
SMALL
GAST_HUCK


@<TRIPOS>ATOM
      1 C01       -24.0140   17.9110   44.2310 C.ar      1 51E        -0.0256
      2 C02       -23.6170   19.1340   44.8010 C.ar      1 51E         0.0552
      3 C03       -22.6430   19.1570   45.8110 C.ar      1 51E        -0.0099
      4 C04       -22.0630   17.9510   46.2510 C.ar      1 51E         0.1004
      5 C6        -22.4650   16.7280   45.6750 C.ar      1 51E        -0.0128
      6 C7        -23.4510   16.6890   44.6600 C.ar      1 51E         0.0190
      7 C8        -23.8710   15.4120   44.0470 C.ar      1 51E         0.0710
      8 C9        -24.2220   15.3200   42.7010 C.ar      1 51E         0.0046
      9 C10       -24.6060   14.0640   42.2160 C.ar      1 51E         0.0824
     10 N11       -24.6210   12.9940   43.0330 N.ar      1 51E        -0.2601
     11 C12       -24.2710   13.1830   44.2920 C.ar      1 51E         0.0848
     12 N13       -23.8980   14.3290   44.8390 N.ar      1 51E        -0.2612
     13 C19       -21.0530   17.9710   47.2960 C.1       1 51E         0.1016
     14 N20       -20.2510   17.9880   48.1270 N.1       1 51E        -0.3282
     15 CL        -24.3330   20.6070   44.2560 Cl        1 51E        -0.0676
     16 C1        -25.6970   13.6790   38.1250 C.ar      1 51E         0.1644
     17 C2        -25.4920   12.4980   38.8600 C.ar      1 51E        -0.0043
     18 C3        -25.1310   12.5830   40.2130 C.ar      1 51E        -0.0225
     19 C4        -24.9910   13.8610   40.7960 C.ar      1 51E         0.0738
     20 N1        -25.1860   14.9940   40.0800 N.ar      1 51E        -0.2864
     21 C5        -25.5320   14.9080   38.7810 C.ar      1 51E         0.0484
     22 F1        -26.0450   13.6380   36.8170 F         1 51E        -0.1710
     23 H1        -24.7648   17.9064   43.4492 H         1 51E         0.0729
     24 H2        -22.3380   20.0995   46.2511 H         1 51E         0.0749
     25 H3        -22.0120   15.8037   46.0147 H         1 51E         0.0760
     26 H4        -24.1985   16.1891   42.0536 H         1 51E         0.0788
     27 H5        -24.2911   12.3149   44.9409 H         1 51E         0.1120
     28 H6        -25.6118   11.5307   38.3856 H         1 51E         0.0731
     29 H7        -24.9631   11.6862   40.7984 H         1 51E         0.0736
     30 H8        -25.6889   15.8230   38.2214 H         1 51E         0.0827
@<TRIPOS>BOND
     1    1    2 ar 
     2    6    1 ar 
     3    2    3 ar 
     4    2   15 1  
     5    4    3 ar 
     6    5    4 ar 
     7    4   13 1  
     8    6    5 ar 
     9    7    6 1  
    10    8    7 ar 
    11    7   12 ar 
    12    9    8 ar 
    13    9   10 ar 
    14   19    9 1  
    15   10   11 ar 
    16   11   12 ar 
    17   13   14 3  
    18   17   16 ar 
    19   16   21 ar 
    20   16   22 1  
    21   18   17 ar 
    22   18   19 ar 
    23   19   20 ar 
    24   20   21 ar 
    25    1   23 1  
    26    3   24 1  
    27    5   25 1  
    28    8   26 1  
    29   11   27 1  
    30   17   28 1  
    31   18   29 1  
    32   21   30 1  
@<TRIPOS>SUBSTRUCTURE
     1 51E         1

