### 
### Created by X-TOOL on Mon Sep 10 21:13:20 2018
### 

@<TRIPOS>MOLECULE
5cgj_ligand
   59    62     1     0     0
SMALL
GAST_HUCK


@<TRIPOS>ATOM
      1 C1         39.1270  -20.5620   -4.7610 C.ar      1 51M        -0.0629
      2 C2         39.3700  -19.5780   -5.7380 C.ar      1 51M        -0.0668
      3 C3         39.3120  -18.2460   -5.4240 C.ar      1 51M         0.0322
      4 C7         38.4520  -18.4120   -1.7970 C.ar      1 51M        -0.0605
      5 C8         38.3910  -17.0890   -1.4720 C.ar      1 51M        -0.0679
      6 C9         38.6340  -16.1060   -2.4520 C.ar      1 51M        -0.0681
      7 C10        38.9330  -16.4720   -3.7320 C.ar      1 51M        -0.0612
      8 C12        39.0360  -17.5290   -7.7460 C.3       1 51M         0.0386
      9 C13        40.2930  -17.7330   -8.6020 C.3       1 51M         0.0328
     10 C14        41.3170  -16.7850   -7.9750 C.3       1 51M        -0.0174
     11 C15        40.9730  -16.7640   -6.4920 C.3       1 51M         0.0262
     12 C16        40.0610  -17.3870  -10.0370 C.2       1 51M         0.0398
     13 O17        39.3850  -16.4930  -10.5020 O.co2     1 51M        -0.5687
     14 C21        40.3270  -23.0500   -3.1500 C.ar      1 51M         0.1037
     15 C24        41.5210  -22.6420   -3.8020 C.ar      1 51M        -0.0305
     16 C27        40.2080  -24.9050   -4.7380 C.ar      1 51M        -0.0556
     17 C30        43.2810  -22.9520   -5.5930 C.3       1 51M        -0.0382
     18 C31        39.5490  -26.1230   -5.2810 C.3       1 51M        -0.0382
     19 C32        38.4370  -24.7210   -3.0550 C.3       1 51M        -0.0364
     20 C4         38.8270  -20.1940   -3.4740 C.ar      1 51M         0.0612
     21 C5         39.0020  -17.8370   -4.0920 C.ar      1 51M        -0.0063
     22 C6         38.7590  -18.8150   -3.1150 C.ar      1 51M        -0.0012
     23 N11        39.5530  -17.2190   -6.3840 N.pl3     1 51M        -0.3149
     24 O18        40.7200  -18.2150  -10.8680 O.co2     1 51M        -0.5687
     25 N19        38.5850  -21.1950   -2.5020 N.am      1 51M        -0.1929
     26 S20        39.7000  -22.2220   -1.8590 S.o2      1 51M         0.0808
     27 O22        40.6460  -21.3750   -1.2440 O.2       1 51M        -0.1470
     28 O23        39.0370  -23.0970   -0.9770 O.2       1 51M        -0.1470
     29 C25        42.0320  -23.3550   -4.8890 C.ar      1 51M        -0.0556
     30 C26        41.3720  -24.4810   -5.3490 C.ar      1 51M        -0.0719
     31 C28        39.6940  -24.1990   -3.6550 C.ar      1 51M        -0.0305
     32 C29        42.3010  -21.4400   -3.3780 C.3       1 51M        -0.0364
     33 H1         39.1770  -21.6119   -5.0261 H         1 51M         0.0379
     34 H2         39.6062  -19.8785   -6.7524 H         1 51M         0.0415
     35 H3         38.2631  -19.1611   -1.0366 H         1 51M         0.0605
     36 H4         38.1548  -16.7925   -0.4564 H         1 51M         0.0572
     37 H5         38.5832  -15.0558   -2.1882 H         1 51M         0.0581
     38 H6         39.1192  -15.7092   -4.4793 H         1 51M         0.0595
     39 H7         38.4248  -18.4434   -7.7301 H         1 51M         0.0531
     40 H8         38.4349  -16.6927   -8.1324 H         1 51M         0.0531
     41 H9         40.6369  -18.7758   -8.5357 H         1 51M         0.0486
     42 H10        41.2276  -15.7775   -8.4075 H         1 51M         0.0305
     43 H11        42.3389  -17.1613   -8.1301 H         1 51M         0.0305
     44 H12        41.0779  -15.7451   -6.0911 H         1 51M         0.0511
     45 H13        41.6346  -17.4460   -5.9379 H         1 51M         0.0511
     46 H14        43.4851  -23.6586   -6.4110 H         1 51M         0.0362
     47 H15        44.1212  -22.9605   -4.8830 H         1 51M         0.0362
     48 H16        43.1593  -21.9394   -6.0050 H         1 51M         0.0362
     49 H17        40.1322  -26.5074   -6.1308 H         1 51M         0.0362
     50 H18        38.5327  -25.8708   -5.6180 H         1 51M         0.0362
     51 H19        39.4948  -26.8915   -4.4959 H         1 51M         0.0362
     52 H20        38.1379  -24.0785   -2.2137 H         1 51M         0.0363
     53 H21        38.6019  -25.7464   -2.6926 H         1 51M         0.0363
     54 H22        37.6416  -24.7240   -3.8148 H         1 51M         0.0363
     55 H23        37.6448  -21.2872   -2.1740 H         1 51M         0.2153
     56 H24        41.7703  -25.0328   -6.1927 H         1 51M         0.0460
     57 H25        41.8042  -20.9647   -2.5194 H         1 51M         0.0363
     58 H26        42.3551  -20.7250   -4.2122 H         1 51M         0.0363
     59 H27        43.3178  -21.7454   -3.0903 H         1 51M         0.0363
@<TRIPOS>BOND
     1    1    2 ar 
     2   20    1 ar 
     3    2    3 ar 
     4   21    3 ar 
     5    3   23 1  
     6    4    5 ar 
     7   22    4 ar 
     8    5    6 ar 
     9    7    6 ar 
    10   21    7 ar 
    11    8    9 1  
    12   23    8 1  
    13   10    9 1  
    14    9   12 1  
    15   11   10 1  
    16   23   11 1  
    17   12   13 ar 
    18   12   24 ar 
    19   14   15 ar 
    20   26   14 1  
    21   14   31 ar 
    22   15   29 ar 
    23   15   32 1  
    24   16   18 1  
    25   16   30 ar 
    26   31   16 ar 
    27   29   17 1  
    28   31   19 1  
    29   20   22 ar 
    30   25   20 1  
    31   22   21 ar 
    32   25   26 am 
    33   26   27 2  
    34   26   28 2  
    35   29   30 ar 
    36    1   33 1  
    37    2   34 1  
    38    4   35 1  
    39    5   36 1  
    40    6   37 1  
    41    7   38 1  
    42    8   39 1  
    43    8   40 1  
    44    9   41 1  
    45   10   42 1  
    46   10   43 1  
    47   11   44 1  
    48   11   45 1  
    49   17   46 1  
    50   17   47 1  
    51   17   48 1  
    52   18   49 1  
    53   18   50 1  
    54   18   51 1  
    55   19   52 1  
    56   19   53 1  
    57   19   54 1  
    58   25   55 1  
    59   30   56 1  
    60   32   57 1  
    61   32   58 1  
    62   32   59 1  
@<TRIPOS>SUBSTRUCTURE
     1 51M         1

