### 
### Created by X-TOOL on Mon Sep 10 21:13:29 2018
### 

@<TRIPOS>MOLECULE
5cgv_ligand
   53    55     1     0     0
SMALL
GAST_HUCK


@<TRIPOS>ATOM
      1 CL2       -32.0050  -12.2360   19.7550 Cl        1 0N8        -0.0771
      2 C19       -30.9290  -13.6570   20.0000 C.ar      1 0N8         0.0330
      3 C18       -29.5680  -13.5050   20.2150 C.ar      1 0N8        -0.0546
      4 C17       -28.7340  -14.5650   20.3620 C.ar      1 0N8        -0.0599
      5 C20       -31.4420  -14.9430   19.9710 C.ar      1 0N8        -0.0546
      6 C21       -30.5990  -16.0150   20.1390 C.ar      1 0N8        -0.0599
      7 C16       -29.2530  -15.8230   20.3430 C.ar      1 0N8        -0.0434
      8 C15       -28.3680  -17.0200   20.5340 C.3       1 0N8        -0.0088
      9 C11       -27.8170  -17.5770   19.2090 C.3       1 0N8         0.0481
     10 C10       -28.8810  -18.1500   18.1490 C.3       1 0N8        -0.0007
     11 C9        -28.2800  -19.1820   17.1820 C.3       1 0N8        -0.0309
     12 C14       -26.8510  -16.5130   18.6790 C.2       1 0N8         0.1279
     13 O27       -25.7350  -16.4310   19.1610 O.2       1 0N8        -0.3515
     14 C22       -27.3530  -15.5860   17.5940 C.2       1 0N8         0.0206
     15 C23       -26.7330  -14.4830   17.1400 C.2       1 0N8         0.1460
     16 O28       -25.4890  -14.1660   17.5770 O.3       1 0N8        -0.3094
     17 C24       -27.3850  -13.6030   16.1180 C.2       1 0N8         0.1137
     18 O26       -26.9440  -12.5110   15.6640 O.co2     1 0N8        -0.5508
     19 O25       -28.4620  -13.9680   15.6890 O.co2     1 0N8        -0.5508
     20 C12       -27.0270  -18.8140   19.6910 C.3       1 0N8        -0.0007
     21 C13       -26.2840  -19.4620   18.5440 C.3       1 0N8        -0.0309
     22 N8        -26.8560  -19.4120   17.2280 N.4       1 0N8         0.2470
     23 C7        -26.3350  -20.6080   16.4760 C.3       1 0N8         0.0019
     24 C2        -26.9930  -20.9410   15.1260 C.ar      1 0N8         0.0014
     25 C3        -27.7150  -22.1610   14.9710 C.ar      1 0N8        -0.0553
     26 C4        -28.3620  -22.5110   13.7650 C.ar      1 0N8        -0.0684
     27 C5        -28.2980  -21.6420   12.7160 C.ar      1 0N8        -0.0687
     28 C6        -27.5870  -20.4330   12.8460 C.ar      1 0N8        -0.0684
     29 C1        -26.9140  -20.0660   14.0280 C.ar      1 0N8        -0.0553
     30 H1        -29.1555  -12.5039   20.2675 H         1 0N8         0.0606
     31 H2        -27.6688  -14.4120   20.4928 H         1 0N8         0.0557
     32 H3        -32.5029  -15.1031   19.8166 H         1 0N8         0.0606
     33 H4        -30.9992  -17.0220   20.1104 H         1 0N8         0.0557
     34 H5        -28.9493  -17.8101   21.0318 H         1 0N8         0.0418
     35 H6        -27.5202  -16.7310   21.1725 H         1 0N8         0.0418
     36 H7        -29.2755  -17.3085   17.5606 H         1 0N8         0.0309
     37 H8        -29.7029  -18.6275   18.7026 H         1 0N8         0.0309
     38 H9        -28.5243  -18.8532   16.1611 H         1 0N8         0.0813
     39 H10       -28.7724  -20.1445   17.3850 H         1 0N8         0.0813
     40 H11       -28.3090  -15.8364   17.1365 H         1 0N8         0.0456
     41 H12       -24.8890  -14.8695   17.3586 H         1 0N8         0.2615
     42 H13       -27.7283  -19.5430   20.1231 H         1 0N8         0.0309
     43 H14       -26.3031  -18.5022   20.4583 H         1 0N8         0.0309
     44 H15       -26.1579  -20.5242   18.8006 H         1 0N8         0.0813
     45 H16       -25.2973  -18.9793   18.4852 H         1 0N8         0.0813
     46 H17       -26.4567  -18.6042   16.7762 H         1 0N8         0.2048
     47 H18       -26.4577  -21.4858   17.1275 H         1 0N8         0.0980
     48 H19       -25.2647  -20.4379   16.2876 H         1 0N8         0.0980
     49 H20       -27.7694  -22.8453   15.8099 H         1 0N8         0.0558
     50 H21       -28.8974  -23.4493   13.6754 H         1 0N8         0.0599
     51 H22       -28.7941  -21.8816   11.7824 H         1 0N8         0.0559
     52 H23       -27.5564  -19.7558   12.0001 H         1 0N8         0.0599
     53 H24       -26.3539  -19.1399   14.0891 H         1 0N8         0.0558
@<TRIPOS>BOND
     1    1    2 1  
     2    2    3 ar 
     3    2    5 ar 
     4    3    4 ar 
     5    4    7 ar 
     6    5    6 ar 
     7    6    7 ar 
     8    7    8 1  
     9    8    9 1  
    10    9   10 1  
    11    9   12 1  
    12    9   20 1  
    13   10   11 1  
    14   11   22 1  
    15   12   13 2  
    16   12   14 1  
    17   14   15 2  
    18   15   16 1  
    19   15   17 1  
    20   17   18 ar 
    21   17   19 ar 
    22   20   21 1  
    23   21   22 1  
    24   22   23 1  
    25   23   24 1  
    26   24   25 ar 
    27   24   29 ar 
    28   25   26 ar 
    29   26   27 ar 
    30   27   28 ar 
    31   28   29 ar 
    32    3   30 1  
    33    4   31 1  
    34    5   32 1  
    35    6   33 1  
    36    8   34 1  
    37    8   35 1  
    38   10   36 1  
    39   10   37 1  
    40   11   38 1  
    41   11   39 1  
    42   14   40 1  
    43   16   41 1  
    44   20   42 1  
    45   20   43 1  
    46   21   44 1  
    47   21   45 1  
    48   22   46 1  
    49   23   47 1  
    50   23   48 1  
    51   25   49 1  
    52   26   50 1  
    53   27   51 1  
    54   28   52 1  
    55   29   53 1  
@<TRIPOS>SUBSTRUCTURE
     1 0N8         1

