### 
### Created by X-TOOL on Mon Sep 10 21:13:26 2018
### 

@<TRIPOS>MOLECULE
5chk_ligand
   27    28     1     0     0
SMALL
GAST_HUCK


@<TRIPOS>ATOM
      1 O1         13.9350    4.4840   28.7080 O.co2     1 55R        -0.5639
      2 O2         13.6490    3.2400   30.4740 O.co2     1 55R        -0.5639
      3 C3         13.2990    3.6020   29.3300 C.2       1 55R         0.0590
      4 C4         12.0750    2.9800   28.7120 C.ar      1 55R         0.0392
      5 C5         11.3590    1.9380   29.3090 C.ar      1 55R         0.1055
      6 C6         10.2370    1.4040   28.6890 C.ar      1 55R        -0.0286
      7 C7          9.8300    1.9070   27.4700 C.ar      1 55R        -0.0663
      8 C8         10.5480    2.9250   26.8630 C.ar      1 55R        -0.0676
      9 C9         11.6570    3.4720   27.4860 C.ar      1 55R        -0.0546
     10 O16        12.0170   -1.6800   36.0100 O.2       1 55R        -0.4025
     11 C13        11.8030   -1.1680   34.8820 C.2       1 55R         0.1136
     12 C12        10.6090   -1.5600   34.1190 C.2       1 55R        -0.0182
     13 C11        10.3650   -0.9920   32.8970 C.2       1 55R        -0.0283
     14 C14        12.7220   -0.1610   34.3230 C.2       1 55R        -0.0182
     15 C15        12.4680    0.4140   33.1020 C.2       1 55R        -0.0283
     16 C10        11.2780    0.0130   32.3270 C.2       1 55R         0.0970
     17 N9         10.9690    0.4980   31.1460 N.2       1 55R        -0.1384
     18 N8         11.7330    1.4150   30.5500 N.pl3     1 55R        -0.1825
     19 H1          9.6850    0.5981   29.1590 H         1 55R         0.0566
     20 H2          8.9470    1.5050   26.9864 H         1 55R         0.0614
     21 H3         10.2389    3.2961   25.8925 H         1 55R         0.0544
     22 H4         12.1979    4.2847   27.0148 H         1 55R         0.0627
     23 H5          9.9205   -2.3000   34.5244 H         1 55R         0.0580
     24 H6          9.4797   -1.2889   32.3366 H         1 55R         0.0711
     25 H7         13.6098    0.1297   34.8826 H         1 55R         0.0580
     26 H8         13.1464    1.1676   32.7048 H         1 55R         0.0711
     27 H9         12.5990    1.7378   31.0047 H         1 55R         0.2538
@<TRIPOS>BOND
     1    3    1 ar 
     2    3    2 ar 
     3    4    3 1  
     4    5    4 ar 
     5    4    9 ar 
     6    5    6 ar 
     7   18    5 1  
     8    6    7 ar 
     9    7    8 ar 
    10    9    8 ar 
    11   11   10 2  
    12   12   11 1  
    13   14   11 1  
    14   13   12 2  
    15   16   13 1  
    16   15   14 2  
    17   16   15 1  
    18   17   16 2  
    19   17   18 1  
    20    6   19 1  
    21    7   20 1  
    22    8   21 1  
    23    9   22 1  
    24   12   23 1  
    25   13   24 1  
    26   14   25 1  
    27   15   26 1  
    28   18   27 1  
@<TRIPOS>SUBSTRUCTURE
     1 55R         1

