### 
### Created by X-TOOL on Mon Sep 10 21:13:22 2018
### 

@<TRIPOS>MOLECULE
5ci7_ligand
   52    54     1     0     0
SMALL
GAST_HUCK


@<TRIPOS>ATOM
      1 N12        -4.7170  -41.1960  -17.8050 N.pl3     1 51W        -0.2467
      2 C13        -3.4090  -40.5840  -17.9560 C.ar      1 51W         0.0517
      3 C15        -1.5640  -39.2060  -17.3170 C.ar      1 51W         0.0567
      4 C17         0.4400  -38.5730  -15.9770 C.2       1 51W         0.2895
      5 C20         2.4050  -37.1230  -13.2090 C.3       1 51W        -0.0309
      6 C21         1.2760  -36.1520  -13.2390 C.3       1 51W        -0.0309
      7 C22         0.4910  -36.4660  -14.4910 C.3       1 51W         0.0348
      8 C24        -0.8640  -39.5320  -18.4590 C.ar      1 51W        -0.0528
      9 C26        -2.6810  -40.9250  -19.1020 C.ar      1 51W        -0.0534
     10 N01        -3.4290  -35.3390  -14.8380 N.4       1 51W         0.2186
     11 C02        -3.7160  -36.7340  -14.7380 C.3       1 51W        -0.0335
     12 C03        -5.0780  -37.1460  -14.2570 C.3       1 51W         0.0078
     13 C04        -5.1680  -38.4460  -13.5130 C.3       1 51W         0.0344
     14 N05        -6.3760  -39.2000  -13.6890 N.pl3     1 51W        -0.3017
     15 C06        -6.5120  -40.0800  -14.8020 C.ar      1 51W         0.1250
     16 C07        -7.6710  -40.8500  -14.9270 C.ar      1 51W         0.0639
     17 I08        -9.2580  -40.7810  -13.5310 I         1 51W        -0.0538
     18 C09        -7.7840  -41.7050  -16.0080 C.ar      1 51W         0.0115
     19 N10        -6.7960  -41.7420  -16.8910 N.ar      1 51W        -0.2660
     20 C11        -5.6920  -41.0180  -16.7770 C.ar      1 51W         0.1964
     21 C14        -2.8490  -39.7300  -17.0470 C.ar      1 51W        -0.0194
     22 N16        -0.9290  -38.3030  -16.3930 N.am      1 51W        -0.2220
     23 N18         1.0860  -37.6550  -15.0520 N.am      1 51W        -0.2542
     24 C19         2.4200  -37.7650  -14.5350 C.3       1 51W         0.0348
     25 O23         1.0310  -39.5710  -16.4080 O.2       1 51W        -0.3903
     26 C25        -1.4330  -40.4030  -19.3670 C.ar      1 51W        -0.0845
     27 N27        -5.5380  -40.1840  -15.7270 N.ar      1 51W        -0.2354
     28 H1         -4.9807  -41.8566  -18.5500 H         1 51W         0.2181
     29 H2          2.2430  -37.8742  -12.4220 H         1 51W         0.0285
     30 H3          3.3552  -36.5997  -13.0264 H         1 51W         0.0285
     31 H4          1.6589  -35.1215  -13.2762 H         1 51W         0.0285
     32 H5          0.6416  -36.2756  -12.3489 H         1 51W         0.0285
     33 H6          0.5612  -35.6316  -15.2043 H         1 51W         0.0520
     34 H7         -0.5650  -36.6487  -14.2431 H         1 51W         0.0520
     35 H8          0.1181  -39.1110  -18.6414 H         1 51W         0.0410
     36 H9         -3.1145  -41.6252  -19.8069 H         1 51W         0.0413
     37 H10        -2.4860  -35.2130  -15.1712 H         1 51W         0.1994
     38 H11        -3.5248  -34.9103  -13.9307 H         1 51W         0.1994
     39 H12        -4.0734  -34.9087  -15.4827 H         1 51W         0.1994
     40 H13        -2.9803  -37.1695  -14.0459 H         1 51W         0.0814
     41 H14        -3.5789  -37.1678  -15.7395 H         1 51W         0.0814
     42 H15        -5.7334  -37.2203  -15.1373 H         1 51W         0.0337
     43 H16        -5.4488  -36.3542  -13.5895 H         1 51W         0.0337
     44 H17        -5.0646  -38.2255  -12.4403 H         1 51W         0.0526
     45 H18        -4.3288  -39.0775  -13.8401 H         1 51W         0.0526
     46 H19        -7.1453  -39.1053  -13.0107 H         1 51W         0.1852
     47 H20        -8.6606  -42.3308  -16.1305 H         1 51W         0.0879
     48 H21        -3.3782  -39.4608  -16.1400 H         1 51W         0.0411
     49 H22        -1.4193  -37.5047  -16.0432 H         1 51W         0.2252
     50 H23         2.7063  -38.8230  -14.4425 H         1 51W         0.0520
     51 H24         3.1294  -37.2499  -15.1994 H         1 51W         0.0520
     52 H25        -0.9059  -40.6724  -20.2751 H         1 51W         0.0550
@<TRIPOS>BOND
     1    1    2 1  
     2   20    1 1  
     3    2    9 ar 
     4    2   21 ar 
     5    3    8 ar 
     6   21    3 ar 
     7    3   22 1  
     8   22    4 am 
     9    4   23 am 
    10    4   25 2  
    11    6    5 1  
    12    5   24 1  
    13    7    6 1  
    14   23    7 1  
    15   26    8 ar 
    16    9   26 ar 
    17   11   10 1  
    18   12   11 1  
    19   13   12 1  
    20   14   13 1  
    21   15   14 1  
    22   16   15 ar 
    23   15   27 ar 
    24   16   17 1  
    25   18   16 ar 
    26   19   18 ar 
    27   19   20 ar 
    28   20   27 ar 
    29   23   24 1  
    30    1   28 1  
    31    5   29 1  
    32    5   30 1  
    33    6   31 1  
    34    6   32 1  
    35    7   33 1  
    36    7   34 1  
    37    8   35 1  
    38    9   36 1  
    39   10   37 1  
    40   10   38 1  
    41   10   39 1  
    42   11   40 1  
    43   11   41 1  
    44   12   42 1  
    45   12   43 1  
    46   13   44 1  
    47   13   45 1  
    48   14   46 1  
    49   18   47 1  
    50   21   48 1  
    51   22   49 1  
    52   24   50 1  
    53   24   51 1  
    54   26   52 1  
@<TRIPOS>SUBSTRUCTURE
     1 51W         1

