### 
### Created by X-TOOL on Mon Sep 10 21:13:28 2018
### 

@<TRIPOS>MOLECULE
5cj6_ligand
   35    36     1     0     0
SMALL
GAST_HUCK


@<TRIPOS>ATOM
      1 C7        -27.7140    3.4670   -4.4210 C.ar      1 51Y        -0.0379
      2 C6        -26.7160    2.5430   -4.6690 C.ar      1 51Y         0.0520
      3 C1        -27.4510    4.8180   -4.4220 C.ar      1 51Y        -0.0446
      4 C5        -24.3480    2.0010   -5.1880 C.3       1 51Y        -0.0319
      5 C4        -25.4370    2.9890   -4.9240 C.ar      1 51Y        -0.0017
      6 C3        -25.1750    4.3400   -4.9240 C.ar      1 51Y         0.0651
      7 C2        -26.1720    5.2580   -4.6750 C.ar      1 51Y         0.0882
      8 N8        -26.9190    1.1540   -4.6900 N.pl3     1 51Y        -0.3143
      9 C9        -28.1510    0.6940   -4.0950 C.3       1 51Y         0.0645
     10 C10       -29.2800    0.5610   -5.0980 C.3       1 51Y         0.0855
     11 O11       -30.3150    1.4080   -4.6490 O.3       1 51Y        -0.3866
     12 C12       -28.9270    0.9130   -6.5280 C.3       1 51Y        -0.0339
     13 C13       -29.7910   -0.8520   -5.0440 C.3       1 51Y        -0.0220
     14 C14       -29.1050   -1.5250   -3.8860 C.3       1 51Y        -0.0482
     15 C15       -27.8950   -0.6920   -3.5470 C.3       1 51Y        -0.0276
     16 CL1       -23.5750    4.8970   -5.2360 Cl        1 51Y        -0.0700
     17 C17       -25.8740    6.6540   -4.6850 C.1       1 51Y         0.0842
     18 N18       -25.6650    7.8000   -4.7310 N.1       1 51Y        -0.3398
     19 H1        -28.7219    3.1212   -4.2222 H         1 51Y         0.0527
     20 H2        -28.2448    5.5295   -4.2251 H         1 51Y         0.0632
     21 H3        -24.7592    0.9817   -5.1440 H         1 51Y         0.0368
     22 H4        -23.5603    2.1117   -4.4282 H         1 51Y         0.0368
     23 H5        -23.9227    2.1820   -6.1862 H         1 51Y         0.0368
     24 H6        -26.2336    0.5055   -5.1030 H         1 51Y         0.1777
     25 H7        -28.4501    1.3827   -3.2911 H         1 51Y         0.0579
     26 H8        -30.5944    1.1333   -3.7836 H         1 51Y         0.2102
     27 H9        -29.8127    0.7823   -7.1671 H         1 51Y         0.0258
     28 H10       -28.1205    0.2528   -6.8798 H         1 51Y         0.0258
     29 H11       -28.5915    1.9595   -6.5759 H         1 51Y         0.0258
     30 H12       -29.5517   -1.3762   -5.9810 H         1 51Y         0.0293
     31 H13       -30.8802   -0.8540   -4.8905 H         1 51Y         0.0293
     32 H14       -28.7963   -2.5422   -4.1689 H         1 51Y         0.0267
     33 H15       -29.7837   -1.5748   -3.0218 H         1 51Y         0.0267
     34 H16       -27.7586   -0.6487   -2.4564 H         1 51Y         0.0288
     35 H17       -26.9962   -1.1231   -4.0121 H         1 51Y         0.0288
@<TRIPOS>BOND
     1    1    2 ar 
     2    1    3 ar 
     3    2    5 ar 
     4    2    8 1  
     5    3    7 ar 
     6    5    4 1  
     7    5    6 ar 
     8    6    7 ar 
     9    6   16 1  
    10    7   17 1  
    11    8    9 1  
    12    9   10 1  
    13    9   15 1  
    14   10   11 1  
    15   10   12 1  
    16   10   13 1  
    17   13   14 1  
    18   14   15 1  
    19   17   18 3  
    20    1   19 1  
    21    3   20 1  
    22    4   21 1  
    23    4   22 1  
    24    4   23 1  
    25    8   24 1  
    26    9   25 1  
    27   11   26 1  
    28   12   27 1  
    29   12   28 1  
    30   12   29 1  
    31   13   30 1  
    32   13   31 1  
    33   14   32 1  
    34   14   33 1  
    35   15   34 1  
    36   15   35 1  
@<TRIPOS>SUBSTRUCTURE
     1 51Y         1

