### 
### Created by X-TOOL on Mon Sep 10 21:13:24 2018
### 

@<TRIPOS>MOLECULE
5cjf_ligand
   41    43     1     0     0
SMALL
GAST_HUCK


@<TRIPOS>ATOM
      1 C3         67.9780   39.2800   -6.5830 C.ar      1 520        -0.0548
      2 C2         69.0270   39.7780   -7.3480 C.ar      1 520        -0.0382
      3 C1         69.9060   38.9020   -7.9760 C.ar      1 520         0.0411
      4 N1         70.9360   39.3900   -8.7260 N.pl3     1 520        -0.3338
      5 C6         69.7360   37.5290   -7.8390 C.ar      1 520        -0.0382
      6 C5         68.6860   37.0310   -7.0740 C.ar      1 520        -0.0548
      7 C4         67.8080   37.9070   -6.4470 C.ar      1 520         0.0203
      8 C7         66.6810   37.3720   -5.6230 C.2       1 520         0.1500
      9 O1         65.6350   37.0300   -6.1520 O.2       1 520        -0.3747
     10 C16        66.8540   37.2640   -4.1430 C.ar      1 520         0.0312
     11 C17        68.1090   37.4370   -3.5710 C.ar      1 520        -0.0436
     12 C18        68.2650   37.3430   -2.1920 C.ar      1 520        -0.0488
     13 C15        65.7550   36.9940   -3.3340 C.ar      1 520        -0.0436
     14 C14        65.9110   36.9000   -1.9560 C.ar      1 520        -0.0488
     15 C19        67.1670   37.0770   -1.3830 C.ar      1 520        -0.0139
     16 C10        67.3120   37.0170   -0.0020 C.ar      1 520        -0.0151
     17 C9         68.3770   37.6690    0.6120 C.ar      1 520        -0.0511
     18 C8         68.4900   37.6670    1.9980 C.ar      1 520        -0.0338
     19 C13        67.5390   37.0110    2.7710 C.ar      1 520         0.1086
     20 O3         67.2770   38.4130    4.8830 O.2       1 520        -0.1504
     21 O2         66.8330   36.0030    5.0410 O.2       1 520        -0.1504
     22 C12        66.4800   36.3500    2.1590 C.ar      1 520        -0.0338
     23 C11        66.3680   36.3530    0.7720 C.ar      1 520        -0.0511
     24 S2         67.6430   37.0710    4.5260 S.o2      1 520         0.0662
     25 N2         69.1600   36.8210    4.9250 N.am      1 520        -0.2609
     26 H1         67.2930   39.9623   -6.0928 H         1 520         0.0637
     27 H2         69.1596   40.8485   -7.4549 H         1 520         0.0531
     28 H3         71.5869   38.7412   -9.1911 H         1 520         0.1740
     29 H4         71.0626   40.4072   -8.8271 H         1 520         0.1740
     30 H5         70.4215   36.8465   -8.3282 H         1 520         0.0531
     31 H6         68.5529   35.9605   -6.9671 H         1 520         0.0637
     32 H7         68.9668   37.6453   -4.2001 H         1 520         0.0667
     33 H8         69.2446   37.4775   -1.7478 H         1 520         0.0634
     34 H9         64.7760   36.8568   -3.7787 H         1 520         0.0667
     35 H10        65.0537   36.6887   -1.3271 H         1 520         0.0634
     36 H11        69.1195   38.1791    0.0091 H         1 520         0.0630
     37 H12        69.3192   38.1767    2.4753 H         1 520         0.0639
     38 H13        65.7423   35.8328    2.7617 H         1 520         0.0639
     39 H14        65.5431   35.8366    0.2946 H         1 520         0.0630
     40 H15        69.4295   36.8164    5.8880 H         1 520         0.1635
     41 H16        69.8456   36.6682    4.2132 H         1 520         0.1635
@<TRIPOS>BOND
     1    1    2 ar 
     2    1    7 ar 
     3    2    3 ar 
     4    3    4 1  
     5    3    5 ar 
     6    5    6 ar 
     7    6    7 ar 
     8    7    8 1  
     9    8    9 2  
    10    8   10 1  
    11   10   11 ar 
    12   10   13 ar 
    13   11   12 ar 
    14   12   15 ar 
    15   13   14 ar 
    16   14   15 ar 
    17   15   16 1  
    18   16   17 ar 
    19   16   23 ar 
    20   17   18 ar 
    21   18   19 ar 
    22   19   22 ar 
    23   19   24 1  
    24   24   20 2  
    25   24   21 2  
    26   22   23 ar 
    27   24   25 am 
    28    1   26 1  
    29    2   27 1  
    30    4   28 1  
    31    4   29 1  
    32    5   30 1  
    33    6   31 1  
    34   11   32 1  
    35   12   33 1  
    36   13   34 1  
    37   14   35 1  
    38   17   36 1  
    39   18   37 1  
    40   22   38 1  
    41   23   39 1  
    42   25   40 1  
    43   25   41 1  
@<TRIPOS>SUBSTRUCTURE
     1 520         1

