### 
### Created by X-TOOL on Mon Sep 10 21:13:24 2018
### 

@<TRIPOS>MOLECULE
5clm_ligand
   42    44     1     0     0
SMALL
GAST_HUCK


@<TRIPOS>ATOM
      1 C1         69.0250   49.3620    9.2580 C.3       1 52K         0.0711
      2 C2         69.4340   50.3400    8.1430 C.3       1 52K         0.1176
      3 C5         68.3380   47.6900    7.6800 C.3       1 52K         0.1181
      4 C6         68.0490   48.8760    6.7650 C.cat     1 52K         0.2245
      5 C8         69.1140   51.7750    8.5720 C.3       1 52K        -0.0394
      6 C11        71.9160   50.6770    8.6470 C.ar      1 52K        -0.0486
      7 C12        72.7080   49.2580    6.3860 C.ar      1 52K         0.0950
      8 C16        74.0650   47.8480    4.6810 C.2       1 52K         0.2514
      9 C18        73.9470   47.0820    3.4240 C.ar      1 52K         0.1284
     10 C21        72.7330   46.6820    1.3800 C.ar      1 52K         0.0309
     11 C23        73.5970   45.6560    1.0460 C.ar      1 52K         0.0732
     12 CL         73.3540   44.8170   -0.4340 Cl        1 52K        -0.0569
     13 N19        72.9040   47.3890    2.5610 N.ar      1 52K        -0.2754
     14 C22        74.6430   45.3370    1.9040 C.ar      1 52K        -0.0227
     15 C20        74.8160   46.0380    3.0940 C.ar      1 52K        -0.0132
     16 O17        75.1370   47.9060    5.2460 O.2       1 52K        -0.3674
     17 N15        72.9510   48.4940    5.2170 N.am      1 52K        -0.2253
     18 C10        71.3650   49.4210    6.6860 C.ar      1 52K        -0.0158
     19 C14        73.6690   49.7980    7.2350 C.ar      1 52K        -0.0111
     20 C13        73.2670   50.5050    8.3600 C.ar      1 52K        -0.0434
     21 C9         70.9330   50.1410    7.8060 C.ar      1 52K        -0.0147
     22 N4         68.6070   50.0360    6.9520 N.pl3     1 52K        -0.2874
     23 N7         67.1800   48.7370    5.7210 N.pl3     1 52K        -0.2748
     24 O3         69.1640   48.0170    8.8050 O.3       1 52K        -0.3812
     25 H1         67.9768   49.5456    9.5367 H         1 52K         0.0510
     26 H2         69.6705   49.5192   10.1347 H         1 52K         0.0510
     27 H3         68.8462   46.9126    7.0906 H         1 52K         0.0576
     28 H4         67.3805   47.2990    8.0545 H         1 52K         0.0576
     29 H5         69.4078   52.4709    7.7724 H         1 52K         0.0181
     30 H6         69.6698   52.0158    9.4902 H         1 52K         0.0181
     31 H7         68.0345   51.8690    8.7615 H         1 52K         0.0181
     32 H8         71.6217   51.2316    9.5307 H         1 52K         0.0740
     33 H9         71.9160   46.9358    0.7143 H         1 52K         0.0847
     34 H10        75.3279   44.5377    1.6449 H         1 52K         0.0753
     35 H11        75.6252   45.7741    3.7653 H         1 52K         0.0762
     36 H12        72.1366   48.3955    4.6451 H         1 52K         0.2258
     37 H13        70.6242   48.9761    6.0315 H         1 52K         0.0711
     38 H14        74.7234   49.6676    7.0196 H         1 52K         0.0760
     39 H15        74.0137   50.9279    9.0224 H         1 52K         0.0664
     40 H16        68.4685   50.7717    6.2446 H         1 52K         0.3104
     41 H17        66.9849   49.5377    5.1032 H         1 52K         0.3178
     42 H18        66.7196   47.8314    5.5512 H         1 52K         0.3178
@<TRIPOS>BOND
     1    2    1 1  
     2    1   24 1  
     3    2    5 1  
     4   21    2 1  
     5    2   22 1  
     6    4    3 1  
     7   24    3 1  
     8   22    4 ar 
     9    4   23 ar 
    10    6   20 ar 
    11   21    6 ar 
    12    7   17 1  
    13   18    7 ar 
    14    7   19 ar 
    15    8    9 1  
    16    8   16 2  
    17   17    8 am 
    18    9   13 ar 
    19    9   15 ar 
    20   10   11 ar 
    21   13   10 ar 
    22   11   12 1  
    23   14   11 ar 
    24   15   14 ar 
    25   18   21 ar 
    26   19   20 ar 
    27    1   25 1  
    28    1   26 1  
    29    3   27 1  
    30    3   28 1  
    31    5   29 1  
    32    5   30 1  
    33    5   31 1  
    34    6   32 1  
    35   10   33 1  
    36   14   34 1  
    37   15   35 1  
    38   17   36 1  
    39   18   37 1  
    40   19   38 1  
    41   20   39 1  
    42   22   40 1  
    43   23   41 1  
    44   23   42 1  
@<TRIPOS>SUBSTRUCTURE
     1 52K         1

