### 
### Created by X-TOOL on Mon Sep 10 21:13:26 2018
### 

@<TRIPOS>MOLECULE
5cls_ligand
   53    55     1     0     0
SMALL
GAST_HUCK


@<TRIPOS>ATOM
      1 C8         25.3520   21.4430   15.1990 C.3       1 52T         0.1097
      2 C5         25.0130   19.9500   15.0760 C.ar      1 52T        -0.0206
      3 C6         26.0240   18.9800   14.9260 C.ar      1 52T        -0.0659
      4 C7         25.6930   17.5870   14.8260 C.ar      1 52T        -0.0395
      5 C2         24.3350   17.2290   14.9420 C.ar      1 52T         0.0837
      6 C3         23.3830   18.1830   15.1430 C.ar      1 52T        -0.0395
      7 C4         23.6910   19.5520   15.2250 C.ar      1 52T        -0.0659
      8 O4         23.9200   15.9240   14.9350 O.3       1 52T        -0.3257
      9 C1         24.9390   14.9620   15.1810 C.3       1 52T         0.0579
     10 N1         26.3660   21.5530   16.2750 N.pl3     1 52T        -0.1415
     11 C11        26.5320   21.3060   17.5540 C.2       1 52T         0.1134
     12 C12        27.9250   21.6350   17.9350 C.2       1 52T         0.1327
     13 N3         28.5490   22.0350   16.8060 N.2       1 52T        -0.1438
     14 N2         27.5950   22.0170   15.7870 N.2       1 52T        -0.0306
     15 C13        28.4130   21.5350   19.3310 C.3       1 52T         0.1564
     16 C10        25.5110   20.7200   18.4920 C.3       1 52T         0.0574
     17 C14        27.4360   20.7270   20.1990 C.3       1 52T        -0.0123
     18 C15        25.9560   21.0510   19.9150 C.3       1 52T        -0.0562
     19 O1         24.1340   21.1080   18.2290 O.3       1 52T        -0.4435
     20 C9         25.6630   19.1780   18.2710 C.3       1 52T        -0.0739
     21 O2         29.7170   20.9600   19.4030 O.3       1 52T        -0.2364
     22 C16        30.5690   21.5110   20.4230 C.2       1 52T         0.3235
     23 O3         30.1730   22.5360   20.9610 O.2       1 52T        -0.3774
     24 N4         31.6890   20.8030   20.6630 N.am      1 52T        -0.2598
     25 C17        32.6910   21.0680   21.6880 C.3       1 52T         0.0383
     26 C19        34.0880   21.1780   21.0650 C.3       1 52T        -0.0423
     27 C18        32.6110   19.9730   22.7630 C.3       1 52T        -0.0423
     28 H1         24.4520   22.0172   15.4639 H         1 52T         0.0793
     29 H2         25.7614   21.8199   14.2501 H         1 52T         0.0793
     30 H3         27.0623   19.2890   14.8857 H         1 52T         0.0531
     31 H4         26.4598   16.8375   14.6670 H         1 52T         0.0525
     32 H5         22.3487   17.8744   15.2435 H         1 52T         0.0525
     33 H6         22.9108   20.2837   15.4013 H         1 52T         0.0531
     34 H7         24.5040   13.9520   15.1540 H         1 52T         0.0575
     35 H8         25.3834   15.1434   16.1707 H         1 52T         0.0575
     36 H9         25.7174   15.0467   14.4084 H         1 52T         0.0575
     37 H10        28.4701   22.5549   19.7391 H         1 52T         0.0943
     38 H11        27.6447   20.9468   21.2564 H         1 52T         0.0320
     39 H12        27.6019   19.6566   20.0073 H         1 52T         0.0320
     40 H13        25.3347   20.4733   20.6152 H         1 52T         0.0147
     41 H14        25.7981   22.1261   20.0858 H         1 52T         0.0147
     42 H15        24.0412   22.0453   18.3526 H         1 52T         0.1885
     43 H16        25.3464   18.9211   17.2494 H         1 52T         0.0108
     44 H17        25.0345   18.6400   18.9959 H         1 52T         0.0108
     45 H18        26.7150   18.8892   18.4123 H         1 52T         0.0108
     46 H19        31.8507   20.0104   20.0750 H         1 52T         0.1870
     47 H20        32.4576   22.0321   22.1633 H         1 52T         0.0550
     48 H21        34.8270   21.3777   21.8549 H         1 52T         0.0252
     49 H22        34.1002   22.0007   20.3350 H         1 52T         0.0252
     50 H23        34.3389   20.2344   20.5583 H         1 52T         0.0252
     51 H24        33.3648   20.1666   23.5403 H         1 52T         0.0252
     52 H25        32.8025   18.9925   22.3027 H         1 52T         0.0252
     53 H26        31.6085   19.9760   23.2156 H         1 52T         0.0252
@<TRIPOS>BOND
     1    1    2 1  
     2    1   10 1  
     3    2    3 ar 
     4    2    7 ar 
     5    3    4 ar 
     6    4    5 ar 
     7    5    6 ar 
     8    5    8 1  
     9    6    7 ar 
    10    8    9 1  
    11   10   11 1  
    12   10   14 1  
    13   11   12 2  
    14   11   16 1  
    15   12   13 1  
    16   12   15 1  
    17   13   14 2  
    18   15   17 1  
    19   15   21 1  
    20   16   18 1  
    21   16   19 1  
    22   16   20 1  
    23   17   18 1  
    24   21   22 1  
    25   22   23 2  
    26   22   24 am 
    27   24   25 1  
    28   25   26 1  
    29   25   27 1  
    30    1   28 1  
    31    1   29 1  
    32    3   30 1  
    33    4   31 1  
    34    6   32 1  
    35    7   33 1  
    36    9   34 1  
    37    9   35 1  
    38    9   36 1  
    39   15   37 1  
    40   17   38 1  
    41   17   39 1  
    42   18   40 1  
    43   18   41 1  
    44   19   42 1  
    45   20   43 1  
    46   20   44 1  
    47   20   45 1  
    48   24   46 1  
    49   25   47 1  
    50   26   48 1  
    51   26   49 1  
    52   26   50 1  
    53   27   51 1  
    54   27   52 1  
    55   27   53 1  
@<TRIPOS>SUBSTRUCTURE
     1 52T         1

