### 
### Created by X-TOOL on Mon Sep 10 21:13:24 2018
### 

@<TRIPOS>MOLECULE
5cnj_ligand
   30    32     1     0     0
SMALL
GAST_HUCK


@<TRIPOS>ATOM
      1 C7          6.6680   33.9290  -28.0320 C.3       1 52Q        -0.0021
      2 C6          7.9760   33.6290  -27.4100 C.3       1 52Q         0.0245
      3 C1          6.9490   34.5060  -32.6910 C.2       1 52Q         0.1119
      4 C5          6.4680   35.9020  -26.8020 C.3       1 52Q         0.0136
      5 C4          5.1380   34.9220  -25.2430 C.2       1 52Q         0.0964
      6 C3          8.5510   32.3980  -27.7650 C.2       1 52Q         0.0386
      7 C2          6.6950   35.5260  -30.8240 C.2       1 52Q         0.1968
      8 C8          6.7490   33.5970  -26.5950 C.3       1 52Q         0.0304
      9 C9          6.1840   35.2980  -28.1410 C.3       1 52Q         0.0361
     10 C10         6.5160   34.7950  -25.8020 C.3       1 52Q         0.0387
     11 N11         5.6980   34.8330  -32.5870 N.2       1 52Q        -0.2695
     12 N12         5.5360   35.4760  -31.4080 N.2       1 52Q        -0.2598
     13 N13         7.6200   34.9300  -31.5990 N.pl3     1 52Q        -0.2212
     14 N14         7.5750   35.0870  -24.8500 N.4       1 52Q         0.2232
     15 O15         7.7420   31.3260  -27.8330 O.co2     1 52Q        -0.5687
     16 O16         5.0390   35.0320  -23.9030 O.co2     1 52Q        -0.5422
     17 O17         9.7600   32.3920  -28.0310 O.co2     1 52Q        -0.5687
     18 O18         4.2330   34.9220  -26.0920 O.co2     1 52Q        -0.5422
     19 S19         7.1280   36.2240  -29.3250 S.3       1 52Q        -0.0377
     20 H1          6.2543   33.2696  -28.8092 H         1 52Q         0.0339
     21 H2          8.7419   34.4045  -27.2618 H         1 52Q         0.0473
     22 H3          7.3904   33.9713  -33.5307 H         1 52Q         0.1260
     23 H4          5.6715   36.6124  -26.5356 H         1 52Q         0.0329
     24 H5          7.4345   36.4267  -26.8257 H         1 52Q         0.0329
     25 H6          6.3543   32.6747  -26.1438 H         1 52Q         0.0376
     26 H7          5.1128   35.3231  -28.3898 H         1 52Q         0.0449
     27 H8          8.6249   34.8208  -31.4012 H         1 52Q         0.2466
     28 H9          7.3461   35.9256  -24.3396 H         1 52Q         0.1999
     29 H10         8.4434   35.2208  -25.3440 H         1 52Q         0.1999
     30 H11         7.6698   34.3172  -24.2062 H         1 52Q         0.1999
@<TRIPOS>BOND
     1    1    2 1  
     2    1    8 1  
     3    9    1 1  
     4    2    6 1  
     5    8    2 1  
     6    3   11 2  
     7   13    3 1  
     8    9    4 1  
     9    4   10 1  
    10   10    5 1  
    11    5   16 ar 
    12    5   18 ar 
    13    6   15 ar 
    14    6   17 ar 
    15    7   12 2  
    16    7   13 1  
    17   19    7 1  
    18   10    8 1  
    19    9   19 1  
    20   10   14 1  
    21   11   12 1  
    22    1   20 1  
    23    2   21 1  
    24    3   22 1  
    25    4   23 1  
    26    4   24 1  
    27    8   25 1  
    28    9   26 1  
    29   13   27 1  
    30   14   28 1  
    31   14   29 1  
    32   14   30 1  
@<TRIPOS>SUBSTRUCTURE
     1 52Q         1

