### 
### Created by X-TOOL on Mon Sep 10 21:13:22 2018
### 

@<TRIPOS>MOLECULE
5cnm_ligand
   30    32     1     0     0
SMALL
GAST_HUCK


@<TRIPOS>ATOM
      1 C7          3.2740   21.5530   16.9310 C.3       1 52Q        -0.0021
      2 C6          4.5820   22.2020   17.2650 C.3       1 52Q         0.0245
      3 C1         -1.7430   23.6130   19.1620 C.2       1 52Q         0.1119
      4 C5          2.5760   20.9180   19.1360 C.3       1 52Q         0.0136
      5 C4          3.6380   18.8680   18.9880 C.2       1 52Q         0.0964
      6 C3          5.4560   22.5610   16.1770 C.2       1 52Q         0.0386
      7 C2          0.3940   23.3460   19.0080 C.2       1 52Q         0.1968
      8 C8          4.3670   20.7470   17.5440 C.3       1 52Q         0.0304
      9 C9          2.1590   21.6730   17.8920 C.3       1 52Q         0.0361
     10 C10         3.9570   20.3420   18.9040 C.3       1 52Q         0.0387
     11 N11        -1.3270   23.0240   20.2620 N.2       1 52Q        -0.2695
     12 N12         0.0300   22.8530   20.1680 N.2       1 52Q        -0.2598
     13 N13        -0.6830   23.8360   18.3370 N.pl3     1 52Q        -0.2212
     14 N14         4.8410   20.8270   19.9870 N.4       1 52Q         0.2232
     15 O15         6.4980   23.2110   16.4610 O.co2     1 52Q        -0.5687
     16 O16         4.4590   18.1900   19.6630 O.co2     1 52Q        -0.5422
     17 O17         5.1170   22.1990   15.0170 O.co2     1 52Q        -0.5687
     18 O18         2.5950   18.5190   18.3720 O.co2     1 52Q        -0.5422
     19 S19         1.9870   23.4140   18.3300 S.3       1 52Q        -0.0377
     20 H1          2.9349   21.4508   15.8896 H         1 52Q         0.0339
     21 H2          4.6611   22.9314   18.0846 H         1 52Q         0.0473
     22 H3         -2.7759   23.8810   18.9446 H         1 52Q         0.1260
     23 H4          1.8625   20.1045   19.3337 H         1 52Q         0.0329
     24 H5          2.5988   21.6030   19.9964 H         1 52Q         0.0329
     25 H6          4.9417   19.9712   17.0168 H         1 52Q         0.0376
     26 H7          1.2230   21.2740   17.4740 H         1 52Q         0.0449
     27 H8         -0.6942   24.2792   17.4073 H         1 52Q         0.2466
     28 H9          4.4899   20.5068   20.8760 H         1 52Q         0.1999
     29 H10         4.8623   21.8347   19.9774 H         1 52Q         0.1999
     30 H11         5.7729   20.4698   19.8454 H         1 52Q         0.1999
@<TRIPOS>BOND
     1    1    2 1  
     2    1    8 1  
     3    9    1 1  
     4    2    6 1  
     5    8    2 1  
     6    3   11 2  
     7   13    3 1  
     8    9    4 1  
     9    4   10 1  
    10   10    5 1  
    11    5   16 ar 
    12    5   18 ar 
    13    6   15 ar 
    14    6   17 ar 
    15    7   12 2  
    16    7   13 1  
    17   19    7 1  
    18   10    8 1  
    19    9   19 1  
    20   10   14 1  
    21   11   12 1  
    22    1   20 1  
    23    2   21 1  
    24    3   22 1  
    25    4   23 1  
    26    4   24 1  
    27    8   25 1  
    28    9   26 1  
    29   13   27 1  
    30   14   28 1  
    31   14   29 1  
    32   14   30 1  
@<TRIPOS>SUBSTRUCTURE
     1 52Q         1

