### 
### Created by X-TOOL on Mon Sep 10 21:13:28 2018
### 

@<TRIPOS>MOLECULE
5cp5_ligand
   41    44     1     0     0
SMALL
GAST_HUCK


@<TRIPOS>ATOM
      1 CAO       -12.0370    3.4240    1.3530 C.3       1 EB0        -0.0394
      2 CAN       -12.4240    4.7640    1.9050 C.3       1 EB0         0.0527
      3 NAK       -12.5380    5.6650    0.7200 N.am      1 EB0        -0.2187
      4 CAL       -13.6520    5.9100   -0.0050 C.2       1 EB0         0.2348
      5 OAM       -14.7290    5.3090    0.1540 O.2       1 EB0        -0.3691
      6 CAJ       -13.3750    6.8270   -0.9630 C.ar      1 EB0         0.0577
      7 CAI       -14.0810    7.4450   -1.9330 C.ar      1 EB0        -0.0428
      8 CAH       -13.4610    8.3870   -2.7740 C.ar      1 EB0        -0.0548
      9 CAG       -12.0920    8.6720   -2.5810 C.ar      1 EB0        -0.0507
     10 CAD       -11.3810    8.0130   -1.5440 C.ar      1 EB0         0.0011
     11 CAE       -12.0670    7.1150   -0.8030 C.ar      1 EB0         0.0245
     12 CAF       -11.5500    6.4190    0.2230 C.ar      1 EB0         0.0799
     13 CAA       -10.2320    6.5420    0.5310 C.ar      1 EB0        -0.0397
     14 CAB        -9.4470    7.4600   -0.1800 C.ar      1 EB0        -0.0499
     15 CAC       -10.0030    8.1880   -1.2390 C.ar      1 EB0         0.1055
     16 SAP        -8.9230    9.2840   -2.1550 S.o2      1 EB0         0.0818
     17 OAQ        -7.5160    9.0660   -1.6010 O.2       1 EB0        -0.1470
     18 OAR        -9.3950   10.7190   -1.9680 O.2       1 EB0        -0.1470
     19 NAS        -9.0260    8.9070   -3.7090 N.am      1 EB0        -0.1911
     20 CAT        -8.9370    7.6440   -4.2010 C.ar      1 EB0         0.0585
     21 CAU        -8.1820    6.6010   -3.6630 C.ar      1 EB0        -0.0469
     22 CAV        -8.1240    5.3490   -4.2910 C.ar      1 EB0        -0.0441
     23 CAW        -8.8160    5.1240   -5.4670 C.ar      1 EB0         0.1136
     24 FAZ        -8.7980    3.9440   -6.0790 F         1 EB0        -0.1979
     25 CAX        -9.5590    6.1570   -6.0200 C.ar      1 EB0        -0.0441
     26 CAY        -9.5970    7.4000   -5.3960 C.ar      1 EB0        -0.0469
     27 H1        -11.9343    2.7035    2.1778 H         1 EB0         0.0254
     28 H2        -11.0787    3.5099    0.8198 H         1 EB0         0.0254
     29 H3        -12.8142    3.0759    0.6567 H         1 EB0         0.0254
     30 H4        -11.6515    5.1330    2.5957 H         1 EB0         0.0585
     31 H5        -13.3870    4.6990    2.4327 H         1 EB0         0.0585
     32 H6        -15.1319    7.2142   -2.0649 H         1 EB0         0.0680
     33 H7        -14.0239    8.8846   -3.5554 H         1 EB0         0.0632
     34 H8        -11.5877    9.3883   -3.2195 H         1 EB0         0.0665
     35 H9         -9.7934    5.9376    1.3168 H         1 EB0         0.0485
     36 H10        -8.4076    7.6067    0.0904 H         1 EB0         0.0592
     37 H11        -9.1653    9.6523   -4.3610 H         1 EB0         0.2145
     38 H12        -7.6308    6.7617   -2.7435 H         1 EB0         0.0473
     39 H13        -7.5334    4.5528   -3.8524 H         1 EB0         0.0561
     40 H14       -10.1105    5.9955   -6.9392 H         1 EB0         0.0561
     41 H15       -10.1600    8.2027   -5.8583 H         1 EB0         0.0473
@<TRIPOS>BOND
     1    1    2 1  
     2    2    3 1  
     3    3    4 am 
     4    3   12 1  
     5    4    5 2  
     6    4    6 1  
     7    6    7 ar 
     8    6   11 ar 
     9    7    8 ar 
    10    8    9 ar 
    11    9   10 ar 
    12   10   11 ar 
    13   10   15 ar 
    14   11   12 ar 
    15   12   13 ar 
    16   13   14 ar 
    17   14   15 ar 
    18   15   16 1  
    19   16   17 2  
    20   16   18 2  
    21   16   19 am 
    22   19   20 1  
    23   20   21 ar 
    24   20   26 ar 
    25   21   22 ar 
    26   22   23 ar 
    27   23   24 1  
    28   23   25 ar 
    29   25   26 ar 
    30    1   27 1  
    31    1   28 1  
    32    1   29 1  
    33    2   30 1  
    34    2   31 1  
    35    7   32 1  
    36    8   33 1  
    37    9   34 1  
    38   13   35 1  
    39   14   36 1  
    40   19   37 1  
    41   21   38 1  
    42   22   39 1  
    43   25   40 1  
    44   26   41 1  
@<TRIPOS>SUBSTRUCTURE
     1 EB0         1

