### 
### Created by X-TOOL on Mon Sep 10 21:13:24 2018
### 

@<TRIPOS>MOLECULE
5cp9_ligand
   17    17     1     0     0
SMALL
GAST_HUCK


@<TRIPOS>ATOM
      1 CAE        -2.6950   28.4760  -11.0070 C.2       1 6O5        -0.0705
      2 CAC        -2.2590   27.2280  -10.8570 C.2       1 6O5        -0.0809
      3 CAD        -3.3060   26.4200  -10.7070 C.2       1 6O5         0.0669
      4 OAH        -4.4440   27.1790  -10.7590 O.3       1 6O5        -0.2687
      5 CAJ        -4.0200   28.4580  -10.9500 C.2       1 6O5         0.0968
      6 CAG        -4.9750   29.6330  -11.0720 C.3       1 6O5         0.0223
      7 CAF        -5.6970   29.5940  -12.4110 C.3       1 6O5         0.0125
      8 CAI        -5.6580   30.9710  -13.0690 C.2       1 6O5         0.0369
      9 OAB        -6.6120   31.7370  -12.8170 O.co2     1 6O5        -0.5688
     10 OAA        -4.6730   31.2220  -13.8010 O.co2     1 6O5        -0.5688
     11 H1         -2.0728   29.3580  -11.1513 H         1 6O5         0.0219
     12 H2         -1.2151   26.9179  -10.8570 H         1 6O5         0.0296
     13 H3         -3.2645   25.3408  -10.5670 H         1 6O5         0.0854
     14 H4         -4.4066   30.5715  -10.9942 H         1 6O5         0.0473
     15 H5         -5.7152   29.5841  -10.2598 H         1 6O5         0.0473
     16 H6         -6.7440   29.2968  -12.2512 H         1 6O5         0.0454
     17 H7         -5.2045   28.8626  -13.0686 H         1 6O5         0.0454
@<TRIPOS>BOND
     1    1    2 1  
     2    1    5 2  
     3    2    3 2  
     4    3    4 1  
     5    4    5 1  
     6    5    6 1  
     7    6    7 1  
     8    7    8 1  
     9    8    9 ar 
    10    8   10 ar 
    11    1   11 1  
    12    2   12 1  
    13    3   13 1  
    14    6   14 1  
    15    6   15 1  
    16    7   16 1  
    17    7   17 1  
@<TRIPOS>SUBSTRUCTURE
     1 6O5         1

