### 
### Created by X-TOOL on Mon Sep 10 21:13:32 2018
### 

@<TRIPOS>MOLECULE
5cpr_ligand
   40    43     1     0     0
SMALL
GAST_HUCK


@<TRIPOS>ATOM
      1 C5         -3.8740  -14.3640   24.4410 C.ar      1 539        -0.0178
      2 C6         -3.6600  -15.4610   25.2720 C.ar      1 539         0.0552
      3 C7         -3.3670  -16.6960   24.7300 C.ar      1 539         0.0372
      4 C8         -3.0960  -17.7140   25.6300 C.ar      1 539         0.0776
      5 C10        -1.9360  -19.3900   24.1740 C.ar      1 539        -0.0171
      6 N12        -1.8670  -21.7300   24.7460 N.ar      1 539        -0.2913
      7 C13        -2.5880  -21.4020   25.8280 C.ar      1 539         0.0174
      8 C17        -3.6780  -15.3670   26.6540 C.ar      1 539         0.1269
      9 C20        -2.8570  -12.9240   28.9650 C.3       1 539        -0.0289
     10 C21        -3.6500  -11.6560   29.1320 C.3       1 539        -0.0508
     11 C22        -5.1080  -12.0220   29.1740 C.3       1 539        -0.0508
     12 C24        -3.3570  -16.8440   23.3470 C.ar      1 539        -0.0203
     13 C14        -3.0050  -20.1210   26.1440 C.ar      1 539        -0.0171
     14 C11        -1.5750  -20.7020   23.9360 C.ar      1 539         0.0174
     15 C9         -2.6800  -19.0720   25.2960 C.ar      1 539         0.0331
     16 C2         -3.6210  -15.7780   22.5090 C.ar      1 539         0.0703
     17 C3         -3.8480  -14.5340   23.0660 C.ar      1 539         0.0705
     18 C23        -5.1940  -13.5320   29.0930 C.3       1 539        -0.0289
     19 C19        -3.8400  -14.0270   28.6330 C.3       1 539         0.0441
     20 N15        -3.1860  -17.5480   26.9600 N.ar      1 539        -0.2714
     21 N16        -3.4560  -16.4210   27.4570 N.ar      1 539        -0.2763
     22 N18        -3.9310  -14.0980   27.1880 N.pl3     1 539        -0.2913
     23 CL1        -3.6570  -16.0530   20.7930 Cl        1 539        -0.0612
     24 CL4        -4.1190  -13.1830   22.0420 Cl        1 539        -0.0614
     25 H1         -4.0595  -13.3845   24.8667 H         1 539         0.0724
     26 H2         -1.6367  -18.6107   23.4825 H         1 539         0.0766
     27 H3         -2.8651  -22.2008   26.5064 H         1 539         0.0838
     28 H4         -2.3253  -13.1615   29.8982 H         1 539         0.0288
     29 H5         -2.1299  -12.8088   28.1477 H         1 539         0.0288
     30 H6         -3.4587  -10.9816   28.2843 H         1 539         0.0266
     31 H7         -3.3632  -11.1571   30.0694 H         1 539         0.0266
     32 H8         -5.6350  -11.5684   28.3217 H         1 539         0.0266
     33 H9         -5.5582  -11.6689   30.1135 H         1 539         0.0266
     34 H10        -3.1377  -17.8151   22.9182 H         1 539         0.0717
     35 H11        -3.5797  -19.9389   27.0449 H         1 539         0.0766
     36 H12        -1.0169  -20.9154   23.0316 H         1 539         0.0838
     37 H13        -5.9698  -13.8283   28.3716 H         1 539         0.0288
     38 H14        -5.4335  -13.9505   30.0816 H         1 539         0.0288
     39 H15        -3.5605  -14.9893   29.0867 H         1 539         0.0569
     40 H16        -4.1625  -13.2826   26.6029 H         1 539         0.1914
@<TRIPOS>BOND
     1    2    1 ar 
     2    1   17 ar 
     3    2    3 ar 
     4    8    2 ar 
     5    3    4 ar 
     6    3   12 ar 
     7    4   15 1  
     8    4   20 ar 
     9    5   14 ar 
    10   15    5 ar 
    11    7    6 ar 
    12   14    6 ar 
    13   13    7 ar 
    14    8   21 ar 
    15   22    8 1  
    16    9   10 1  
    17   19    9 1  
    18   11   10 1  
    19   18   11 1  
    20   12   16 ar 
    21   15   13 ar 
    22   17   16 ar 
    23   16   23 1  
    24   17   24 1  
    25   19   18 1  
    26   19   22 1  
    27   20   21 ar 
    28    1   25 1  
    29    5   26 1  
    30    7   27 1  
    31    9   28 1  
    32    9   29 1  
    33   10   30 1  
    34   10   31 1  
    35   11   32 1  
    36   11   33 1  
    37   12   34 1  
    38   13   35 1  
    39   14   36 1  
    40   18   37 1  
    41   18   38 1  
    42   19   39 1  
    43   22   40 1  
@<TRIPOS>SUBSTRUCTURE
     1 539         1

