### 
### Created by X-TOOL on Mon Sep 10 21:13:23 2018
### 

@<TRIPOS>MOLECULE
5cqj_ligand
   40    42     1     0     0
SMALL
GAST_HUCK


@<TRIPOS>ATOM
      1 C5        -15.4740   -0.9170   -7.0600 C.3       1 53Q         0.0604
      2 C6        -13.9270   -1.5030   -5.3050 C.ar      1 53Q         0.0941
      3 C7        -13.1390   -2.4360   -4.6490 C.ar      1 53Q        -0.0299
      4 C8        -12.4220   -2.0550   -3.5270 C.ar      1 53Q        -0.0604
      5 C9        -12.4770   -0.7500   -3.0450 C.ar      1 53Q        -0.0258
      6 C10       -13.2620    0.1750   -3.7320 C.ar      1 53Q        -0.0604
      7 C11       -13.9890   -0.1960   -4.8500 C.ar      1 53Q        -0.0299
      8 C12       -11.7400   -0.3610   -1.8150 C.2       1 53Q        -0.0036
      9 C13       -11.8640   -1.0450   -0.6140 C.2       1 53Q         0.0505
     10 C14       -12.7860   -2.1490   -0.2750 C.ar      1 53Q        -0.0154
     11 C15       -12.4070   -3.4740   -0.4760 C.ar      1 53Q        -0.0564
     12 CL        -10.8160   -0.7270    0.7240 Cl        1 53Q        -0.0719
     13 C19       -14.0110   -1.8880    0.3280 C.ar      1 53Q        -0.0564
     14 C18       -14.8350   -2.9270    0.7260 C.ar      1 53Q        -0.0627
     15 C17       -14.4470   -4.2350    0.5300 C.ar      1 53Q        -0.0631
     16 C16       -13.2360   -4.5070   -0.0700 C.ar      1 53Q        -0.0627
     17 C20       -10.7910    0.7760   -1.9870 C.ar      1 53Q        -0.0181
     18 C25       -10.0990    0.9430   -3.1840 C.ar      1 53Q        -0.0539
     19 C24        -9.2140    1.9940   -3.3460 C.ar      1 53Q        -0.0610
     20 C23        -9.0030    2.8890   -2.3230 C.ar      1 53Q        -0.0615
     21 C22        -9.6870    2.7440   -1.1360 C.ar      1 53Q        -0.0610
     22 C21       -10.5780    1.7000   -0.9680 C.ar      1 53Q        -0.0539
     23 O         -14.6530   -1.8970   -6.4070 O.3       1 53Q        -0.3190
     24 H1        -15.9872   -1.3800   -7.9157 H         1 53Q         0.0580
     25 H2        -14.8437   -0.0884   -7.4151 H         1 53Q         0.0580
     26 H3        -16.2203   -0.5317   -6.3497 H         1 53Q         0.0580
     27 H4        -13.0844   -3.4561   -5.0115 H         1 53Q         0.0553
     28 H5        -11.8069   -2.7860   -3.0149 H         1 53Q         0.0606
     29 H6        -13.3037    1.2011   -3.3851 H         1 53Q         0.0606
     30 H7        -14.6035    0.5323   -5.3667 H         1 53Q         0.0553
     31 H8        -11.4593   -3.6979   -0.9522 H         1 53Q         0.0610
     32 H9        -14.3237   -0.8625    0.4879 H         1 53Q         0.0610
     33 H10       -15.7889   -2.7110    1.1935 H         1 53Q         0.0614
     34 H11       -15.0918   -5.0469    0.8465 H         1 53Q         0.0606
     35 H12       -12.9306   -5.5355   -0.2250 H         1 53Q         0.0614
     36 H13       -10.2553    0.2428   -3.9966 H         1 53Q         0.0626
     37 H14        -8.6840    2.1128   -4.2841 H         1 53Q         0.0618
     38 H15        -8.3012    3.7053   -2.4503 H         1 53Q         0.0619
     39 H16        -9.5261    3.4512   -0.3304 H         1 53Q         0.0618
     40 H17       -11.1165    1.6001   -0.0325 H         1 53Q         0.0626
@<TRIPOS>BOND
     1   23    1 1  
     2    2    3 ar 
     3    2    7 ar 
     4    2   23 1  
     5    3    4 ar 
     6    4    5 ar 
     7    5    6 ar 
     8    5    8 1  
     9    6    7 ar 
    10    8    9 2  
    11    8   17 1  
    12    9   10 1  
    13    9   12 1  
    14   10   11 ar 
    15   10   13 ar 
    16   11   16 ar 
    17   13   14 ar 
    18   14   15 ar 
    19   15   16 ar 
    20   17   18 ar 
    21   17   22 ar 
    22   18   19 ar 
    23   19   20 ar 
    24   20   21 ar 
    25   21   22 ar 
    26    1   24 1  
    27    1   25 1  
    28    1   26 1  
    29    3   27 1  
    30    4   28 1  
    31    6   29 1  
    32    7   30 1  
    33   11   31 1  
    34   13   32 1  
    35   14   33 1  
    36   15   34 1  
    37   16   35 1  
    38   18   36 1  
    39   19   37 1  
    40   20   38 1  
    41   21   39 1  
    42   22   40 1  
@<TRIPOS>SUBSTRUCTURE
     1 53Q         1

