### 
### Created by X-TOOL on Mon Sep 10 21:13:26 2018
### 

@<TRIPOS>MOLECULE
5cqt_ligand
   47    50     1     0     0
SMALL
GAST_HUCK


@<TRIPOS>ATOM
      1 CAU         5.6900    9.2340   -2.9330 C.3       1 EB3        -0.0333
      2 CAV         5.7910    7.8790   -3.5590 C.3       1 EB3        -0.0513
      3 CAW         4.4170    7.1420   -3.4500 C.3       1 EB3        -0.0529
      4 CAX         3.9350    6.9990   -2.0000 C.3       1 EB3        -0.0513
      5 CAY         3.9560    8.2600   -1.1970 C.3       1 EB3        -0.0333
      6 CAT         4.5650    9.4530   -1.9440 C.3       1 EB3         0.0376
      7 NAS         4.6460   10.6560   -1.0620 N.am      1 EB3        -0.2462
      8 SAP         5.7500   11.1840    0.1570 S.o2      1 EB3         0.0615
      9 OAQ         7.1700   11.1670   -0.3430 O.2       1 EB3        -0.1525
     10 OAR         5.1730   12.5270    0.5360 O.2       1 EB3        -0.1525
     11 CAH         5.5540   10.2070    1.6100 C.ar      1 EB3         0.0997
     12 CAG         6.7160    9.6820    2.2070 C.ar      1 EB3        -0.0504
     13 CAF         6.6190    8.9120    3.3770 C.ar      1 EB3        -0.0397
     14 CAE         5.4240    8.6840    3.9430 C.ar      1 EB3         0.0799
     15 CAA         4.3120    9.1940    3.3560 C.ar      1 EB3         0.0245
     16 CAI         4.3150    9.9530    2.2410 C.ar      1 EB3         0.0006
     17 CAJ         3.0520   10.3950    1.7670 C.ar      1 EB3        -0.0508
     18 CAK         1.8960   10.0380    2.4900 C.ar      1 EB3        -0.0548
     19 CAL         2.0280    9.2450    3.6570 C.ar      1 EB3        -0.0428
     20 CAB         3.2390    8.8170    4.0680 C.ar      1 EB3         0.0577
     21 CAC         3.7300    8.0720    5.1090 C.2       1 EB3         0.2348
     22 OAN         3.1180    7.4010    5.9460 O.2       1 EB3        -0.3691
     23 NAD         5.0510    7.9750    5.0180 N.am      1 EB3        -0.2187
     24 CAM         5.9400    7.2850    5.9230 C.3       1 EB3         0.0527
     25 CAO         6.1120    5.8300    5.4180 C.3       1 EB3        -0.0394
     26 H1          5.5652    9.9659   -3.7446 H         1 EB3         0.0283
     27 H2          6.6364    9.4277   -2.4069 H         1 EB3         0.0283
     28 H3          6.5623    7.2926   -3.0382 H         1 EB3         0.0266
     29 H4          6.0650    7.9858   -4.6189 H         1 EB3         0.0266
     30 H5          4.5206    6.1379   -3.8870 H         1 EB3         0.0265
     31 H6          3.6658    7.7125   -4.0159 H         1 EB3         0.0265
     32 H7          4.5809    6.2642   -1.4972 H         1 EB3         0.0266
     33 H8          2.9007    6.6251   -2.0201 H         1 EB3         0.0266
     34 H9          4.5459    8.0823   -0.2857 H         1 EB3         0.0283
     35 H10         2.9219    8.5137   -0.9207 H         1 EB3         0.0283
     36 H11         3.7486    9.7245   -2.6294 H         1 EB3         0.0511
     37 H12         3.8940   11.2983   -1.2103 H         1 EB3         0.1674
     38 H13         7.6864    9.8725    1.7629 H         1 EB3         0.0592
     39 H14         7.5151    8.4991    3.8259 H         1 EB3         0.0485
     40 H15         2.9781   10.9950    0.8672 H         1 EB3         0.0665
     41 H16         0.9178   10.3660    2.1574 H         1 EB3         0.0632
     42 H17         1.1447    8.9792    4.2263 H         1 EB3         0.0680
     43 H18         5.5098    7.2793    6.9353 H         1 EB3         0.0585
     44 H19         6.9169    7.7902    5.9426 H         1 EB3         0.0585
     45 H20         6.7870    5.2846    6.0940 H         1 EB3         0.0254
     46 H21         6.5392    5.8417    4.4044 H         1 EB3         0.0254
     47 H22         5.1320    5.3308    5.3972 H         1 EB3         0.0254
@<TRIPOS>BOND
     1    1    2 1  
     2    1    6 1  
     3    2    3 1  
     4    3    4 1  
     5    4    5 1  
     6    5    6 1  
     7    6    7 1  
     8    7    8 am 
     9    8    9 2  
    10    8   10 2  
    11    8   11 1  
    12   11   12 ar 
    13   11   16 ar 
    14   12   13 ar 
    15   13   14 ar 
    16   14   15 ar 
    17   14   23 1  
    18   15   16 ar 
    19   15   20 ar 
    20   16   17 ar 
    21   17   18 ar 
    22   18   19 ar 
    23   19   20 ar 
    24   20   21 1  
    25   21   22 2  
    26   21   23 am 
    27   23   24 1  
    28   24   25 1  
    29    1   26 1  
    30    1   27 1  
    31    2   28 1  
    32    2   29 1  
    33    3   30 1  
    34    3   31 1  
    35    4   32 1  
    36    4   33 1  
    37    5   34 1  
    38    5   35 1  
    39    6   36 1  
    40    7   37 1  
    41   12   38 1  
    42   13   39 1  
    43   17   40 1  
    44   18   41 1  
    45   19   42 1  
    46   24   43 1  
    47   24   44 1  
    48   25   45 1  
    49   25   46 1  
    50   25   47 1  
@<TRIPOS>SUBSTRUCTURE
     1 EB3         1

