### 
### Created by X-TOOL on Mon Sep 10 21:13:24 2018
### 

@<TRIPOS>MOLECULE
5cqu_ligand
   41    43     1     0     0
SMALL
GAST_HUCK


@<TRIPOS>ATOM
      1 N01         4.7400   -9.1450   -7.6670 N.4       1 JRJ         0.2185
      2 C02         4.1620   -8.1890   -8.4900 C.3       1 JRJ        -0.0353
      3 C03         4.9920   -7.6380   -9.6010 C.3       1 JRJ        -0.0099
      4 C04         4.7600   -6.2210  -10.0100 C.3       1 JRJ        -0.0177
      5 C05         5.0650   -5.0940   -8.9530 C.3       1 JRJ         0.0756
      6 N06         4.9340   -3.7420   -9.3590 N.pl3     1 JRJ        -0.1813
      7 C07         5.3110   -3.2020  -10.5710 C.2       1 JRJ         0.0695
      8 C08         4.9700   -1.7550  -10.5080 C.2       1 JRJ         0.0409
      9 C09         5.1810   -0.6510  -11.6170 C.3       1 JRJ         0.0233
     10 C10         4.2390   -0.6260  -12.7510 C.3       1 JRJ         0.1209
     11 N11         4.5450   -1.5690  -13.8990 N.pl3     1 JRJ        -0.1237
     12 N12         4.6330   -1.2250  -15.1080 N.2       1 JRJ        -0.1725
     13 C13         4.9280   -2.3690  -15.8690 C.ar      1 JRJ         0.0772
     14 C14         5.1520   -2.6320  -17.3120 C.ar      1 JRJ         0.0445
     15 BR1         5.0500   -1.2400  -18.5230 Br        1 JRJ        -0.0427
     16 C16         5.4290   -3.9050  -17.7320 C.ar      1 JRJ         0.0362
     17 BR2         5.7310   -4.3020  -19.6320 Br        1 JRJ        -0.0436
     18 C18         5.5040   -4.9560  -16.8130 C.ar      1 JRJ         0.0362
     19 BR3         5.8970   -6.7330  -17.4360 Br        1 JRJ        -0.0436
     20 C20         5.2790   -4.6980  -15.3500 C.ar      1 JRJ         0.0445
     21 BR4         5.3830   -6.1830  -14.0460 Br        1 JRJ        -0.0427
     22 C22         5.0060   -3.4510  -14.9280 C.ar      1 JRJ         0.0772
     23 N23         4.7580   -2.8860  -13.7300 N.2       1 JRJ        -0.1725
     24 N24         4.4020   -1.5960   -9.2030 N.2       1 JRJ        -0.2264
     25 N25         4.3980   -2.7250   -8.5850 N.2       1 JRJ        -0.1020
     26 H1          4.0756   -9.4294   -6.9643 H         1 JRJ         0.1994
     27 H2          5.5553   -8.7553   -7.2203 H         1 JRJ         0.1994
     28 H3          5.0090   -9.9448   -8.2184 H         1 JRJ         0.1994
     29 H4          3.8633   -7.3438   -7.8526 H         1 JRJ         0.0813
     30 H5          3.2671   -8.6418   -8.9417 H         1 JRJ         0.0813
     31 H6          4.8148   -8.2674  -10.4855 H         1 JRJ         0.0318
     32 H7          6.0454   -7.7225   -9.2959 H         1 JRJ         0.0318
     33 H8          3.7005   -6.1295  -10.2910 H         1 JRJ         0.0296
     34 H9          5.3909   -6.0256  -10.8897 H         1 JRJ         0.0296
     35 H10         6.1028   -5.2344   -8.6166 H         1 JRJ         0.0648
     36 H11         4.3808   -5.2478   -8.1055 H         1 JRJ         0.0648
     37 H12         5.7673   -3.7296  -11.4073 H         1 JRJ         0.0898
     38 H13         6.1900   -0.7915  -12.0319 H         1 JRJ         0.0421
     39 H14         5.1220    0.3286  -11.1201 H         1 JRJ         0.0421
     40 H15         4.2251    0.3979  -13.1528 H         1 JRJ         0.0810
     41 H16         3.2416   -0.8816  -12.3640 H         1 JRJ         0.0810
@<TRIPOS>BOND
     1    1    2 1  
     2    2    3 1  
     3    3    4 1  
     4    4    5 1  
     5    5    6 1  
     6    6    7 1  
     7    6   25 1  
     8    7    8 2  
     9    8    9 1  
    10    8   24 1  
    11    9   10 1  
    12   10   11 1  
    13   11   12 1  
    14   11   23 1  
    15   12   13 2  
    16   13   14 ar 
    17   13   22 ar 
    18   14   15 1  
    19   14   16 ar 
    20   16   17 1  
    21   16   18 ar 
    22   18   19 1  
    23   18   20 ar 
    24   20   21 1  
    25   20   22 ar 
    26   22   23 2  
    27   24   25 2  
    28    1   26 1  
    29    1   27 1  
    30    1   28 1  
    31    2   29 1  
    32    2   30 1  
    33    3   31 1  
    34    3   32 1  
    35    4   33 1  
    36    4   34 1  
    37    5   35 1  
    38    5   36 1  
    39    7   37 1  
    40    9   38 1  
    41    9   39 1  
    42   10   40 1  
    43   10   41 1  
@<TRIPOS>SUBSTRUCTURE
     1 JRJ         1

