### 
### Created by X-TOOL on Mon Sep 10 21:13:29 2018
### 

@<TRIPOS>MOLECULE
5cr7_ligand
   45    49     1     0     0
SMALL
GAST_HUCK


@<TRIPOS>ATOM
      1 C4         83.2040   69.1070   50.0620 C.ar      1 5WO         0.1535
      2 C5         82.1900   68.6670   50.8320 C.ar      1 5WO         0.1070
      3 C6         82.4490   68.1210   52.0380 C.ar      1 5WO         0.1604
      4 C8         81.4000   69.9180   49.2550 C.2       1 5WO         0.1061
      5 N1         83.6820   67.6270   52.1320 N.ar      1 5WO        -0.2698
      6 N3         84.4790   68.7680   50.2820 N.ar      1 5WO        -0.2756
      7 C2         84.7720   68.0000   51.3790 C.ar      1 5WO         0.0494
      8 N6         81.4460   67.5360   52.7560 N.am      1 5WO        -0.2096
      9 N7         81.0940   69.2400   50.3570 N.2       1 5WO        -0.2973
     10 N9         82.7070   69.8380   49.0750 N.pl3     1 5WO        -0.2375
     11 C3         82.7420   66.7510   54.7250 C.ar      1 5WO         0.0588
     12 C7         83.7820   67.6860   54.6920 C.ar      1 5WO        -0.0335
     13 C10        85.3390   66.3600   55.8010 C.ar      1 5WO        -0.0500
     14 C11        84.3710   65.3530   55.8170 C.ar      1 5WO        -0.0557
     15 C12        83.1100   65.5130   55.2290 C.ar      1 5WO        -0.0413
     16 C13        81.5330   66.8920   54.0000 C.2       1 5WO         0.2419
     17 C1         85.8360   68.7090   55.2190 C.ar      1 5WO        -0.0208
     18 C14        87.2260   68.6580   55.1590 C.ar      1 5WO        -0.0193
     19 C16        87.3690   71.0650   55.3590 C.ar      1 5WO        -0.0266
     20 C17        86.0030   71.1160   55.5680 C.ar      1 5WO        -0.0649
     21 C18        85.2600   69.9410   55.5400 C.ar      1 5WO        -0.0606
     22 C19        84.9830   67.6190   55.3620 C.ar      1 5WO        -0.0138
     23 N2         89.2940   69.8090   54.9520 N.pl3     1 5WO        -0.2414
     24 C9         89.9290   68.6870   54.6210 C.2       1 5WO         0.0286
     25 C20        91.2250   68.9620   54.5720 C.2       1 5WO        -0.0842
     26 C21        91.3930   70.2480   54.8760 C.2       1 5WO        -0.0842
     27 C22        90.1930   70.7790   55.1140 C.2       1 5WO         0.0286
     28 C23        87.9740   69.8320   55.1100 C.ar      1 5WO         0.0944
     29 O1         80.5220   66.4050   54.5160 O.2       1 5WO        -0.3679
     30 H1         80.6969   70.4467   48.6131 H         1 5WO         0.1337
     31 H2         85.7846   67.7088   51.6339 H         1 5WO         0.0987
     32 H3         80.5354   67.5707   52.3441 H         1 5WO         0.2375
     33 H4         83.2424   70.2665   48.3064 H         1 5WO         0.2390
     34 H5         83.6250   68.5599   54.0702 H         1 5WO         0.0677
     35 H6         86.3523   66.1560   56.1278 H         1 5WO         0.0658
     36 H7         84.6046   64.4125   56.3027 H         1 5WO         0.0629
     37 H8         82.4261   64.6742   55.1683 H         1 5WO         0.0669
     38 H9         87.7296   67.6981   55.1504 H         1 5WO         0.0590
     39 H10        87.9627   71.9715   55.3882 H         1 5WO         0.0589
     40 H11        85.5145   72.0660   55.7525 H         1 5WO         0.0601
     41 H12        84.2024   69.9819   55.7742 H         1 5WO         0.0567
     42 H13        89.4681   67.7198   54.4260 H         1 5WO         0.0810
     43 H14        92.0172   68.2567   54.3253 H         1 5WO         0.0283
     44 H15        92.3452   70.7745   54.9222 H         1 5WO         0.0283
     45 H16        89.9865   71.8122   55.3893 H         1 5WO         0.0810
@<TRIPOS>BOND
     1    2    1 ar 
     2    1    6 ar 
     3    1   10 1  
     4    3    2 ar 
     5    2    9 1  
     6    3    5 ar 
     7    8    3 1  
     8    9    4 2  
     9    4   10 1  
    10    5    7 ar 
    11    7    6 ar 
    12   16    8 am 
    13   12   11 ar 
    14   11   15 ar 
    15   11   16 1  
    16   22   12 ar 
    17   13   14 ar 
    18   22   13 ar 
    19   14   15 ar 
    20   16   29 2  
    21   18   17 ar 
    22   17   21 ar 
    23   17   22 1  
    24   28   18 ar 
    25   19   20 ar 
    26   28   19 ar 
    27   20   21 ar 
    28   23   24 1  
    29   23   27 1  
    30   23   28 1  
    31   24   25 2  
    32   25   26 1  
    33   26   27 2  
    34    4   30 1  
    35    7   31 1  
    36    8   32 1  
    37   10   33 1  
    38   12   34 1  
    39   13   35 1  
    40   14   36 1  
    41   15   37 1  
    42   18   38 1  
    43   19   39 1  
    44   20   40 1  
    45   21   41 1  
    46   24   42 1  
    47   25   43 1  
    48   26   44 1  
    49   27   45 1  
@<TRIPOS>SUBSTRUCTURE
     1 5WO         1

