### 
### Created by X-TOOL on Mon Sep 10 21:13:25 2018
### 

@<TRIPOS>MOLECULE
5cs3_ligand
   37    37     1     0     0
SMALL
GAST_HUCK


@<TRIPOS>ATOM
      1 O2S        -4.7020   30.7240  -13.7350 O.co2     1 EP1        -0.4846
      2 S          -5.6300   30.1500  -12.7580 S.o2      1 EP1        -0.1913
      3 O3S        -6.3640   28.9310  -13.2610 O.co2     1 EP1        -0.4846
      4 O1S        -6.6390   31.2060  -12.3700 O.co2     1 EP1        -0.4846
      5 C11        -4.6490   29.5150  -11.3380 C.3       1 EP1         0.0355
      6 C10        -3.5490   28.5770  -11.8470 C.3       1 EP1         0.0039
      7 C9         -2.7580   27.8730  -10.7270 C.3       1 EP1        -0.0301
      8 N1         -2.6500   26.4020  -10.9310 N.4       1 EP1         0.2427
      9 C2         -2.4280   25.7630   -9.6010 C.3       1 EP1         0.0094
     10 C3         -1.6680   24.4110   -9.6530 C.3       1 EP1         0.0095
     11 N4         -0.4980   24.4750  -10.5620 N.4       1 EP1         0.2443
     12 C5         -1.0130   24.7180  -11.9200 C.3       1 EP1         0.0095
     13 C6         -1.6900   26.1030  -12.0230 C.3       1 EP1         0.0094
     14 C7          0.4780   25.5120  -10.1420 C.3       1 EP1        -0.0078
     15 C8          1.8200   24.8860   -9.7870 C.3       1 EP1         0.0841
     16 O8          2.7420   25.0560  -10.8750 O.3       1 EP1        -0.3898
     17 H1         -5.3110   28.9643  -10.6536 H         1 EP1         0.0470
     18 H2         -4.1903   30.3600  -10.8037 H         1 EP1         0.0470
     19 H3         -2.8434   29.1667  -12.4507 H         1 EP1         0.0332
     20 H4         -4.0161   27.8062  -12.4777 H         1 EP1         0.0332
     21 H5         -3.2657   28.0582   -9.7689 H         1 EP1         0.0815
     22 H6         -1.7440   28.2980  -10.6928 H         1 EP1         0.0815
     23 H7         -3.5449   26.0703  -11.2553 H         1 EP1         0.2038
     24 H8         -3.4095   25.5872   -9.1366 H         1 EP1         0.0868
     25 H9         -1.8472   26.4594   -8.9784 H         1 EP1         0.0868
     26 H10        -2.3547   23.6294  -10.0101 H         1 EP1         0.0868
     27 H11        -1.3196   24.1585   -8.6406 H         1 EP1         0.0868
     28 H12        -0.0270   23.5839  -10.5481 H         1 EP1         0.2038
     29 H13        -1.7494   23.9397  -12.1688 H         1 EP1         0.0868
     30 H14        -0.1772   24.6736  -12.6337 H         1 EP1         0.0868
     31 H15        -0.9033   26.8717  -12.0089 H         1 EP1         0.0868
     32 H16        -2.2317   26.1502  -12.9792 H         1 EP1         0.0868
     33 H17         0.0840   26.0415   -9.2620 H         1 EP1         0.0837
     34 H18         0.6210   26.2263  -10.9662 H         1 EP1         0.0837
     35 H19         1.6813   23.8126   -9.5910 H         1 EP1         0.0610
     36 H20         2.2235   25.3739   -8.8875 H         1 EP1         0.0610
     37 H21         3.5762   24.6632  -10.6461 H         1 EP1         0.2096
@<TRIPOS>BOND
     1    1    2 ar 
     2    2    3 ar 
     3    2    4 ar 
     4    2    5 1  
     5    5    6 1  
     6    6    7 1  
     7    7    8 1  
     8    8    9 1  
     9    8   13 1  
    10    9   10 1  
    11   10   11 1  
    12   11   12 1  
    13   11   14 1  
    14   12   13 1  
    15   14   15 1  
    16   15   16 1  
    17    5   17 1  
    18    5   18 1  
    19    6   19 1  
    20    6   20 1  
    21    7   21 1  
    22    7   22 1  
    23    8   23 1  
    24    9   24 1  
    25    9   25 1  
    26   10   26 1  
    27   10   27 1  
    28   11   28 1  
    29   12   29 1  
    30   12   30 1  
    31   13   31 1  
    32   13   32 1  
    33   14   33 1  
    34   14   34 1  
    35   15   35 1  
    36   15   36 1  
    37   16   37 1  
@<TRIPOS>SUBSTRUCTURE
     1 EP1         1

