### 
### Created by X-TOOL on Mon Sep 10 21:13:24 2018
### 

@<TRIPOS>MOLECULE
5cs5_ligand
   36    36     1     0     0
SMALL
GAST_HUCK


@<TRIPOS>ATOM
      1 C1         -5.7280   29.6210  -13.0170 C.3       1 PIN         0.0707
      2 C2         -5.2890   29.4700  -11.5630 C.3       1 PIN        -0.0147
      3 N1         -4.2700   28.4300  -11.5250 N.4       1 PIN         0.2438
      4 C3         -4.4630   27.1670  -12.2420 C.3       1 PIN         0.0095
      5 C4         -3.0650   28.6750  -10.7430 C.3       1 PIN         0.0095
      6 C1'        -1.3250   24.8810   -9.8040 C.3       1 PIN         0.0707
      7 C2'        -1.3190   25.4410  -11.2260 C.3       1 PIN        -0.0147
      8 N1'        -2.3630   26.4570  -11.3110 N.4       1 PIN         0.2438
      9 C3'        -2.6700   27.3190  -10.1670 C.3       1 PIN         0.0095
     10 C4'        -3.0830   26.5990  -12.5760 C.3       1 PIN         0.0095
     11 S1         -5.5700   31.1950  -13.5270 S.o2      1 PIN        -0.1866
     12 S1'         0.1660   25.0850   -9.0950 S.o2      1 PIN        -0.1866
     13 O1         -4.1540   31.6190  -13.4420 O.co2     1 PIN        -0.4844
     14 O2         -5.9980   31.2750  -14.9430 O.co2     1 PIN        -0.4844
     15 O3         -6.4230   32.0740  -12.6960 O.co2     1 PIN        -0.4844
     16 O1'         1.2060   24.4550   -9.9420 O.co2     1 PIN        -0.4844
     17 O2'         0.4520   26.5320   -8.9700 O.co2     1 PIN        -0.4844
     18 O3'         0.1770   24.4660   -7.7460 O.co2     1 PIN        -0.4844
     19 H1         -6.7814   29.3175  -13.1080 H         1 PIN         0.0521
     20 H2         -5.1038   28.9734  -13.6503 H         1 PIN         0.0521
     21 H3         -6.1469   29.1796  -10.9388 H         1 PIN         0.0829
     22 H4         -4.8723   30.4191  -11.1949 H         1 PIN         0.0829
     23 H5         -3.8277   28.8227  -12.3412 H         1 PIN         0.2038
     24 H6         -5.0275   27.3462  -13.1690 H         1 PIN         0.0868
     25 H7         -5.0152   26.4580  -11.6077 H         1 PIN         0.0868
     26 H8         -3.2709   29.3911   -9.9338 H         1 PIN         0.0868
     27 H9         -2.2632   29.0680  -11.3853 H         1 PIN         0.0868
     28 H10        -1.5667   23.8084   -9.8377 H         1 PIN         0.0521
     29 H11        -2.0846   25.4096   -9.2093 H         1 PIN         0.0521
     30 H12        -1.5222   24.6349  -11.9463 H         1 PIN         0.0829
     31 H13        -0.3400   25.8915  -11.4464 H         1 PIN         0.0829
     32 H14        -3.0474   25.7910  -10.9884 H         1 PIN         0.2038
     33 H15        -3.5019   26.8962   -9.5846 H         1 PIN         0.0868
     34 H16        -1.7857   27.4231   -9.5211 H         1 PIN         0.0868
     35 H17        -2.5426   27.2865  -13.2434 H         1 PIN         0.0868
     36 H18        -3.1858   25.6188  -13.0645 H         1 PIN         0.0868
@<TRIPOS>BOND
     1    2    1 1  
     2    1   11 1  
     3    3    2 1  
     4    3    4 1  
     5    5    3 1  
     6    4   10 1  
     7    9    5 1  
     8    7    6 1  
     9    6   12 1  
    10    8    7 1  
    11    8    9 1  
    12    8   10 1  
    13   11   13 ar 
    14   11   14 ar 
    15   11   15 ar 
    16   12   16 ar 
    17   12   17 ar 
    18   12   18 ar 
    19    1   19 1  
    20    1   20 1  
    21    2   21 1  
    22    2   22 1  
    23    3   23 1  
    24    4   24 1  
    25    4   25 1  
    26    5   26 1  
    27    5   27 1  
    28    6   28 1  
    29    6   29 1  
    30    7   30 1  
    31    7   31 1  
    32    8   32 1  
    33    9   33 1  
    34    9   34 1  
    35   10   35 1  
    36   10   36 1  
@<TRIPOS>SUBSTRUCTURE
     1 PIN         1

