### 
### Created by X-TOOL on Mon Sep 10 21:13:29 2018
### 

@<TRIPOS>MOLECULE
5cs6_ligand
   28    28     1     0     0
SMALL
GAST_HUCK


@<TRIPOS>ATOM
      1 CL         34.8480  152.3520  337.7990 Cl        1 K82        -0.0805
      2 C4         33.6650  153.6000  337.5830 C.ar      1 K82         0.0617
      3 C5         33.7710  154.7600  338.3220 C.ar      1 K82        -0.0498
      4 C6         32.8370  155.7760  338.1700 C.ar      1 K82        -0.0089
      5 C7         32.9770  157.0330  338.9720 C.3       1 K82        -0.0065
      6 N          34.0180  157.8620  338.3610 N.4       1 K82         0.2293
      7 C8         31.8010  155.5890  337.2650 C.ar      1 K82        -0.0635
      8 C9         31.6920  154.4270  336.5230 C.ar      1 K82        -0.0386
      9 C3         32.6290  153.4190  336.6760 C.ar      1 K82         0.0984
     10 O          32.6150  152.2290  335.9980 O.3       1 K82        -0.3215
     11 C2         31.7880  152.1320  334.8300 C.3       1 K82         0.0689
     12 C1         31.4400  150.6980  334.5930 C.3       1 K82        -0.0281
     13 C          30.1760  150.5450  333.7920 C.3       1 K82        -0.0628
     14 H1         34.5876  154.8789  339.0249 H         1 K82         0.0537
     15 H2         33.2603  156.7840  340.0053 H         1 K82         0.0957
     16 H3         32.0222  157.5792  338.9750 H         1 K82         0.0957
     17 H4         34.1238  158.7130  338.8907 H         1 K82         0.2006
     18 H5         33.7562  158.0862  337.4138 H         1 K82         0.2006
     19 H6         34.8906  157.3575  338.3579 H         1 K82         0.2006
     20 H7         31.0612  156.3710  337.1371 H         1 K82         0.0534
     21 H8         30.8739  154.3054  335.8223 H         1 K82         0.0526
     22 H9         32.3324  152.5273  333.9597 H         1 K82         0.0611
     23 H10        30.8670  152.7140  334.9817 H         1 K82         0.0611
     24 H11        31.3058  150.2007  335.5649 H         1 K82         0.0288
     25 H12        32.2657  150.2187  334.0467 H         1 K82         0.0288
     26 H13        29.9626  149.4760  333.6444 H         1 K82         0.0231
     27 H14        30.3005  151.0325  332.8138 H         1 K82         0.0231
     28 H15        29.3406  151.0145  334.3320 H         1 K82         0.0231
@<TRIPOS>BOND
     1    1    2 1  
     2    2    3 ar 
     3    2    9 ar 
     4    3    4 ar 
     5    4    5 1  
     6    4    7 ar 
     7    5    6 1  
     8    7    8 ar 
     9    8    9 ar 
    10    9   10 1  
    11   10   11 1  
    12   11   12 1  
    13   12   13 1  
    14    3   14 1  
    15    5   15 1  
    16    5   16 1  
    17    6   17 1  
    18    6   18 1  
    19    6   19 1  
    20    7   20 1  
    21    8   21 1  
    22   11   22 1  
    23   11   23 1  
    24   12   24 1  
    25   12   25 1  
    26   13   26 1  
    27   13   27 1  
    28   13   28 1  
@<TRIPOS>SUBSTRUCTURE
     1 K82         1

