### 
### Created by X-TOOL on Mon Sep 10 21:13:27 2018
### 

@<TRIPOS>MOLECULE
5csd_ligand
   53    52     1     0     0
SMALL
GAST_HUCK


@<TRIPOS>ATOM
      1 C1        -29.1900  -12.1120   17.7490 C.2       1 ACD         0.0349
      2 C2        -28.0300  -11.9110   16.8090 C.3       1 ACD         0.0018
      3 C3        -27.3140  -13.2400   16.5700 C.3       1 ACD        -0.0347
      4 C4        -26.2580  -13.1380   15.5030 C.3       1 ACD        -0.0345
      5 C5        -26.9490  -13.1560   14.1680 C.2       1 ACD        -0.0966
      6 C6        -26.5990  -13.9390   13.1620 C.2       1 ACD        -0.0908
      7 C7        -25.4570  -14.9210   13.2350 C.3       1 ACD        -0.0199
      8 C8        -25.6650  -15.9150   12.1330 C.2       1 ACD        -0.0890
      9 C9        -25.0780  -17.1010   12.0830 C.2       1 ACD        -0.0889
     10 C10       -24.1000  -17.6660   13.0860 C.3       1 ACD        -0.0195
     11 C11       -24.6980  -18.9770   13.5160 C.2       1 ACD        -0.0889
     12 C12       -24.3560  -20.1930   13.0850 C.2       1 ACD        -0.0890
     13 C13       -23.2850  -20.5440   12.0790 C.3       1 ACD        -0.0199
     14 C14       -23.8190  -21.6690   11.2100 C.2       1 ACD        -0.0908
     15 C15       -23.1590  -22.2030   10.1770 C.2       1 ACD        -0.0967
     16 C16       -21.7980  -21.7600    9.7000 C.3       1 ACD        -0.0360
     17 C17       -20.7620  -22.7730   10.1650 C.3       1 ACD        -0.0463
     18 C18       -19.5580  -22.8300    9.2540 C.3       1 ACD        -0.0517
     19 C19       -18.4900  -23.7100    9.8850 C.3       1 ACD        -0.0558
     20 C20       -17.4990  -24.1090    8.8250 C.3       1 ACD        -0.0653
     21 O1        -29.4510  -13.2700   18.1410 O.co2     1 ACD        -0.5690
     22 O2        -29.8520  -11.1190   18.1120 O.co2     1 ACD        -0.5690
     23 H1        -27.3245  -11.1914   17.2498 H         1 ACD         0.0432
     24 H2        -28.4016  -11.5200   15.8503 H         1 ACD         0.0432
     25 H3        -28.0563  -13.9910   16.2618 H         1 ACD         0.0303
     26 H4        -26.8379  -13.5588   17.5090 H         1 ACD         0.0303
     27 H5        -25.5670  -13.9905   15.5779 H         1 ACD         0.0391
     28 H6        -25.6966  -12.1994   15.6209 H         1 ACD         0.0391
     29 H7        -27.7911  -12.4814   14.0203 H         1 ACD         0.0458
     30 H8        -27.1641  -13.8714   12.2335 H         1 ACD         0.0463
     31 H9        -25.4587  -15.4312   14.2095 H         1 ACD         0.0513
     32 H10       -24.4992  -14.3980   13.0966 H         1 ACD         0.0513
     33 H11       -26.3409  -15.6452   11.3229 H         1 ACD         0.0471
     34 H12       -25.3257  -17.7336   11.2319 H         1 ACD         0.0471
     35 H13       -23.9938  -16.9888   13.9463 H         1 ACD         0.0515
     36 H14       -23.1162  -17.8241   12.6201 H         1 ACD         0.0515
     37 H15       -25.4942  -18.9292   14.2574 H         1 ACD         0.0471
     38 H16       -24.9130  -21.0282   13.5070 H         1 ACD         0.0471
     39 H17       -22.3744  -20.8736   12.6007 H         1 ACD         0.0513
     40 H18       -23.0539  -19.6671   11.4564 H         1 ACD         0.0513
     41 H19       -24.8052  -22.0674   11.4437 H         1 ACD         0.0463
     42 H20       -23.6400  -23.0190    9.6396 H         1 ACD         0.0458
     43 H21       -21.5627  -20.7711   10.1203 H         1 ACD         0.0390
     44 H22       -21.7918  -21.7025    8.6015 H         1 ACD         0.0390
     45 H23       -21.2299  -23.7681   10.1937 H         1 ACD         0.0285
     46 H24       -20.4268  -22.4961   11.1754 H         1 ACD         0.0285
     47 H25       -19.1590  -21.8153    9.1088 H         1 ACD         0.0267
     48 H26       -19.8530  -23.2508    8.2814 H         1 ACD         0.0267
     49 H27       -18.9573  -24.6100   10.3112 H         1 ACD         0.0263
     50 H28       -17.9748  -23.1524   10.6810 H         1 ACD         0.0263
     51 H29       -16.7215  -24.7464    9.2713 H         1 ACD         0.0230
     52 H30       -17.0343  -23.2074    8.3994 H         1 ACD         0.0230
     53 H31       -18.0168  -24.6650    8.0296 H         1 ACD         0.0230
@<TRIPOS>BOND
     1    1    2 1  
     2    1   21 ar 
     3    1   22 ar 
     4    2    3 1  
     5    3    4 1  
     6    4    5 1  
     7    5    6 2  
     8    6    7 1  
     9    7    8 1  
    10    8    9 2  
    11    9   10 1  
    12   10   11 1  
    13   11   12 2  
    14   12   13 1  
    15   13   14 1  
    16   14   15 2  
    17   15   16 1  
    18   16   17 1  
    19   17   18 1  
    20   18   19 1  
    21   19   20 1  
    22    2   23 1  
    23    2   24 1  
    24    3   25 1  
    25    3   26 1  
    26    4   27 1  
    27    4   28 1  
    28    5   29 1  
    29    6   30 1  
    30    7   31 1  
    31    7   32 1  
    32    8   33 1  
    33    9   34 1  
    34   10   35 1  
    35   10   36 1  
    36   11   37 1  
    37   12   38 1  
    38   13   39 1  
    39   13   40 1  
    40   14   41 1  
    41   15   42 1  
    42   16   43 1  
    43   16   44 1  
    44   17   45 1  
    45   17   46 1  
    46   18   47 1  
    47   18   48 1  
    48   19   49 1  
    49   19   50 1  
    50   20   51 1  
    51   20   52 1  
    52   20   53 1  
@<TRIPOS>SUBSTRUCTURE
     1 ACD         1

