### 
### Created by X-TOOL on Mon Sep 10 21:13:28 2018
### 

@<TRIPOS>MOLECULE
5csh_ligand
   28    29     1     0     0
SMALL
GAST_HUCK


@<TRIPOS>ATOM
      1 CL         -4.8260  166.5000  397.4910 Cl        1 54E        -0.0710
      2 C3         -3.6100  167.0990  398.5660 C.ar      1 54E         0.0425
      3 C2         -2.3010  166.6980  398.3790 C.ar      1 54E        -0.0401
      4 C4         -3.9620  168.0230  399.5450 C.ar      1 54E        -0.0104
      5 C5         -2.9350  168.5620  400.3270 C.ar      1 54E        -0.0594
      6 C6         -1.6200  168.1730  400.1270 C.ar      1 54E        -0.0538
      7 C1         -1.2840  167.2290  399.1630 C.ar      1 54E         0.0027
      8 C           0.1540  166.7750  399.0370 C.3       1 54E        -0.0012
      9 N           0.6630  166.4510  397.7050 N.4       1 54E         0.2310
     10 C7         -5.3780  168.4340  399.7640 C.ar      1 54E        -0.0218
     11 C12        -6.3260  167.5140  400.2210 C.ar      1 54E        -0.0557
     12 C11        -7.6690  167.8550  400.2920 C.ar      1 54E        -0.0622
     13 C10        -8.0850  169.1220  399.9310 C.ar      1 54E        -0.0627
     14 C9         -7.1570  170.0510  399.4990 C.ar      1 54E        -0.0622
     15 C8         -5.8150  169.7120  399.4130 C.ar      1 54E        -0.0557
     16 H1         -2.0660  165.9647  397.6160 H         1 54E         0.0567
     17 H2         -3.1696  169.2897  401.0955 H         1 54E         0.0609
     18 H3         -0.8376  168.6135  400.7343 H         1 54E         0.0564
     19 H4          0.2668  165.8735  399.6572 H         1 54E         0.0982
     20 H5          0.7864  167.5794  399.4408 H         1 54E         0.0982
     21 H6          1.6274  166.1660  397.7740 H         1 54E         0.2008
     22 H7          0.5944  167.2634  397.1123 H         1 54E         0.2008
     23 H8          0.1182  165.7002  397.3105 H         1 54E         0.2008
     24 H9         -6.0082  166.5227  400.5234 H         1 54E         0.0615
     25 H10        -8.3944  167.1247  400.6319 H         1 54E         0.0615
     26 H11        -9.1348  169.3865  399.9863 H         1 54E         0.0610
     27 H12        -7.4798  171.0492  399.2262 H         1 54E         0.0615
     28 H13        -5.0973  170.4481  399.0692 H         1 54E         0.0615
@<TRIPOS>BOND
     1    1    2 1  
     2    2    3 ar 
     3    2    4 ar 
     4    3    7 ar 
     5    4    5 ar 
     6    4   10 1  
     7    5    6 ar 
     8    6    7 ar 
     9    7    8 1  
    10    8    9 1  
    11   10   11 ar 
    12   10   15 ar 
    13   11   12 ar 
    14   12   13 ar 
    15   13   14 ar 
    16   14   15 ar 
    17    3   16 1  
    18    5   17 1  
    19    6   18 1  
    20    8   19 1  
    21    8   20 1  
    22    9   21 1  
    23    9   22 1  
    24    9   23 1  
    25   11   24 1  
    26   12   25 1  
    27   13   26 1  
    28   14   27 1  
    29   15   28 1  
@<TRIPOS>SUBSTRUCTURE
     1 54E         1

