### 
### Created by X-TOOL on Mon Sep 10 21:13:26 2018
### 

@<TRIPOS>MOLECULE
5csp_ligand
   18    18     1     0     0
SMALL
GAST_HUCK


@<TRIPOS>ATOM
      1 C2         93.0240   16.1560  131.5040 C.ar      1 54G        -0.0662
      2 C7         92.7400   13.8610  130.9270 C.ar      1 54G        -0.0547
      3 C6         92.3560   12.1020  132.6960 C.2       1 54G         0.0566
      4 C5         92.6180   13.5150  132.2790 C.ar      1 54G         0.0321
      5 C4         92.7390   14.5270  133.2480 C.ar      1 54G         0.0959
      6 C3         92.9240   15.8430  132.8490 C.ar      1 54G        -0.0356
      7 O1         92.3440   11.7790  133.8720 O.co2     1 54G        -0.5643
      8 O2         92.1640   11.2640  131.7240 O.co2     1 54G        -0.5643
      9 O          92.6180   14.2750  134.5830 O.3       1 54G        -0.3340
     10 C1         92.9520   15.1730  130.5240 C.ar      1 54G        -0.0532
     11 C          93.1770   15.5060  129.0750 C.3       1 54G        -0.0356
     12 H1         93.1614   17.1900  131.2089 H         1 54G         0.0553
     13 H2         92.6670   13.0836  130.1751 H         1 54G         0.0562
     14 H3         92.9905   16.6287  133.5928 H         1 54G         0.0533
     15 H4         92.4969   13.3425  134.7184 H         1 54G         0.2475
     16 H5         93.3237   16.5908  128.9666 H         1 54G         0.0370
     17 H6         92.3015   15.1939  128.4868 H         1 54G         0.0370
     18 H7         94.0704   14.9771  128.7116 H         1 54G         0.0370
@<TRIPOS>BOND
     1    1    6 ar 
     2   10    1 ar 
     3    2    4 ar 
     4    2   10 ar 
     5    4    3 1  
     6    3    7 ar 
     7    3    8 ar 
     8    4    5 ar 
     9    5    6 ar 
    10    5    9 1  
    11   10   11 1  
    12    1   12 1  
    13    2   13 1  
    14    6   14 1  
    15    9   15 1  
    16   11   16 1  
    17   11   17 1  
    18   11   18 1  
@<TRIPOS>SUBSTRUCTURE
     1 54G         1

