### 
### Created by X-TOOL on Mon Sep 10 21:13:29 2018
### 

@<TRIPOS>MOLECULE
5csw_ligand
   55    58     1     0     0
SMALL
GAST_HUCK


@<TRIPOS>ATOM
      1 C1        -22.4790   11.1920   36.3390 C.ar      1 P06         0.1959
      2 C2        -20.9920   10.5430   38.0050 C.ar      1 P06         0.1009
      3 N3        -22.1580   11.0920   37.6200 N.ar      1 P06        -0.2378
      4 C4        -20.1180   10.0520   37.0070 C.ar      1 P06        -0.0024
      5 N6        -21.6570   10.7510   35.3740 N.ar      1 P06        -0.2452
      6 C7        -20.4890   10.1850   35.6810 C.ar      1 P06         0.0239
      7 N9        -23.6830   11.7830   36.0110 N.pl3     1 P06        -0.3017
      8 C12       -20.7460   10.4630   39.4630 C.2       1 P06         0.1360
      9 S13       -22.0960   10.6320   40.5920 S.3       1 P06         0.0313
     10 C14       -21.0110   10.4230   41.8970 C.2       1 P06         0.0789
     11 N15       -19.7930   10.2560   41.5000 N.2       1 P06        -0.2455
     12 C16       -19.5760   10.2650   40.2000 C.2       1 P06         0.1118
     13 C17       -21.4350   10.4200   43.3350 C.3       1 P06        -0.0352
     14 C18       -20.4990   11.3180   44.1380 C.3       1 P06        -0.0942
     15 C22       -22.8840   10.8980   43.4550 C.3       1 P06        -0.0942
     16 C26       -21.3220    8.9740   43.8200 C.3       1 P06        -0.0942
     17 C30       -18.2100   10.0670   39.6470 C.ar      1 P06         0.0289
     18 C31       -16.2430    8.6960   39.3380 C.ar      1 P06         0.0986
     19 C32       -17.5230    8.8620   39.8520 C.ar      1 P06         0.1597
     20 C33       -15.6640    9.7100   38.5790 C.ar      1 P06        -0.0451
     21 C35       -17.5930   11.0750   38.8980 C.ar      1 P06        -0.0687
     22 C37       -16.3340   10.8930   38.3700 C.ar      1 P06        -0.0792
     23 F39       -18.0620    7.8530   40.5710 F         1 P06        -0.1925
     24 N40       -15.6090    7.4610   39.5360 N.am      1 P06        -0.1872
     25 S42       -14.0180    7.1930   39.8560 S.o2      1 P06         0.0902
     26 C43       -13.4760    6.7270   38.2570 C.ar      1 P06         0.1799
     27 C44       -13.5440    5.1250   36.4500 C.ar      1 P06        -0.0303
     28 C46       -13.9340    5.5280   37.7270 C.ar      1 P06         0.1577
     29 C47       -12.7080    5.9240   35.6940 C.ar      1 P06        -0.0654
     30 C49       -12.6450    7.5340   37.4880 C.ar      1 P06         0.1577
     31 C50       -12.2580    7.1280   36.2120 C.ar      1 P06        -0.0303
     32 F52       -12.2080    8.7130   37.9630 F         1 P06        -0.1824
     33 F53       -14.7530    4.7380   38.4460 F         1 P06        -0.1824
     34 O54       -13.4100    8.4190   40.2090 O.2       1 P06        -0.1460
     35 O55       -14.0010    6.0410   40.6740 O.2       1 P06        -0.1460
     36 H1        -19.1787    9.5821   37.2752 H         1 P06         0.0759
     37 H2        -19.8328    9.8305   34.8943 H         1 P06         0.0915
     38 H3        -24.3108   12.1200   36.7548 H         1 P06         0.1826
     39 H4        -23.9534   11.8868   35.0226 H         1 P06         0.1826
     40 H5        -20.8074   11.3181   45.1939 H         1 P06         0.0092
     41 H6        -20.5456   12.3433   43.7424 H         1 P06         0.0092
     42 H7        -19.4692   10.9401   44.0568 H         1 P06         0.0092
     43 H8        -23.5382   10.2360   42.8687 H         1 P06         0.0092
     44 H9        -22.9640   11.9259   43.0715 H         1 P06         0.0092
     45 H10       -23.1913   10.8756   44.5110 H         1 P06         0.0092
     46 H11       -20.2784    8.6378   43.7307 H         1 P06         0.0092
     47 H12       -21.9685    8.3297   43.2061 H         1 P06         0.0092
     48 H13       -21.6377    8.9144   44.8720 H         1 P06         0.0092
     49 H14       -14.6789    9.5660   38.1501 H         1 P06         0.0484
     50 H15       -18.1127   12.0115   38.7311 H         1 P06         0.0482
     51 H16       -15.8708   11.6825   37.7894 H         1 P06         0.0546
     52 H17       -16.1910    6.6501   39.4757 H         1 P06         0.2146
     53 H18       -13.8979    4.1820   36.0494 H         1 P06         0.0570
     54 H19       -12.4058    5.6108   34.7012 H         1 P06         0.0597
     55 H20       -11.6017    7.7573   35.6218 H         1 P06         0.0570
@<TRIPOS>BOND
     1    1    3 ar 
     2    1    5 ar 
     3    1    7 1  
     4    3    2 ar 
     5    2    4 ar 
     6    2    8 1  
     7    4    6 ar 
     8    5    6 ar 
     9    8    9 1  
    10    8   12 2  
    11    9   10 1  
    12   10   11 2  
    13   10   13 1  
    14   11   12 1  
    15   12   17 1  
    16   13   14 1  
    17   13   15 1  
    18   13   16 1  
    19   17   19 ar 
    20   17   21 ar 
    21   19   18 ar 
    22   18   20 ar 
    23   18   24 1  
    24   19   23 1  
    25   20   22 ar 
    26   21   22 ar 
    27   24   25 am 
    28   25   26 1  
    29   25   34 2  
    30   25   35 2  
    31   26   28 ar 
    32   26   30 ar 
    33   28   27 ar 
    34   27   29 ar 
    35   28   33 1  
    36   29   31 ar 
    37   30   31 ar 
    38   30   32 1  
    39    4   36 1  
    40    6   37 1  
    41    7   38 1  
    42    7   39 1  
    43   14   40 1  
    44   14   41 1  
    45   14   42 1  
    46   15   43 1  
    47   15   44 1  
    48   15   45 1  
    49   16   46 1  
    50   16   47 1  
    51   16   48 1  
    52   20   49 1  
    53   21   50 1  
    54   22   51 1  
    55   24   52 1  
    56   27   53 1  
    57   29   54 1  
    58   31   55 1  
@<TRIPOS>SUBSTRUCTURE
     1 P06         1

