### 
### Created by X-TOOL on Mon Sep 10 21:13:29 2018
### 

@<TRIPOS>MOLECULE
5csx_ligand
   74    78     1     0     0
SMALL
GAST_HUCK


@<TRIPOS>ATOM
      1 N3         16.0260  -81.8280   93.0800 N.4       1 54J         0.2352
      2 C4         16.9190  -81.1710   92.1060 C.3       1 54J        -0.0298
      3 C5         17.3390  -79.7930   92.6390 C.3       1 54J         0.0104
      4 C6         16.0910  -78.9490   92.8970 C.3       1 54J         0.0489
      5 C7         15.1810  -79.6880   93.8820 C.3       1 54J         0.0104
      6 C8         14.8030  -81.0310   93.2650 C.3       1 54J        -0.0298
      7 C10        16.7640  -77.4580   94.8510 C.3       1 54J         0.0174
      8 C13        17.2610  -74.2670   91.9720 C.ar      1 54J        -0.0272
      9 C17        17.1960  -76.0790   88.8280 C.2       1 54J         0.0140
     10 C21        16.6120  -79.5180   86.5370 C.ar      1 54J         0.0825
     11 C24        17.0830  -75.9680   90.2860 C.ar      1 54J         0.0395
     12 C26        17.8380  -72.5870   89.2620 C.ar      1 54J         0.1466
     13 C1         15.1390  -84.0030   93.8420 C.3       1 54J        -0.0245
     14 C2         15.6920  -83.1990   92.6580 C.3       1 54J        -0.0348
     15 N9         16.5280  -77.6310   93.4090 N.pl3     1 54J        -0.2990
     16 C11        16.7800  -76.5690   92.5240 C.ar      1 54J         0.0942
     17 C12        16.9940  -75.2370   92.9310 C.ar      1 54J        -0.0260
     18 C14        17.3070  -74.6220   90.6150 C.ar      1 54J         0.0995
     19 N15        17.5390  -73.9480   89.4230 N.pl3     1 54J        -0.2153
     20 C16        17.4700  -74.8290   88.3800 C.2       1 54J         0.0621
     21 C18        17.0100  -77.3020   88.0110 C.ar      1 54J         0.0137
     22 C19        17.4580  -77.3780   86.6750 C.ar      1 54J         0.0262
     23 N20        17.2390  -78.4930   85.9830 N.ar      1 54J        -0.2709
     24 N22        16.1690  -79.4940   87.7760 N.ar      1 54J        -0.2709
     25 C23        16.3380  -78.4240   88.5330 C.ar      1 54J         0.0262
     26 N25        16.8390  -76.8560   91.2390 N.ar      1 54J        -0.3089
     27 C27        16.9850  -71.7780   88.5170 C.ar      1 54J         0.1450
     28 F28        15.8660  -72.3050   87.9850 F         1 54J        -0.2015
     29 C29        17.2720  -70.4300   88.3440 C.ar      1 54J        -0.0521
     30 C30        18.4280  -69.8790   88.8870 C.ar      1 54J        -0.0557
     31 C31        19.3060  -70.6780   89.6120 C.ar      1 54J         0.0873
     32 N32        20.4560  -70.1040   90.1690 N.am      1 54J        -0.1951
     33 S33        21.9500  -70.3350   89.5030 S.o2      1 54J         0.0586
     34 O34        22.8310  -69.7070   90.4130 O.2       1 54J        -0.1502
     35 O35        22.0610  -71.7340   89.2690 O.2       1 54J        -0.1502
     36 C36        21.8520  -69.4410   87.9380 C.3       1 54J         0.0894
     37 C37        23.0860  -69.7660   87.0990 C.3       1 54J        -0.0342
     38 C38        22.8480  -69.2760   85.6700 C.3       1 54J        -0.0637
     39 C39        19.0090  -72.0360   89.7990 C.ar      1 54J         0.1771
     40 F40        19.8660  -72.7910   90.5130 F         1 54J        -0.2007
     41 H1         16.5076  -81.8803   93.9640 H         1 54J         0.2033
     42 H2         16.3899  -81.0477   91.1495 H         1 54J         0.0815
     43 H3         17.8137  -81.7923   91.9527 H         1 54J         0.0815
     44 H4         17.9755  -79.2901   91.8961 H         1 54J         0.0339
     45 H5         17.8990  -79.9172   93.5776 H         1 54J         0.0339
     46 H6         15.5439  -78.8016   91.9542 H         1 54J         0.0557
     47 H7         14.2735  -79.0948   94.0677 H         1 54J         0.0339
     48 H8         15.7133  -79.8506   94.8308 H         1 54J         0.0339
     49 H9         14.1119  -81.5641   93.9344 H         1 54J         0.0815
     50 H10        14.3175  -80.8672   92.2916 H         1 54J         0.0815
     51 H11        17.0806  -76.4233   95.0492 H         1 54J         0.0481
     52 H12        17.5519  -78.1518   95.1795 H         1 54J         0.0481
     53 H13        15.8360  -77.6694   95.4024 H         1 54J         0.0481
     54 H14        17.4332  -73.2395   92.2713 H         1 54J         0.0666
     55 H15        16.4569  -80.4137   85.9465 H         1 54J         0.1063
     56 H16        14.8949  -85.0230   93.5104 H         1 54J         0.0281
     57 H17        14.2307  -83.5146   94.2246 H         1 54J         0.0281
     58 H18        15.8950  -84.0479   94.6398 H         1 54J         0.0281
     59 H19        16.5985  -83.6920   92.2769 H         1 54J         0.0812
     60 H20        14.9342  -83.1587   91.8617 H         1 54J         0.0812
     61 H21        16.9508  -74.9716   93.9811 H         1 54J         0.0545
     62 H22        17.6151  -74.5635   87.3339 H         1 54J         0.1074
     63 H23        17.9731  -76.5401   86.2192 H         1 54J         0.0882
     64 H24        15.9616  -78.4101   89.5495 H         1 54J         0.0882
     65 H25        16.5899  -69.8027   87.7816 H         1 54J         0.0511
     66 H26        18.6448  -68.8264   88.7451 H         1 54J         0.0400
     67 H27        20.3704  -69.5402   90.9905 H         1 54J         0.2128
     68 H28        21.8140  -68.3592   88.1335 H         1 54J         0.0523
     69 H29        20.9460  -69.7476   87.3947 H         1 54J         0.0523
     70 H30        23.2552  -70.8529   87.0946 H         1 54J         0.0279
     71 H31        23.9659  -69.2596   87.5225 H         1 54J         0.0279
     72 H32        23.7297  -69.5034   85.0528 H         1 54J         0.0230
     73 H33        22.6769  -68.1894   85.6786 H         1 54J         0.0230
     74 H34        21.9663  -69.7827   85.2507 H         1 54J         0.0230
@<TRIPOS>BOND
     1    2    1 1  
     2    6    1 1  
     3    1   14 1  
     4    3    2 1  
     5    4    3 1  
     6    4    5 1  
     7   15    4 1  
     8    5    6 1  
     9   15    7 1  
    10    8   17 ar 
    11   18    8 ar 
    12    9   11 1  
    13    9   20 2  
    14   21    9 1  
    15   23   10 ar 
    16   10   24 ar 
    17   11   18 ar 
    18   11   26 ar 
    19   19   12 1  
    20   12   27 ar 
    21   12   39 ar 
    22   14   13 1  
    23   16   15 1  
    24   16   17 ar 
    25   26   16 ar 
    26   19   18 1  
    27   20   19 1  
    28   22   21 ar 
    29   21   25 ar 
    30   22   23 ar 
    31   24   25 ar 
    32   27   28 1  
    33   27   29 ar 
    34   29   30 ar 
    35   30   31 ar 
    36   31   32 1  
    37   31   39 ar 
    38   32   33 am 
    39   33   34 2  
    40   33   35 2  
    41   33   36 1  
    42   36   37 1  
    43   37   38 1  
    44   39   40 1  
    45    1   41 1  
    46    2   42 1  
    47    2   43 1  
    48    3   44 1  
    49    3   45 1  
    50    4   46 1  
    51    5   47 1  
    52    5   48 1  
    53    6   49 1  
    54    6   50 1  
    55    7   51 1  
    56    7   52 1  
    57    7   53 1  
    58    8   54 1  
    59   10   55 1  
    60   13   56 1  
    61   13   57 1  
    62   13   58 1  
    63   14   59 1  
    64   14   60 1  
    65   17   61 1  
    66   20   62 1  
    67   22   63 1  
    68   25   64 1  
    69   29   65 1  
    70   30   66 1  
    71   32   67 1  
    72   36   68 1  
    73   36   69 1  
    74   37   70 1  
    75   37   71 1  
    76   38   72 1  
    77   38   73 1  
    78   38   74 1  
@<TRIPOS>SUBSTRUCTURE
     1 54J         1

