### 
### Created by X-TOOL on Mon Sep 10 21:13:25 2018
### 

@<TRIPOS>MOLECULE
5ct1_ligand
   30    30     1     0     0
SMALL
GAST_HUCK


@<TRIPOS>ATOM
      1 C3'        -0.6290   24.6990  -11.4960 C.3       1 NHE        -0.0480
      2 C2'        -1.6190   25.8010  -11.8960 C.3       1 NHE        -0.0097
      3 C1'        -2.4670   26.4220  -10.7720 C.3       1 NHE        -0.0226
      4 C6'        -1.7210   26.4950   -9.4300 C.3       1 NHE        -0.0097
      5 N          -2.8570   27.7720  -11.1650 N.4       1 NHE         0.2302
      6 C1         -4.2410   28.2060  -11.2820 C.3       1 NHE        -0.0166
      7 C2         -4.3480   29.7350  -11.3650 C.3       1 NHE         0.0706
      8 S          -4.9380   30.3090  -12.8250 S.o2      1 NHE        -0.1866
      9 O1         -3.9110   31.0910  -13.5590 O.co2     1 NHE        -0.4844
     10 O2         -5.3510   29.1610  -13.6720 O.co2     1 NHE        -0.4844
     11 O3         -6.0990   31.2020  -12.5810 O.co2     1 NHE        -0.4844
     12 C5'        -0.8040   25.3100   -9.0890 C.3       1 NHE        -0.0480
     13 C4'         0.1640   25.0080  -10.2260 C.3       1 NHE        -0.0527
     14 H1          0.0829   24.5566  -12.3224 H         1 NHE         0.0267
     15 H2         -1.1934   23.7689  -11.3338 H         1 NHE         0.0267
     16 H3         -2.3114   25.3722  -12.6354 H         1 NHE         0.0320
     17 H4         -1.0411   26.6126  -12.3623 H         1 NHE         0.0320
     18 H5         -3.3694   25.8078  -10.6366 H         1 NHE         0.0850
     19 H6         -2.4747   26.5743   -8.6327 H         1 NHE         0.0320
     20 H7         -1.1018   27.4041   -9.4410 H         1 NHE         0.0320
     21 H8         -2.4426   27.9258  -12.0709 H         1 NHE         0.2017
     22 H9         -2.4309   28.3890  -10.4914 H         1 NHE         0.2017
     23 H10        -4.8006   27.8562  -10.4019 H         1 NHE         0.0829
     24 H11        -4.6770   27.7677  -12.1918 H         1 NHE         0.0829
     25 H12        -3.3452   30.1592  -11.2085 H         1 NHE         0.0521
     26 H13        -5.0199   30.0770  -10.5640 H         1 NHE         0.0521
     27 H14        -1.4238   24.4208   -8.9016 H         1 NHE         0.0267
     28 H15        -0.2278   25.5528   -8.1840 H         1 NHE         0.0267
     29 H16         0.8105   25.8808  -10.3997 H         1 NHE         0.0265
     30 H17         0.7842   24.1395   -9.9596 H         1 NHE         0.0265
@<TRIPOS>BOND
     1    1    2 1  
     2    1   13 1  
     3    2    3 1  
     4    3    4 1  
     5    3    5 1  
     6    4   12 1  
     7    5    6 1  
     8    6    7 1  
     9    7    8 1  
    10    8    9 ar 
    11    8   10 ar 
    12    8   11 ar 
    13   12   13 1  
    14    1   14 1  
    15    1   15 1  
    16    2   16 1  
    17    2   17 1  
    18    3   18 1  
    19    4   19 1  
    20    4   20 1  
    21    5   21 1  
    22    5   22 1  
    23    6   23 1  
    24    6   24 1  
    25    7   25 1  
    26    7   26 1  
    27   12   27 1  
    28   12   28 1  
    29   13   29 1  
    30   13   30 1  
@<TRIPOS>SUBSTRUCTURE
     1 NHE         1

