### 
### Created by X-TOOL on Mon Sep 10 21:13:25 2018
### 

@<TRIPOS>MOLECULE
5ct2_ligand
   33    33     1     0     0
SMALL
GAST_HUCK


@<TRIPOS>ATOM
      1 S          19.1960   17.2830   34.9300 S.o2      1 CXS        -0.1913
      2 O1         20.3980   18.1630   34.8120 O.co2     1 CXS        -0.4846
      3 O2         19.5430   15.8550   34.6410 O.co2     1 CXS        -0.4846
      4 O3         18.5800   17.4270   36.2230 O.co2     1 CXS        -0.4846
      5 C1         18.0090   17.7950   33.6340 C.3       1 CXS         0.0355
      6 C2         17.0630   16.6520   33.2650 C.3       1 CXS         0.0038
      7 C3         15.8030   17.1730   32.5910 C.3       1 CXS        -0.0320
      8 N          15.4950   16.2750   31.4650 N.4       1 CXS         0.2292
      9 C4         14.0950   15.8510   31.3660 C.3       1 CXS        -0.0226
     10 C5         13.9690   15.0320   30.0630 C.3       1 CXS        -0.0097
     11 C6         12.5360   14.7890   29.6110 C.3       1 CXS        -0.0480
     12 C7         11.7130   16.0770   29.5560 C.3       1 CXS        -0.0527
     13 C8         11.7330   16.7760   30.9160 C.3       1 CXS        -0.0480
     14 C9         13.1690   17.1020   31.3410 C.3       1 CXS        -0.0097
     15 H1         18.5675   18.1016   32.7373 H         1 CXS         0.0470
     16 H2         17.4170   18.6444   34.0055 H         1 CXS         0.0470
     17 H3         16.7819   16.1100   34.1800 H         1 CXS         0.0332
     18 H4         17.5801   15.9668   32.5771 H         1 CXS         0.0332
     19 H5         15.9713   18.1949   32.2203 H         1 CXS         0.0814
     20 H6         14.9683   17.1757   33.3074 H         1 CXS         0.0814
     21 H7         16.0644   15.4488   31.5609 H         1 CXS         0.2016
     22 H8         15.7368   16.7525   30.6108 H         1 CXS         0.2016
     23 H9         13.8288   15.2216   32.2280 H         1 CXS         0.0850
     24 H10        14.4501   14.0557   30.2221 H         1 CXS         0.0320
     25 H11        14.4950   15.5741   29.2633 H         1 CXS         0.0320
     26 H12        12.0567   14.0940   30.3161 H         1 CXS         0.0267
     27 H13        12.5541   14.3388   28.6075 H         1 CXS         0.0267
     28 H14        10.6743   15.8332   29.2883 H         1 CXS         0.0265
     29 H15        12.1396   16.7484   28.7963 H         1 CXS         0.0265
     30 H16        11.2760   16.1154   31.6675 H         1 CXS         0.0267
     31 H17        11.1560   17.7102   30.8496 H         1 CXS         0.0267
     32 H18        13.5866   17.8331   30.6331 H         1 CXS         0.0320
     33 H19        13.1450   17.5405   32.3495 H         1 CXS         0.0320
@<TRIPOS>BOND
     1    1    2 ar 
     2    1    3 ar 
     3    1    4 ar 
     4    1    5 1  
     5    5    6 1  
     6    6    7 1  
     7    7    8 1  
     8    8    9 1  
     9    9   10 1  
    10    9   14 1  
    11   10   11 1  
    12   11   12 1  
    13   12   13 1  
    14   13   14 1  
    15    5   15 1  
    16    5   16 1  
    17    6   17 1  
    18    6   18 1  
    19    7   19 1  
    20    7   20 1  
    21    8   21 1  
    22    8   22 1  
    23    9   23 1  
    24   10   24 1  
    25   10   25 1  
    26   11   26 1  
    27   11   27 1  
    28   12   28 1  
    29   12   29 1  
    30   13   30 1  
    31   13   31 1  
    32   14   32 1  
    33   14   33 1  
@<TRIPOS>SUBSTRUCTURE
     1 CXS         1

