### 
### Created by X-TOOL on Mon Sep 10 21:13:23 2018
### 

@<TRIPOS>MOLECULE
5ct7_ligand
   53    57     1     0     0
SMALL
GAST_HUCK


@<TRIPOS>ATOM
      1 C1        -19.2800    9.4370   -8.9350 C.ar      1 55J         0.0096
      2 C2        -19.9070    8.7380   -9.9710 C.ar      1 55J         0.0718
      3 C3        -19.6740    9.0250  -11.3120 C.ar      1 55J        -0.0480
      4 O1        -17.1400   11.6350  -10.9270 O.3       1 55J        -0.2547
      5 C11       -16.3230   13.7740  -11.4660 C.ar      1 55J         0.0230
      6 C12       -15.4020   16.0350  -11.9220 C.2       1 55J         0.1932
      7 C13       -20.6080    8.0320   -7.9920 C.2       1 55J         0.2456
      8 C14       -21.7050    6.9350  -10.0000 C.3       1 55J         0.0458
      9 C15       -21.7260    7.5650   -5.8150 C.ar      1 55J         0.1053
     10 C16       -22.2760    6.5510   -5.0420 C.ar      1 55J        -0.0038
     11 C17       -22.7360    6.8210   -3.7650 C.ar      1 55J        -0.0405
     12 C18       -22.6580    8.0990   -3.2320 C.ar      1 55J         0.0278
     13 C19       -22.1040    9.1090   -4.0100 C.ar      1 55J        -0.0405
     14 C20       -21.6440    8.8510   -5.2890 C.ar      1 55J        -0.0038
     15 C21       -14.3300   17.9190  -12.3420 C.2       1 55J         0.0491
     16 C22       -13.4770   16.8650  -12.2710 C.2       1 55J         0.1402
     17 C23       -23.2330    8.3900   -1.8890 C.3       1 55J         0.3572
     18 C24       -12.0120   16.8550  -12.4500 C.3       1 55J         0.3703
     19 C4        -18.7850   10.0440  -11.6090 C.ar      1 55J        -0.0416
     20 C5        -18.1340   10.7290  -10.5810 C.ar      1 55J         0.1017
     21 C6        -18.3670   10.4490   -9.2360 C.ar      1 55J        -0.0348
     22 C7        -17.4080   12.9900  -11.1060 C.ar      1 55J         0.1428
     23 C8        -18.6520   13.5720  -10.9220 C.ar      1 55J         0.0067
     24 C9        -18.7540   14.9360  -11.1210 C.ar      1 55J         0.0100
     25 N1        -17.7240   15.7250  -11.4740 N.ar      1 55J        -0.2880
     26 C10       -16.5260   15.1380  -11.6280 C.ar      1 55J         0.1145
     27 N2        -19.7440    8.9840   -7.6950 N.2       1 55J        -0.3049
     28 N3        -20.7620    7.8400   -9.3450 N.pl3     1 55J        -0.2186
     29 N4        -21.2900    7.2440   -7.1190 N.pl3     1 55J        -0.2058
     30 N5        -15.5760   17.4240  -12.1290 N.2       1 55J        -0.2434
     31 N6        -14.1250   15.6860  -12.0080 N.pl3     1 55J        -0.2331
     32 F1        -23.0820    9.6490   -1.4750 F         1 55J        -0.2378
     33 F2        -24.5100    8.1440   -1.8530 F         1 55J        -0.2378
     34 F3        -22.7190    7.6590   -0.9420 F         1 55J        -0.2378
     35 F4        -11.6600   16.3490  -13.6150 F         1 55J        -0.2528
     36 F5        -11.4830   18.0670  -12.3550 F         1 55J        -0.2528
     37 F6        -11.4130   16.1030  -11.5410 F         1 55J        -0.2528
     38 H1        -20.1719    8.4693  -12.0984 H         1 55J         0.0520
     39 H2        -15.3436   13.3346  -11.6168 H         1 55J         0.0733
     40 H3        -21.5856    7.0080  -11.0911 H         1 55J         0.0559
     41 H4        -22.7327    7.2139   -9.7242 H         1 55J         0.0559
     42 H5        -21.5062    5.9022   -9.6777 H         1 55J         0.0559
     43 H6        -22.3452    5.5451   -5.4400 H         1 55J         0.0647
     44 H7        -23.1641    6.0209   -3.1720 H         1 55J         0.0816
     45 H8        -22.0314   10.1134   -3.6087 H         1 55J         0.0816
     46 H9        -21.2188    9.6521   -5.8827 H         1 55J         0.0647
     47 H10       -14.0662   18.9582  -12.5326 H         1 55J         0.1093
     48 H11       -18.5939   10.3107  -12.6421 H         1 55J         0.0479
     49 H12       -17.8576   10.9973   -8.4518 H         1 55J         0.0445
     50 H13       -19.5127   12.9799  -10.6329 H         1 55J         0.0707
     51 H14       -19.7248   15.3984  -10.9840 H         1 55J         0.0820
     52 H15       -21.5167    6.2953   -7.4498 H         1 55J         0.2358
     53 H16       -13.7154   14.7469  -11.9018 H         1 55J         0.2429
@<TRIPOS>BOND
     1    2    1 ar 
     2    1   21 ar 
     3    1   27 1  
     4    3    2 ar 
     5    2   28 1  
     6   19    3 ar 
     7   20    4 1  
     8    4   22 1  
     9   22    5 ar 
    10    5   26 ar 
    11   26    6 1  
    12    6   30 2  
    13    6   31 1  
    14    7   27 2  
    15   28    7 1  
    16    7   29 1  
    17   28    8 1  
    18    9   10 ar 
    19    9   14 ar 
    20   29    9 1  
    21   10   11 ar 
    22   11   12 ar 
    23   13   12 ar 
    24   12   17 1  
    25   14   13 ar 
    26   16   15 2  
    27   30   15 1  
    28   16   18 1  
    29   31   16 1  
    30   17   32 1  
    31   17   33 1  
    32   17   34 1  
    33   18   35 1  
    34   18   36 1  
    35   18   37 1  
    36   19   20 ar 
    37   20   21 ar 
    38   22   23 ar 
    39   23   24 ar 
    40   24   25 ar 
    41   25   26 ar 
    42    3   38 1  
    43    5   39 1  
    44    8   40 1  
    45    8   41 1  
    46    8   42 1  
    47   10   43 1  
    48   11   44 1  
    49   13   45 1  
    50   14   46 1  
    51   15   47 1  
    52   19   48 1  
    53   21   49 1  
    54   23   50 1  
    55   24   51 1  
    56   29   52 1  
    57   31   53 1  
@<TRIPOS>SUBSTRUCTURE
     1 55J         1

