### 
### Created by X-TOOL on Mon Sep 10 21:13:23 2018
### 

@<TRIPOS>MOLECULE
5ctb_ligand
   55    59     1     0     0
SMALL
GAST_HUCK


@<TRIPOS>ATOM
      1 N3          6.0360   29.9580   22.9370 N.am      1 57J        -0.2736
      2 C4          5.0410   30.5760   25.1100 C.ar      1 57J         0.0314
      3 N2          4.5960   34.2700   27.7890 N.2       1 57J        -0.2053
      4 C7          3.8930   32.2870   26.9140 C.ar      1 57J         0.0953
      5 C6          5.1640   32.5860   26.3560 C.ar      1 57J         0.0096
      6 C9          5.6500   29.5640   24.2150 C.2       1 57J         0.1983
      7 C13         4.8030   31.0110   21.0600 C.3       1 57J         0.0033
      8 C20         7.8210   33.4560   17.7070 C.ar      1 57J        -0.0472
      9 C21         7.7960   32.4390   18.6500 C.ar      1 57J        -0.0312
     10 C8          5.5580   33.8380   26.9460 C.2       1 57J         0.0214
     11 C18         5.5850   32.8920   16.9960 C.ar      1 57J        -0.0562
     12 C16         4.3750   31.0000   18.0490 C.2       1 57J         0.1239
     13 C19         6.7230   33.6780   16.8680 C.ar      1 57J        -0.0487
     14 C1          1.9080   30.8150   27.2660 C.3       1 57J        -0.0313
     15 C2          3.1950   31.1110   26.5960 C.ar      1 57J        -0.0135
     16 C3          3.7880   30.2650   25.6880 C.ar      1 57J        -0.0508
     17 C5          5.7500   31.7080   25.4450 C.ar      1 57J        -0.0510
     18 N1          3.5950   33.3380   27.7740 N.pl3     1 57J        -0.2125
     19 O1          5.8600   28.4210   24.6140 O.2       1 57J        -0.3888
     20 C10         6.7370   29.0350   22.0290 C.3       1 57J         0.0363
     21 C11         5.9020   28.7610   20.7760 C.3       1 57J         0.0033
     22 C12         5.5020   30.0690   20.0770 C.3       1 57J         0.1103
     23 C14         5.6540   31.2320   22.3180 C.3       1 57J         0.0363
     24 C15         4.5940   29.7670   18.8820 C.3       1 57J         0.0530
     25 O2          3.3230   31.2200   17.4770 O.2       1 57J        -0.3884
     26 C17         5.5430   31.8700   17.9390 C.ar      1 57J         0.0479
     27 C22         6.6510   31.6480   18.7550 C.ar      1 57J         0.0994
     28 O3          6.7290   30.6400   19.6640 O.3       1 57J        -0.3094
     29 C23         9.0240   34.3190   17.5970 C.3       1 57J        -0.0334
     30 C24         6.7780   34.7440   15.8330 C.3       1 57J        -0.0375
     31 H1          3.8376   30.5723   21.3525 H         1 57J         0.0318
     32 H2          4.6315   31.9799   20.5682 H         1 57J         0.0318
     33 H3          8.6501   32.2619   19.2936 H         1 57J         0.0477
     34 H4          6.4924   34.3591   26.7429 H         1 57J         0.0717
     35 H5          4.7271   33.0754   16.3593 H         1 57J         0.0562
     36 H6          1.5115   29.8594   26.8924 H         1 57J         0.0377
     37 H7          1.1892   31.6194   27.0510 H         1 57J         0.0377
     38 H8          2.0674   30.7463   28.3522 H         1 57J         0.0377
     39 H9          3.2868   29.3447   25.4107 H         1 57J         0.0542
     40 H10         6.7256   31.9087   25.0172 H         1 57J         0.0589
     41 H11         2.7302   33.4061   28.3293 H         1 57J         0.2457
     42 H12         6.9219   28.0857   22.5530 H         1 57J         0.0523
     43 H13         7.6967   29.4825   21.7312 H         1 57J         0.0523
     44 H14         4.9914   28.2154   21.0641 H         1 57J         0.0318
     45 H15         6.4919   28.1478   20.0789 H         1 57J         0.0318
     46 H16         6.5651   31.7828   22.0414 H         1 57J         0.0523
     47 H17         5.0744   31.8224   23.0428 H         1 57J         0.0523
     48 H18         5.0637   28.9909   18.2599 H         1 57J         0.0514
     49 H19         3.6231   29.4040   19.2502 H         1 57J         0.0514
     50 H20         9.7760   33.9951   18.3315 H         1 57J         0.0386
     51 H21         8.7447   35.3644   17.7949 H         1 57J         0.0386
     52 H22         9.4427   34.2369   16.5831 H         1 57J         0.0386
     53 H23         7.7507   35.2551   15.8844 H         1 57J         0.0357
     54 H24         5.9720   35.4708   16.0120 H         1 57J         0.0357
     55 H25         6.6521   34.2948   14.8368 H         1 57J         0.0357
@<TRIPOS>BOND
     1    1    6 am 
     2   20    1 1  
     3   23    1 1  
     4    6    2 1  
     5    2   16 ar 
     6    2   17 ar 
     7   10    3 2  
     8    3   18 1  
     9    5    4 ar 
    10   15    4 ar 
    11    4   18 1  
    12    5   10 1  
    13   17    5 ar 
    14    6   19 2  
    15   22    7 1  
    16    7   23 1  
    17    8    9 ar 
    18   13    8 ar 
    19    8   29 1  
    20    9   27 ar 
    21   11   13 ar 
    22   26   11 ar 
    23   24   12 1  
    24   12   25 2  
    25   12   26 1  
    26   13   30 1  
    27   15   14 1  
    28   16   15 ar 
    29   21   20 1  
    30   22   21 1  
    31   22   24 1  
    32   22   28 1  
    33   26   27 ar 
    34   27   28 1  
    35    7   31 1  
    36    7   32 1  
    37    9   33 1  
    38   10   34 1  
    39   11   35 1  
    40   14   36 1  
    41   14   37 1  
    42   14   38 1  
    43   16   39 1  
    44   17   40 1  
    45   18   41 1  
    46   20   42 1  
    47   20   43 1  
    48   21   44 1  
    49   21   45 1  
    50   23   46 1  
    51   23   47 1  
    52   24   48 1  
    53   24   49 1  
    54   29   50 1  
    55   29   51 1  
    56   29   52 1  
    57   30   53 1  
    58   30   54 1  
    59   30   55 1  
@<TRIPOS>SUBSTRUCTURE
     1 57J         1

