### 
### Created by X-TOOL on Mon Sep 10 21:13:23 2018
### 

@<TRIPOS>MOLECULE
5ctc_ligand
   56    59     1     0     0
SMALL
GAST_HUCK


@<TRIPOS>ATOM
      1 N3          5.9570   29.8650   22.9410 N.am      1 57K        -0.2738
      2 C4          5.0720   30.3960   25.1810 C.ar      1 57K         0.0314
      3 N2          2.0270   31.9640   28.2290 N.2       1 57K        -0.2053
      4 C7          3.9540   32.0840   27.0240 C.ar      1 57K         0.0953
      5 C6          3.2680   30.9080   26.6280 C.ar      1 57K         0.0096
      6 C9          5.7170   29.4450   24.2440 C.2       1 57K         0.1983
      7 C13         5.8530   28.9190   20.6550 C.3       1 57K        -0.0232
      8 C20         8.2600   34.6880   16.9350 C.3       1 57K        -0.0320
      9 C21         6.8870   33.7030   15.0800 C.3       1 57K        -0.0320
     10 C8          2.0660   30.8850   27.4180 C.2       1 57K         0.0214
     11 C18         6.8950   34.0920   16.5560 C.3       1 57K         0.0905
     12 C16         4.7840   30.2970   18.7470 C.3       1 57K         0.0434
     13 C19         5.7730   35.0770   16.8790 C.3       1 57K        -0.0320
     14 C1          5.8640   33.6700   26.9740 C.3       1 57K        -0.0313
     15 C2          5.2120   32.4270   26.5060 C.ar      1 57K        -0.0135
     16 C3          5.7620   31.5610   25.5900 C.ar      1 57K        -0.0508
     17 C5          3.8400   30.0500   25.6890 C.ar      1 57K        -0.0510
     18 N1          3.1610   32.6930   27.9890 N.pl3     1 57K        -0.2125
     19 O1          6.0180   28.3080   24.6110 O.2       1 57K        -0.3888
     20 C10         5.6210   31.2060   22.4560 C.3       1 57K         0.0338
     21 C11         4.8130   31.1300   21.1580 C.3       1 57K        -0.0232
     22 C12         5.5300   30.2960   20.1170 C.3       1 57K         0.0150
     23 C14         6.6540   29.0180   21.9580 C.3       1 57K         0.0338
     24 C15         6.7250   31.0170   19.4280 C.3       1 57K         0.0434
     25 N4          5.9750   30.9650   18.1240 N.am      1 57K        -0.2477
     26 C17         5.7520   32.1290   17.3560 C.2       1 57K         0.3226
     27 O2          4.7570   32.3250   16.6710 O.2       1 57K        -0.3774
     28 O3          6.8260   32.9530   17.3990 O.3       1 57K        -0.2580
     29 H1          6.4454   28.3699   19.9084 H         1 57K         0.0291
     30 H2          4.9149   28.3782   20.8486 H         1 57K         0.0291
     31 H3          8.4413   35.5959   16.3410 H         1 57K         0.0260
     32 H4          9.0512   33.9518   16.7302 H         1 57K         0.0260
     33 H5          8.2644   34.9430   18.0050 H         1 57K         0.0260
     34 H6          5.9069   33.2778   14.8182 H         1 57K         0.0260
     35 H7          7.6725   32.9559   14.8934 H         1 57K         0.0260
     36 H8          7.0758   34.5950   14.4647 H         1 57K         0.0260
     37 H9          1.3007   30.1118   27.3692 H         1 57K         0.0717
     38 H10         3.8662   30.9032   18.7321 H         1 57K         0.0528
     39 H11         4.5679   29.2946   18.3488 H         1 57K         0.0528
     40 H12         5.8081   35.3352   17.9477 H         1 57K         0.0260
     41 H13         4.8019   34.6164   16.6448 H         1 57K         0.0260
     42 H14         5.9010   35.9888   16.2772 H         1 57K         0.0260
     43 H15         6.8354   33.7862   26.4712 H         1 57K         0.0377
     44 H16         6.0183   33.6160   28.0618 H         1 57K         0.0377
     45 H17         5.2231   34.5320   26.7369 H         1 57K         0.0377
     46 H18         6.7402   31.7748   25.1747 H         1 57K         0.0542
     47 H19         3.3340   29.1455   25.3713 H         1 57K         0.0589
     48 H20         3.3956   33.5774   28.4620 H         1 57K         0.2457
     49 H21         6.5499   31.7651   22.2699 H         1 57K         0.0522
     50 H22         5.0262   31.7272   23.2206 H         1 57K         0.0522
     51 H23         4.6676   32.1472   20.7653 H         1 57K         0.0291
     52 H24         3.8341   30.6755   21.3704 H         1 57K         0.0291
     53 H25         6.7831   28.0099   22.3787 H         1 57K         0.0522
     54 H26         7.6404   29.4543   21.7419 H         1 57K         0.0522
     55 H27         7.6635   30.4433   19.4333 H         1 57K         0.0528
     56 H28         6.9151   32.0345   19.8003 H         1 57K         0.0528
@<TRIPOS>BOND
     1    1    6 am 
     2   20    1 1  
     3   23    1 1  
     4    6    2 1  
     5    2   16 ar 
     6    2   17 ar 
     7   10    3 2  
     8    3   18 1  
     9    5    4 ar 
    10   15    4 ar 
    11    4   18 1  
    12    5   10 1  
    13   17    5 ar 
    14    6   19 2  
    15   22    7 1  
    16    7   23 1  
    17   11    8 1  
    18   11    9 1  
    19   11   13 1  
    20   28   11 1  
    21   12   22 1  
    22   25   12 1  
    23   15   14 1  
    24   16   15 ar 
    25   21   20 1  
    26   22   21 1  
    27   24   22 1  
    28   25   24 1  
    29   26   25 am 
    30   26   27 2  
    31   26   28 1  
    32    7   29 1  
    33    7   30 1  
    34    8   31 1  
    35    8   32 1  
    36    8   33 1  
    37    9   34 1  
    38    9   35 1  
    39    9   36 1  
    40   10   37 1  
    41   12   38 1  
    42   12   39 1  
    43   13   40 1  
    44   13   41 1  
    45   13   42 1  
    46   14   43 1  
    47   14   44 1  
    48   14   45 1  
    49   16   46 1  
    50   17   47 1  
    51   18   48 1  
    52   20   49 1  
    53   20   50 1  
    54   21   51 1  
    55   21   52 1  
    56   23   53 1  
    57   23   54 1  
    58   24   55 1  
    59   24   56 1  
@<TRIPOS>SUBSTRUCTURE
     1 57K         1

