### 
### Created by X-TOOL on Mon Sep 10 21:13:23 2018
### 

@<TRIPOS>MOLECULE
5cte_ligand
   65    68     1     0     0
SMALL
GAST_HUCK


@<TRIPOS>ATOM
      1 N3          8.7480   -9.6160  -17.3960 N.am      1 57L        -0.2738
      2 C4          6.7980   -9.9940  -15.9480 C.ar      1 57L         0.0314
      3 N2          2.4450   -8.5720  -15.7040 N.2       1 57L        -0.2053
      4 C7          4.1000  -10.1280  -15.5140 C.ar      1 57L         0.0953
      5 C6          4.6960   -8.9030  -15.9120 C.ar      1 57L         0.0096
      6 C9          8.2690   -9.9720  -16.1350 C.2       1 57L         0.1983
      7 C13        10.7000   -9.9660  -18.8680 C.3       1 57L        -0.0247
      8 C20         8.6100   -9.8910  -25.8090 C.3       1 57L         0.0822
      9 C21         8.2370   -8.7000  -26.7110 C.3       1 57L        -0.0100
     10 C8          3.6090   -7.9650  -16.0160 C.2       1 57L         0.0214
     11 C18        11.8210  -10.7080  -21.4130 C.3       1 57L        -0.0413
     12 C16         9.6400   -8.2690  -22.0930 C.3       1 57L         0.0367
     13 C19         9.4230  -10.2560  -23.6380 C.2       1 57L         0.3223
     14 C1          4.1780  -12.5250  -14.8280 C.3       1 57L        -0.0313
     15 C2          4.8520  -11.2960  -15.3050 C.ar      1 57L        -0.0135
     16 C3          6.2070  -11.2090  -15.5320 C.ar      1 57L        -0.0508
     17 C5          6.0740   -8.8350  -16.1190 C.ar      1 57L        -0.0510
     18 N1          2.7360   -9.8740  -15.4010 N.pl3     1 57L        -0.2125
     19 O1          9.0340  -10.2570  -15.2180 O.2       1 57L        -0.3888
     20 C10         7.8710   -9.3280  -18.5360 C.3       1 57L         0.0338
     21 C11         8.3960  -10.0050  -19.8000 C.3       1 57L        -0.0247
     22 C12         9.8580   -9.6650  -20.0980 C.3       1 57L        -0.0009
     23 C14        10.1580   -9.2690  -17.6190 C.3       1 57L         0.0338
     24 C15         9.9940   -8.2180  -20.5950 C.3       1 57L        -0.0247
     25 N4          9.8650   -9.6740  -22.4690 N.am      1 57L        -0.2456
     26 C17        10.3080  -10.5040  -21.3280 C.3       1 57L         0.0499
     27 O2          9.3840  -11.4650  -23.8600 O.2       1 57L        -0.3774
     28 O3          9.0460   -9.3410  -24.5780 O.3       1 57L        -0.2633
     29 C22         9.4510   -7.8120  -26.9590 C.3       1 57L        -0.0577
     30 C23         7.7440   -9.2860  -28.0350 C.3       1 57L        -0.0577
     31 C24         7.1230   -7.8760  -26.0770 C.3       1 57L        -0.0577
     32 H1         11.7289   -9.6215  -19.0488 H         1 57L         0.0291
     33 H2         10.7019  -11.0524  -18.6959 H         1 57L         0.0291
     34 H3          9.4174  -10.4788  -26.2699 H         1 57L         0.0616
     35 H4          7.7332  -10.5354  -25.6481 H         1 57L         0.0616
     36 H5          3.7111   -6.9197  -16.3040 H         1 57L         0.0717
     37 H6         12.0607  -11.3071  -22.3038 H         1 57L         0.0252
     38 H7         12.1713  -11.2337  -20.5125 H         1 57L         0.0252
     39 H8         12.3195   -9.7300  -21.4839 H         1 57L         0.0252
     40 H9         10.2946   -7.6006  -22.6716 H         1 57L         0.0522
     41 H10         8.5899   -7.9849  -22.2557 H         1 57L         0.0522
     42 H11         4.9183  -13.3317  -14.7224 H         1 57L         0.0377
     43 H12         3.4084  -12.8264  -15.5538 H         1 57L         0.0377
     44 H13         3.7067  -12.3300  -13.8534 H         1 57L         0.0377
     45 H14         6.8298  -12.0848  -15.3897 H         1 57L         0.0542
     46 H15         6.5558   -7.9065  -16.4032 H         1 57L         0.0589
     47 H16         2.0353  -10.5765  -15.1246 H         1 57L         0.2457
     48 H17         7.8325   -8.2406  -18.6973 H         1 57L         0.0522
     49 H18         6.8599   -9.7024  -18.3184 H         1 57L         0.0522
     50 H19         7.7803   -9.6816  -20.6523 H         1 57L         0.0291
     51 H20         8.3078  -11.0945  -19.6764 H         1 57L         0.0291
     52 H21        10.7488   -9.5834  -16.7460 H         1 57L         0.0522
     53 H22        10.2450   -8.1800  -17.7478 H         1 57L         0.0522
     54 H23         9.2975   -7.5585  -20.0565 H         1 57L         0.0291
     55 H24        11.0236   -7.8573  -20.4543 H         1 57L         0.0291
     56 H25         9.8099  -11.4847  -21.3275 H         1 57L         0.0560
     57 H26         9.1629   -6.9690  -27.6043 H         1 57L         0.0236
     58 H27        10.2398   -8.3987  -27.4526 H         1 57L         0.0236
     59 H28         9.8263   -7.4275  -25.9992 H         1 57L         0.0236
     60 H29         6.8684   -9.9254  -27.8495 H         1 57L         0.0236
     61 H30         8.5454   -9.8852  -28.4918 H         1 57L         0.0236
     62 H31         7.4636   -8.4688  -28.7159 H         1 57L         0.0236
     63 H32         7.4759   -7.4537  -25.1245 H         1 57L         0.0236
     64 H33         6.2506   -8.5199  -25.8917 H         1 57L         0.0236
     65 H34         6.8384   -7.0595  -26.7569 H         1 57L         0.0236
@<TRIPOS>BOND
     1    1    6 am 
     2   20    1 1  
     3   23    1 1  
     4    6    2 1  
     5    2   16 ar 
     6    2   17 ar 
     7   10    3 2  
     8    3   18 1  
     9    5    4 ar 
    10   15    4 ar 
    11    4   18 1  
    12    5   10 1  
    13   17    5 ar 
    14    6   19 2  
    15   22    7 1  
    16    7   23 1  
    17    8    9 1  
    18   28    8 1  
    19    9   29 1  
    20    9   30 1  
    21    9   31 1  
    22   26   11 1  
    23   24   12 1  
    24   12   25 1  
    25   25   13 am 
    26   13   27 2  
    27   13   28 1  
    28   15   14 1  
    29   16   15 ar 
    30   21   20 1  
    31   22   21 1  
    32   22   24 1  
    33   22   26 1  
    34   25   26 1  
    35    7   32 1  
    36    7   33 1  
    37    8   34 1  
    38    8   35 1  
    39   10   36 1  
    40   11   37 1  
    41   11   38 1  
    42   11   39 1  
    43   12   40 1  
    44   12   41 1  
    45   14   42 1  
    46   14   43 1  
    47   14   44 1  
    48   16   45 1  
    49   17   46 1  
    50   18   47 1  
    51   20   48 1  
    52   20   49 1  
    53   21   50 1  
    54   21   51 1  
    55   23   52 1  
    56   23   53 1  
    57   24   54 1  
    58   24   55 1  
    59   26   56 1  
    60   29   57 1  
    61   29   58 1  
    62   29   59 1  
    63   30   60 1  
    64   30   61 1  
    65   30   62 1  
    66   31   63 1  
    67   31   64 1  
    68   31   65 1  
@<TRIPOS>SUBSTRUCTURE
     1 57L         1

