### 
### Created by X-TOOL on Mon Sep 10 21:13:28 2018
### 

@<TRIPOS>MOLECULE
5cu2_ligand
   15    15     1     0     0
SMALL
GAST_HUCK


@<TRIPOS>ATOM
      1 C2          9.5490  131.8400  362.5710 C.ar      1 54G        -0.0679
      2 C7         11.0050  133.2840  363.7790 C.ar      1 54G        -0.0561
      3 C6         13.4310  133.5220  363.1400 C.2       1 54G         0.0582
      4 C5         12.0840  132.9000  362.9790 C.ar      1 54G         0.0385
      5 C4         11.8680  131.9400  361.9710 C.ar      1 54G         0.1029
      6 C3         10.5990  131.4260  361.7750 C.ar      1 54G        -0.0293
      7 O1         13.5120  134.5090  363.9760 O.co2     1 54G        -0.5643
      8 O2         14.3850  133.0670  362.5620 O.co2     1 54G        -0.5643
      9 O          12.8550  131.5520  361.1260 O.3       1 54G        -0.3295
     10 C1          9.7290  132.7660  363.5860 C.ar      1 54G        -0.0692
     11 H1          8.5603  131.4307  362.3976 H         1 54G         0.0610
     12 H2         11.1668  134.0054  364.5718 H         1 54G         0.0622
     13 H3         10.4278  130.6950  360.9931 H         1 54G         0.0550
     14 H4         13.6676  131.9774  361.3734 H         1 54G         0.2498
     15 H5          8.8998  133.0773  364.2110 H         1 54G         0.0531
@<TRIPOS>BOND
     1    1    6 ar 
     2   10    1 ar 
     3    2    4 ar 
     4    2   10 ar 
     5    4    3 1  
     6    3    7 ar 
     7    3    8 ar 
     8    4    5 ar 
     9    5    6 ar 
    10    5    9 1  
    11    1   11 1  
    12    2   12 1  
    13    6   13 1  
    14    9   14 1  
    15   10   15 1  
@<TRIPOS>SUBSTRUCTURE
     1 54G         1

