### 
### Created by X-TOOL on Mon Sep 10 21:13:27 2018
### 

@<TRIPOS>MOLECULE
5cu4_ligand
   60    62     1     0     0
SMALL
GAST_HUCK


@<TRIPOS>ATOM
      1 C11      -143.2720 -172.1270  361.2790 C.3       1 54S        -0.0153
      2 C12      -141.1090 -171.1860  361.8750 C.3       1 54S         0.0007
      3 C13      -139.7190 -171.4590  362.3950 C.ar      1 54S         0.0028
      4 C14      -139.4290 -172.6170  363.0970 C.ar      1 54S        -0.0538
      5 C16      -137.1250 -171.9470  363.3660 C.ar      1 54S        -0.0104
      6 C17      -137.4300 -170.7870  362.6650 C.ar      1 54S         0.0425
      7 C18      -138.6990 -170.5430  362.1810 C.ar      1 54S        -0.0401
      8 C19      -135.7610 -172.2660  363.8720 C.ar      1 54S        -0.0218
      9 C20      -134.7160 -172.5430  362.9910 C.ar      1 54S        -0.0557
     10 C21      -133.4550 -172.8550  363.4660 C.ar      1 54S        -0.0622
     11 C22      -133.2120 -172.8990  364.8210 C.ar      1 54S        -0.0627
     12 C23      -134.2300 -172.6230  365.7030 C.ar      1 54S        -0.0622
     13 CL       -136.2070 -169.5880  362.3770 Cl        1 54S        -0.0710
     14 C24      -135.4940 -172.3080  365.2390 C.ar      1 54S        -0.0557
     15 C15      -138.1570 -172.8620  363.5790 C.ar      1 54S        -0.0594
     16 N2       -141.9970 -172.3450  361.9660 N.4       1 54S         0.2410
     17 C10      -144.2810 -173.2120  361.5890 C.3       1 54S         0.0772
     18 C9       -145.5720 -173.0230  360.8310 C.2       1 54S         0.1812
     19 O3       -145.5880 -172.9590  359.6090 O.2       1 54S        -0.3969
     20 N1       -146.6730 -172.9430  361.5710 N.am      1 54S        -0.2845
     21 C8       -147.9690 -172.5590  361.0280 C.3       1 54S         0.0481
     22 C7       -148.8150 -173.7630  360.6670 C.3       1 54S         0.0633
     23 C6       -149.2030 -174.5840  361.8750 C.2       1 54S         0.2055
     24 O2       -149.2050 -174.1120  363.0030 O.2       1 54S        -0.3848
     25 N        -149.4990 -175.8720  361.5930 N.am      1 54S        -0.2333
     26 C5       -149.9360 -176.8930  362.4740 C.ar      1 54S         0.0697
     27 C4       -150.2430 -176.6770  363.8100 C.ar      1 54S        -0.0387
     28 C3       -150.4770 -177.7550  364.6450 C.ar      1 54S        -0.0720
     29 C2       -150.4030 -179.0470  364.1570 C.ar      1 54S        -0.0630
     30 C25      -149.9000 -178.1890  361.9780 C.ar      1 54S        -0.0272
     31 C1       -150.1110 -179.2750  362.8190 C.ar      1 54S        -0.0034
     32 C        -149.8670 -180.6510  362.3130 C.2       1 54S         0.0594
     33 O1       -149.7780 -180.8770  361.1190 O.co2     1 54S        -0.5608
     34 O        -149.8230 -181.5770  363.2220 O.co2     1 54S        -0.5608
     35 H1       -143.0916 -172.1105  360.1940 H         1 54S         0.0840
     36 H2       -143.6847 -171.1582  361.5969 H         1 54S         0.0840
     37 H3       -141.0345 -170.8849  360.8196 H         1 54S         0.0983
     38 H4       -141.5461 -170.3640  362.4609 H         1 54S         0.0983
     39 H5       -140.2136 -173.3443  363.2716 H         1 54S         0.0564
     40 H6       -138.9001 -169.6309  361.6307 H         1 54S         0.0567
     41 H7       -134.8940 -172.5135  361.9221 H         1 54S         0.0615
     42 H8       -132.6532 -173.0661  362.7677 H         1 54S         0.0615
     43 H9       -132.2240 -173.1497  365.1899 H         1 54S         0.0610
     44 H10      -134.0404 -172.6525  366.7699 H         1 54S         0.0615
     45 H11      -136.2861 -172.0913  365.9466 H         1 54S         0.0615
     46 H12      -137.9588 -173.7751  364.1286 H         1 54S         0.0609
     47 H13      -141.5365 -173.1390  361.5495 H         1 54S         0.2030
     48 H14      -142.1817 -172.5356  362.9384 H         1 54S         0.2030
     49 H15      -144.4978 -173.1966  362.6673 H         1 54S         0.0556
     50 H16      -143.8491 -174.1860  361.3157 H         1 54S         0.0556
     51 H17      -146.6088 -173.1563  362.5459 H         1 54S         0.1852
     52 H18      -147.8094 -171.9537  360.1235 H         1 54S         0.0545
     53 H19      -148.5054 -171.9611  361.7795 H         1 54S         0.0545
     54 H20      -148.2437 -174.4007  359.9764 H         1 54S         0.0528
     55 H21      -149.7317 -173.4131  360.1697 H         1 54S         0.0528
     56 H22      -149.3961 -176.1407  360.6353 H         1 54S         0.2256
     57 H23      -150.2993 -175.6665  364.1983 H         1 54S         0.0523
     58 H24      -150.7198 -177.5860  365.6879 H         1 54S         0.0584
     59 H25      -150.5738 -179.8856  364.8224 H         1 54S         0.0521
     60 H26      -149.7055 -178.3555  360.9247 H         1 54S         0.0535
@<TRIPOS>BOND
     1   16    1 1  
     2    1   17 1  
     3    3    2 1  
     4    2   16 1  
     5    4    3 ar 
     6    3    7 ar 
     7   15    4 ar 
     8    5    6 ar 
     9    5    8 1  
    10    5   15 ar 
    11    6    7 ar 
    12    6   13 1  
    13    8    9 ar 
    14    8   14 ar 
    15    9   10 ar 
    16   10   11 ar 
    17   11   12 ar 
    18   12   14 ar 
    19   17   18 1  
    20   18   19 2  
    21   18   20 am 
    22   20   21 1  
    23   21   22 1  
    24   22   23 1  
    25   23   24 2  
    26   23   25 am 
    27   25   26 1  
    28   26   27 ar 
    29   26   30 ar 
    30   27   28 ar 
    31   28   29 ar 
    32   29   31 ar 
    33   30   31 ar 
    34   31   32 1  
    35   32   33 ar 
    36   32   34 ar 
    37    1   35 1  
    38    1   36 1  
    39    2   37 1  
    40    2   38 1  
    41    4   39 1  
    42    7   40 1  
    43    9   41 1  
    44   10   42 1  
    45   11   43 1  
    46   12   44 1  
    47   14   45 1  
    48   15   46 1  
    49   16   47 1  
    50   16   48 1  
    51   17   49 1  
    52   17   50 1  
    53   20   51 1  
    54   21   52 1  
    55   21   53 1  
    56   22   54 1  
    57   22   55 1  
    58   25   56 1  
    59   27   57 1  
    60   28   58 1  
    61   29   59 1  
    62   30   60 1  
@<TRIPOS>SUBSTRUCTURE
     1 54S         1

