### 
### Created by X-TOOL on Mon Sep 10 21:13:27 2018
### 

@<TRIPOS>MOLECULE
5cuh_ligand
   48    50     1     0     0
SMALL
GAST_HUCK


@<TRIPOS>ATOM
      1 O24        10.8250   19.3110   -4.9840 O.2       1 LTQ        -0.3948
      2 C23        11.5740   18.3740   -5.3030 C.2       1 LTQ         0.2217
      3 N25        11.5920   17.3080   -4.5390 N.am      1 LTQ        -0.1626
      4 O26        10.7030   17.3790   -3.4730 O.3       1 LTQ        -0.2717
      5 C19        12.5300   18.4110   -6.4890 C.3       1 LTQ         0.1421
      6 C20        11.7690   18.3830   -7.8100 C.3       1 LTQ         0.0324
      7 S21        11.4300   20.1140   -8.1450 S.3       1 LTQ        -0.1358
      8 C22        12.7930   20.7430   -7.2020 C.3       1 LTQ         0.0796
      9 N18        13.3920   19.6170   -6.4610 N.am      1 LTQ        -0.1896
     10 S13        14.7910   19.6470   -5.6590 S.o2      1 LTQ         0.1236
     11 O16        15.4340   18.3410   -5.4970 O.2       1 LTQ        -0.1350
     12 O17        15.5580   20.6130   -6.3860 O.2       1 LTQ        -0.1350
     13 N10        14.4300   20.2460   -4.2540 N.am      1 LTQ        -0.2180
     14 C11        13.9830   19.4150   -3.1100 C.3       1 LTQ         0.0507
     15 C12        14.5570   19.9320   -1.8080 C.3       1 LTQ         0.0449
     16 C09        14.2710   21.6980   -4.1810 C.3       1 LTQ         0.0507
     17 C08        14.4550   22.2610   -2.7750 C.3       1 LTQ         0.0449
     18 N07        14.3100   21.3630   -1.6450 N.pl3     1 LTQ        -0.3028
     19 C04        14.2210   22.0120   -0.3850 C.ar      1 LTQ         0.0538
     20 C05        15.1750   21.6190    0.5630 C.ar      1 LTQ        -0.0378
     21 C06        15.2620   22.2380    1.8160 C.ar      1 LTQ        -0.0449
     22 C03        13.3540   23.0690   -0.0440 C.ar      1 LTQ        -0.0156
     23 C15        12.3010   23.6280   -0.9370 C.3       1 LTQ        -0.0324
     24 C02        13.4150   23.6960    1.1920 C.ar      1 LTQ        -0.0372
     25 C01        14.3570   23.2670    2.1270 C.ar      1 LTQ         0.0746
     26 C14        14.5000   23.8750    3.2440 C.1       1 LTQ         0.0844
     27 N27        14.6020   24.4550    4.2580 N.1       1 LTQ        -0.3394
     28 H1         12.1867   16.5218   -4.7069 H         1 LTQ         0.2217
     29 H2         10.7621   16.5821   -2.9592 H         1 LTQ         0.2490
     30 H3         13.1736   17.5206   -6.4355 H         1 LTQ         0.0764
     31 H4         10.8337   17.8124   -7.7116 H         1 LTQ         0.0420
     32 H5         12.3849   17.9427   -8.6080 H         1 LTQ         0.0420
     33 H6         12.4372   21.5076   -6.4958 H         1 LTQ         0.0595
     34 H7         13.5407   21.1861   -7.8762 H         1 LTQ         0.0595
     35 H8         14.3186   18.3790   -3.2649 H         1 LTQ         0.0498
     36 H9         12.8847   19.4403   -3.0542 H         1 LTQ         0.0498
     37 H10        15.6424   19.7534   -1.7999 H         1 LTQ         0.0532
     38 H11        14.0901   19.3911   -0.9717 H         1 LTQ         0.0532
     39 H12        13.2599   21.9554   -4.5294 H         1 LTQ         0.0498
     40 H13        15.0164   22.1635   -4.8426 H         1 LTQ         0.0498
     41 H14        13.7151   23.0649   -2.6478 H         1 LTQ         0.0532
     42 H15        15.4689   22.6846   -2.7250 H         1 LTQ         0.0532
     43 H16        15.8622   20.8165    0.3206 H         1 LTQ         0.0525
     44 H17        16.0139   21.9290    2.5331 H         1 LTQ         0.0632
     45 H18        11.7747   24.4426   -0.4180 H         1 LTQ         0.0366
     46 H19        11.5837   22.8361   -1.1985 H         1 LTQ         0.0366
     47 H20        12.7669   24.0181   -1.8539 H         1 LTQ         0.0366
     48 H21        12.7387   24.5095    1.4283 H         1 LTQ         0.0615
@<TRIPOS>BOND
     1    1    2 2  
     2    2    3 am 
     3    2    5 1  
     4    3    4 1  
     5    5    6 1  
     6    5    9 1  
     7    6    7 1  
     8    7    8 1  
     9    8    9 1  
    10    9   10 am 
    11   10   11 2  
    12   10   12 2  
    13   10   13 am 
    14   13   14 1  
    15   13   16 1  
    16   14   15 1  
    17   15   18 1  
    18   16   17 1  
    19   17   18 1  
    20   18   19 1  
    21   19   20 ar 
    22   19   22 ar 
    23   20   21 ar 
    24   21   25 ar 
    25   22   23 1  
    26   22   24 ar 
    27   24   25 ar 
    28   25   26 1  
    29   26   27 3  
    30    3   28 1  
    31    4   29 1  
    32    5   30 1  
    33    6   31 1  
    34    6   32 1  
    35    8   33 1  
    36    8   34 1  
    37   14   35 1  
    38   14   36 1  
    39   15   37 1  
    40   15   38 1  
    41   16   39 1  
    42   16   40 1  
    43   17   41 1  
    44   17   42 1  
    45   20   43 1  
    46   21   44 1  
    47   23   45 1  
    48   23   46 1  
    49   23   47 1  
    50   24   48 1  
@<TRIPOS>SUBSTRUCTURE
     1 LTQ         1

