### 
### Created by X-TOOL on Mon Sep 10 21:13:28 2018
### 

@<TRIPOS>MOLECULE
5cuq_ligand
   48    51     1     0     0
SMALL
GAST_HUCK


@<TRIPOS>ATOM
      1 C12         5.4150   -3.0610    4.9900 C.ar      1 NSC        -0.0332
      2 C3          6.5760   -2.8640    4.1130 C.ar      1 NSC         0.0107
      3 C2          7.5020   -1.7760    3.9380 C.ar      1 NSC         0.0577
      4 N1          7.4210   -0.5290    4.6920 N.pl3     1 NSC        -0.3261
      5 C7          8.5580   -1.9370    2.9450 C.ar      1 NSC        -0.0204
      6 C6          8.6500   -3.1280    2.1920 C.ar      1 NSC        -0.0024
      7 C8          9.7420   -3.3370    1.1330 C.3       1 NSC        -0.0211
      8 N5          7.8060   -4.0550    2.3920 N.ar      1 NSC        -0.3321
      9 C4          6.8250   -4.1840    3.1560 C.ar      1 NSC         0.0122
     10 C9          5.7630   -5.1690    3.5090 C.ar      1 NSC        -0.0548
     11 C10         4.8830   -4.9810    4.3660 C.ar      1 NSC        -0.0349
     12 C11         4.7700   -4.0790    4.9900 C.ar      1 NSC         0.0687
     13 N13         3.6080   -4.2090    5.8520 N.am      1 NSC        -0.2153
     14 C14         3.4680   -3.9690    7.2800 C.2       1 NSC         0.3160
     15 O28         4.3670   -3.6230    7.9410 O.2       1 NSC        -0.3806
     16 N15         2.1230   -4.2120    7.8130 N.am      1 NSC        -0.2153
     17 C16         1.1650   -4.6580    6.7890 C.ar      1 NSC         0.0687
     18 C17         0.7890   -6.0000    6.7230 C.ar      1 NSC        -0.0332
     19 C18        -0.1050   -6.4430    5.7520 C.ar      1 NSC         0.0107
     20 C24        -0.5080   -7.7550    5.6560 C.ar      1 NSC         0.0577
     21 N25         0.0030   -8.7400    6.5910 N.pl3     1 NSC        -0.3261
     22 C23        -1.3920   -8.1180    4.6710 C.ar      1 NSC        -0.0204
     23 C21        -1.8720   -7.1690    3.7830 C.ar      1 NSC        -0.0024
     24 C20        -2.8550   -7.5600    2.6840 C.3       1 NSC        -0.0211
     25 N22        -1.4720   -5.9040    3.8890 N.ar      1 NSC        -0.3321
     26 C19        -0.6140   -5.5350    4.8440 C.ar      1 NSC         0.0122
     27 C26        -0.2270   -4.2110    4.9050 C.ar      1 NSC        -0.0548
     28 C27         0.6560   -3.7640    5.8740 C.ar      1 NSC        -0.0349
     29 H1          5.1273   -2.2610    5.6625 H         1 NSC         0.0476
     30 H2          8.1105    0.2182    4.5271 H         1 NSC         0.1797
     31 H3          6.6744   -0.3962    5.3890 H         1 NSC         0.1797
     32 H4          9.2747   -1.1397    2.7845 H         1 NSC         0.0483
     33 H5          9.6227   -4.3296    0.6743 H         1 NSC         0.0419
     34 H6         10.7316   -3.2694    1.6084 H         1 NSC         0.0419
     35 H7          9.6540   -2.5618    0.3576 H         1 NSC         0.0419
     36 H8          5.7581   -6.1157    2.9810 H         1 NSC         0.0584
     37 H9          4.1609   -5.7759    4.5135 H         1 NSC         0.0582
     38 H10         2.7732   -4.5109    5.3915 H         1 NSC         0.2256
     39 H11         1.8815   -4.0871    8.7753 H         1 NSC         0.2256
     40 H12         1.1979   -6.7063    7.4364 H         1 NSC         0.0476
     41 H13        -0.2982   -9.7224    6.5199 H         1 NSC         0.1797
     42 H14         0.6669   -8.4568    7.3258 H         1 NSC         0.1797
     43 H15        -1.7153   -9.1493    4.5876 H         1 NSC         0.0483
     44 H16        -3.1132   -6.6711    2.0897 H         1 NSC         0.0419
     45 H17        -3.7669   -7.9748    3.1382 H         1 NSC         0.0419
     46 H18        -2.3938   -8.3160    2.0315 H         1 NSC         0.0419
     47 H19        -0.6218   -3.5079    4.1806 H         1 NSC         0.0584
     48 H20         0.9437   -2.7196    5.9116 H         1 NSC         0.0582
@<TRIPOS>BOND
     1    1    2 ar 
     2    1   12 ar 
     3    2    3 ar 
     4    2    9 ar 
     5    3    4 1  
     6    3    5 ar 
     7    5    6 ar 
     8    6    7 1  
     9    6    8 ar 
    10    8    9 ar 
    11    9   10 ar 
    12   10   11 ar 
    13   11   12 ar 
    14   12   13 1  
    15   13   14 am 
    16   14   15 2  
    17   14   16 am 
    18   16   17 1  
    19   17   18 ar 
    20   17   28 ar 
    21   18   19 ar 
    22   19   20 ar 
    23   19   26 ar 
    24   20   21 1  
    25   20   22 ar 
    26   22   23 ar 
    27   23   24 1  
    28   23   25 ar 
    29   25   26 ar 
    30   26   27 ar 
    31   27   28 ar 
    32    1   29 1  
    33    4   30 1  
    34    4   31 1  
    35    5   32 1  
    36    7   33 1  
    37    7   34 1  
    38    7   35 1  
    39   10   36 1  
    40   11   37 1  
    41   13   38 1  
    42   16   39 1  
    43   18   40 1  
    44   21   41 1  
    45   21   42 1  
    46   22   43 1  
    47   24   44 1  
    48   24   45 1  
    49   24   46 1  
    50   27   47 1  
    51   28   48 1  
@<TRIPOS>SUBSTRUCTURE
     1 NSC         1

