### 
### Created by X-TOOL on Mon Sep 10 21:13:28 2018
### 

@<TRIPOS>MOLECULE
5cw8_ligand
   75    78     1     0     0
SMALL
GAST_HUCK


@<TRIPOS>ATOM
      1 C08       -31.8430    3.0800  142.8060 C.3       1 55X         0.0017
      2 S48       -30.5600    2.2480  143.8120 S.3       1 55X        -0.0533
      3 C50       -29.2380    2.2370  142.6670 C.2       1 55X         0.1666
      4 C52       -27.8730    2.6320  143.2360 C.3       1 55X         0.0403
      5 C53       -27.1150    3.4210  142.1670 C.3       1 55X        -0.0337
      6 C54       -26.3810    4.6210  142.7690 C.3       1 55X        -0.0504
      7 C55       -25.6570    5.3400  141.6240 C.3       1 55X        -0.0500
      8 C56       -18.2730    8.0310  145.9180 C.3       1 55X        -0.0611
      9 C57       -16.8670    8.1180  146.5390 C.3       1 55X         0.0243
     10 C60       -20.6880    8.0000  144.1490 C.3       1 55X        -0.0584
     11 C61       -21.4150    4.6280  141.6680 C.3       1 55X        -0.0492
     12 C62       -22.9530    4.5790  141.6690 C.3       1 55X        -0.0492
     13 C63       -25.3290    7.2020  143.2470 C.3       1 55X        -0.0621
     14 C64       -24.6560    6.3730  142.1490 C.3       1 55X        -0.0405
     15 C65       -17.2530    6.3880  144.3540 C.2       1 55X        -0.0413
     16 C66       -18.2340    7.4200  144.5020 C.3       1 55X        -0.0378
     17 C67       -17.9080    8.5300  143.5040 C.3       1 55X        -0.0890
     18 C68       -22.1690    6.5340  142.7980 C.3       1 55X        -0.0260
     19 C69       -21.9670    7.3940  141.5390 C.3       1 55X        -0.0590
     20 C70       -16.1630    6.9050  146.4400 C.2       1 55X         0.1764
     21 O71       -15.3050    6.6080  147.2700 O.2       1 55X        -0.3440
     22 C72       -18.7330    4.9180  143.0920 C.3       1 55X        -0.0393
     23 C73       -19.7320    6.0360  142.9670 C.3       1 55X        -0.0417
     24 C74       -19.6480    6.8680  144.2340 C.3       1 55X        -0.0619
     25 C75       -21.1280    5.4530  142.9110 C.3       1 55X        -0.0330
     26 C76       -23.4070    5.6500  142.6830 C.3       1 55X        -0.0328
     27 C77       -22.0930    7.3960  144.0450 C.3       1 55X        -0.0477
     28 C58       -16.4140    6.0060  145.4050 C.2       1 55X         0.0476
     29 C59       -17.3330    5.4910  143.2770 C.3       1 55X        -0.0169
     30 O49       -29.3630    1.9410  141.4790 O.2       1 55X        -0.3789
     31 C51       -27.0910    1.3660  143.5880 C.3       1 55X        -0.0455
     32 H1        -32.7683    3.1705  143.3939 H         1 55X         0.0368
     33 H2        -32.0404    2.4875  141.9005 H         1 55X         0.0368
     34 H3        -31.4914    4.0820  142.5191 H         1 55X         0.0368
     35 H4        -28.0048    3.2506  144.1360 H         1 55X         0.0536
     36 H5        -27.8313    3.7815  141.4140 H         1 55X         0.0293
     37 H6        -26.3808    2.7575  141.6867 H         1 55X         0.0293
     38 H7        -25.6518    4.2783  143.5179 H         1 55X         0.0267
     39 H8        -27.1019    5.3025  143.2442 H         1 55X         0.0267
     40 H9        -26.4016    5.8517  140.9966 H         1 55X         0.0268
     41 H10       -25.1177    4.5957  141.0198 H         1 55X         0.0268
     42 H11       -18.6995    9.0431  145.8579 H         1 55X         0.0172
     43 H12       -18.9081    7.4029  146.5599 H         1 55X         0.0172
     44 H13       -16.9657    8.3837  147.6018 H         1 55X         0.0483
     45 H14       -16.2976    8.9009  146.0166 H         1 55X         0.0483
     46 H15       -20.4872    8.6165  143.2604 H         1 55X         0.0259
     47 H16       -20.6237    8.6256  145.0515 H         1 55X         0.0259
     48 H17       -21.0308    5.1211  140.7629 H         1 55X         0.0268
     49 H18       -20.9823    3.6198  141.7481 H         1 55X         0.0268
     50 H19       -23.3044    3.5840  141.9797 H         1 55X         0.0268
     51 H20       -23.3443    4.8098  140.6672 H         1 55X         0.0268
     52 H21       -24.6177    7.9479  143.6313 H         1 55X         0.0233
     53 H22       -25.6434    6.5389  144.0664 H         1 55X         0.0233
     54 H23       -26.2092    7.7147  142.8319 H         1 55X         0.0233
     55 H24       -24.3570    7.0413  141.3280 H         1 55X         0.0301
     56 H25       -17.8761    8.1112  142.4873 H         1 55X         0.0112
     57 H26       -16.9300    8.9691  143.7504 H         1 55X         0.0112
     58 H27       -18.6831    9.3088  143.5556 H         1 55X         0.0112
     59 H28       -21.0674    8.0154  141.6599 H         1 55X         0.0235
     60 H29       -22.8436    8.0423  141.3933 H         1 55X         0.0235
     61 H30       -21.8454    6.7394  140.6634 H         1 55X         0.0235
     62 H31       -18.7578    4.3032  142.1802 H         1 55X         0.0293
     63 H32       -18.9898    4.2950  143.9614 H         1 55X         0.0293
     64 H33       -19.5257    6.6461  142.0753 H         1 55X         0.0298
     65 H34       -19.9134    6.2199  145.0822 H         1 55X         0.0187
     66 H35       -21.2870    4.8475  143.8154 H         1 55X         0.0309
     67 H36       -23.6462    5.2004  143.6580 H         1 55X         0.0309
     68 H37       -22.8377    8.2031  143.9814 H         1 55X         0.0270
     69 H38       -22.2959    6.7790  144.9328 H         1 55X         0.0270
     70 H39       -15.9610    5.0157  145.4149 H         1 55X         0.1318
     71 H40       -16.6341    4.6610  143.4575 H         1 55X         0.0450
     72 H41       -17.0446    6.0196  142.3565 H         1 55X         0.0450
     73 H42       -27.6371    0.7996  144.3567 H         1 55X         0.0257
     74 H43       -26.0984    1.6432  143.9727 H         1 55X         0.0257
     75 H44       -26.9750    0.7445  142.6879 H         1 55X         0.0257
@<TRIPOS>BOND
     1    2    1 1  
     2    3    2 1  
     3    4    3 1  
     4    3   30 2  
     5    5    4 1  
     6    4   31 1  
     7    6    5 1  
     8    7    6 1  
     9   14    7 1  
    10    8    9 1  
    11   16    8 1  
    12   20    9 1  
    13   24   10 1  
    14   10   27 1  
    15   12   11 1  
    16   25   11 1  
    17   26   12 1  
    18   14   13 1  
    19   26   14 1  
    20   15   16 1  
    21   15   28 2  
    22   29   15 1  
    23   16   17 1  
    24   16   24 1  
    25   18   19 1  
    26   18   25 1  
    27   18   26 1  
    28   27   18 1  
    29   20   21 2  
    30   28   20 1  
    31   22   23 1  
    32   22   29 1  
    33   23   24 1  
    34   23   25 1  
    35    1   32 1  
    36    1   33 1  
    37    1   34 1  
    38    4   35 1  
    39    5   36 1  
    40    5   37 1  
    41    6   38 1  
    42    6   39 1  
    43    7   40 1  
    44    7   41 1  
    45    8   42 1  
    46    8   43 1  
    47    9   44 1  
    48    9   45 1  
    49   10   46 1  
    50   10   47 1  
    51   11   48 1  
    52   11   49 1  
    53   12   50 1  
    54   12   51 1  
    55   13   52 1  
    56   13   53 1  
    57   13   54 1  
    58   14   55 1  
    59   17   56 1  
    60   17   57 1  
    61   17   58 1  
    62   19   59 1  
    63   19   60 1  
    64   19   61 1  
    65   22   62 1  
    66   22   63 1  
    67   23   64 1  
    68   24   65 1  
    69   25   66 1  
    70   26   67 1  
    71   27   68 1  
    72   27   69 1  
    73   28   70 1  
    74   29   71 1  
    75   29   72 1  
    76   31   73 1  
    77   31   74 1  
    78   31   75 1  
@<TRIPOS>SUBSTRUCTURE
     1 55X         1

