### 
### Created by X-TOOL on Mon Sep 10 21:13:24 2018
### 

@<TRIPOS>MOLECULE
5cwa_ligand
   25    25     1     0     0
SMALL
GAST_HUCK


@<TRIPOS>ATOM
      1 OAD        48.2880  -45.7430   -6.5980 O.co2     1 0GA        -0.5624
      2 CAL        48.0450  -45.7600   -5.3950 C.2       1 0GA         0.0845
      3 OAB        47.3270  -44.9110   -4.8460 O.co2     1 0GA        -0.5624
      4 CAN        48.6520  -46.7910   -4.5970 C.2       1 0GA         0.1283
      5 CAG        48.9660  -47.9780   -5.0890 C.2       1 0GA        -0.0556
      6 CAA        49.6090  -49.0380   -4.2340 C.3       1 0GA        -0.0453
      7 OAK        48.9160  -46.4920   -3.2360 O.3       1 0GA        -0.2697
      8 CAP        49.9310  -45.6600   -2.8940 C.ar      1 0GA         0.1443
      9 CAI        50.9220  -45.2290   -3.7750 C.ar      1 0GA        -0.0348
     10 CAH        51.8990  -44.3700   -3.2980 C.ar      1 0GA        -0.0777
     11 CAJ        51.8650  -43.9410   -1.9760 C.ar      1 0GA        -0.0672
     12 CAO        49.9130  -45.2480   -1.5980 C.ar      1 0GA         0.1358
     13 OAF        48.8750  -45.7110   -0.8310 O.3       1 0GA        -0.3325
     14 CAQ        50.8670  -44.3680   -1.1240 C.ar      1 0GA         0.0311
     15 CAM        50.8150  -43.9230    0.3020 C.2       1 0GA         0.0554
     16 OAC        49.9570  -44.4360    1.0340 O.co2     1 0GA        -0.5646
     17 OAE        51.6180  -43.0960    0.7710 O.co2     1 0GA        -0.5646
     18 H1         48.7549  -48.1935   -6.1354 H         1 0GA         0.0474
     19 H2         49.7833  -49.9405   -4.8382 H         1 0GA         0.0356
     20 H3         48.9447  -49.2830   -3.3922 H         1 0GA         0.0356
     21 H4         50.5687  -48.6648   -3.8472 H         1 0GA         0.0356
     22 H5         50.9280  -45.5579   -4.8079 H         1 0GA         0.0536
     23 H6         52.6909  -44.0320   -3.9565 H         1 0GA         0.0503
     24 H7         52.6296  -43.2648   -1.6111 H         1 0GA         0.0529
     25 H8         48.9560  -45.3666    0.0506 H         1 0GA         0.2464
@<TRIPOS>BOND
     1    1    2 ar 
     2    2    3 ar 
     3    2    4 1  
     4    4    5 2  
     5    4    7 1  
     6    5    6 1  
     7    7    8 1  
     8    8    9 ar 
     9    8   12 ar 
    10    9   10 ar 
    11   10   11 ar 
    12   11   14 ar 
    13   12   13 1  
    14   12   14 ar 
    15   14   15 1  
    16   15   16 ar 
    17   15   17 ar 
    18    5   18 1  
    19    6   19 1  
    20    6   20 1  
    21    6   21 1  
    22    9   22 1  
    23   10   23 1  
    24   11   24 1  
    25   13   25 1  
@<TRIPOS>SUBSTRUCTURE
     1 0GA         1

