### 
### Created by X-TOOL on Mon Sep 10 21:13:26 2018
### 

@<TRIPOS>MOLECULE
5cxa_ligand
   73    75     1     0     0
SMALL
GAST_HUCK


@<TRIPOS>ATOM
      1 O43        10.9810   32.4360   10.3490 O.co2     1 55L        -0.5690
      2 C42        10.3310   31.5270   10.8520 C.2       1 55L         0.0350
      3 O44        10.2090   31.3740   12.1360 O.co2     1 55L        -0.5690
      4 C41         9.6360   30.5500    9.9460 C.3       1 55L         0.0044
      5 C40         9.0120   31.3000    8.7840 C.3       1 55L        -0.0008
      6 C29         8.0090   30.5430    7.9310 C.3       1 55L         0.1321
      7 C37         7.0270   31.5720    7.4440 C.2       1 55L         0.1993
      8 N39         7.4730   32.4040    6.5230 N.am      1 55L        -0.2990
      9 O38         5.8900   31.6420    7.9110 O.2       1 55L        -0.3947
     10 N28         8.7120   29.8440    6.8680 N.am      1 55L        -0.2636
     11 C27         8.0870   29.2050    5.8860 C.2       1 55L         0.2040
     12 O36         6.8760   28.9590    5.8990 O.2       1 55L        -0.3944
     13 C26         8.9540   28.7650    4.7390 C.3       1 55L         0.1324
     14 C31         9.4260   29.9380    3.8620 C.3       1 55L        -0.0008
     15 C32         8.2910   30.6470    3.1270 C.3       1 55L         0.0044
     16 C33         8.8010   31.7470    2.2090 C.2       1 55L         0.0350
     17 O35         9.6820   32.6060    2.6350 O.co2     1 55L        -0.5690
     18 O34         8.3330   31.8040    1.0520 O.co2     1 55L        -0.5690
     19 N25         8.3060   27.7090    3.9760 N.am      1 55L        -0.2650
     20 C20         8.9870   26.6070    3.7110 C.2       1 55L         0.1853
     21 O30        10.0800   26.3850    4.2100 O.2       1 55L        -0.3963
     22 C19         8.3870   25.6320    2.7490 C.3       1 55L         0.0744
     23 C21         9.3130   25.5300    1.5340 C.3       1 55L         0.0221
     24 C22         8.7010   24.7450    0.3960 C.2       1 55L         0.0375
     25 O24         9.0880   23.5740    0.1920 O.co2     1 55L        -0.5688
     26 O23         7.8120   25.2780   -0.3050 O.co2     1 55L        -0.5688
     27 C71         8.2870   24.2770    3.4510 C.3       1 55L         0.0422
     28 C9          7.0720   23.9420    4.2570 C.2       1 55L         0.1413
     29 C8          5.7570   24.2140    4.2350 C.2       1 55L        -0.0269
     30 O10         7.3210   23.0780    5.2880 O.3       1 55L        -0.1669
     31 N11         6.0960   22.8200    5.9490 N.2       1 55L        -0.1517
     32 C7          5.1870   23.5130    5.3040 C.2       1 55L         0.0432
     33 C6          3.7630   23.4360    5.7380 C.ar      1 55L        -0.0148
     34 C1          3.4100   22.6310    6.8190 C.ar      1 55L        -0.0544
     35 C2          2.0820   22.5320    7.2170 C.ar      1 55L        -0.0543
     36 C5          2.7670   24.1070    5.0410 C.ar      1 55L        -0.0544
     37 C4          1.4450   24.0080    5.4460 C.ar      1 55L        -0.0543
     38 C3          1.0870   23.2210    6.5310 C.ar      1 55L        -0.0186
     39 C12        -0.3340   23.1330    6.9360 C.ar      1 55L        -0.0179
     40 C17        -0.9060   21.9010    7.2160 C.ar      1 55L        -0.0403
     41 C13        -1.1060   24.2820    7.0130 C.ar      1 55L        -0.0541
     42 C14        -2.4420   24.2110    7.3860 C.ar      1 55L        -0.0609
     43 C15        -3.0100   22.9890    7.6700 C.ar      1 55L        -0.0479
     44 C16        -2.2430   21.8480    7.5850 C.ar      1 55L         0.0409
     45 CL         -2.9630   20.3160    7.9430 Cl        1 55L        -0.0707
     46 H1          8.8505   30.0230   10.5074 H         1 55L         0.0433
     47 H2         10.3653   29.8208    9.5634 H         1 55L         0.0433
     48 H3          9.8287   31.6268    8.1236 H         1 55L         0.0330
     49 H4          8.4984   32.1813    9.1958 H         1 55L         0.0330
     50 H5          7.4775   29.7997    8.5433 H         1 55L         0.0801
     51 H6          6.8708   33.1129    6.1558 H         1 55L         0.1815
     52 H7          8.4133   32.3259    6.1918 H         1 55L         0.1815
     53 H8          9.7120   29.8443    6.8766 H         1 55L         0.1883
     54 H9          9.8610   28.3249    5.1791 H         1 55L         0.0801
     55 H10        10.1352   29.5508    3.1156 H         1 55L         0.0330
     56 H11         9.9347   30.6708    4.5056 H         1 55L         0.0330
     57 H12         7.6113   31.0914    3.8690 H         1 55L         0.0433
     58 H13         7.7430   29.9080    2.5241 H         1 55L         0.0433
     59 H14         7.3638   27.8146    3.6582 H         1 55L         0.1883
     60 H15         7.3881   25.9680    2.4339 H         1 55L         0.0583
     61 H16        10.2446   25.0332    1.8427 H         1 55L         0.0460
     62 H17         9.5396   26.5459    1.1784 H         1 55L         0.0460
     63 H18         9.1488   24.2068    4.1310 H         1 55L         0.0513
     64 H19         8.3725   23.5072    2.6699 H         1 55L         0.0513
     65 H20         5.2363   24.8544    3.5247 H         1 55L         0.0289
     66 H21         4.1752   22.0789    7.3525 H         1 55L         0.0616
     67 H22         1.8198   21.9136    8.0678 H         1 55L         0.0622
     68 H23         3.0240   24.7100    4.1776 H         1 55L         0.0616
     69 H24         0.6793   24.5538    4.9067 H         1 55L         0.0622
     70 H25        -0.3177   20.9931    7.1477 H         1 55L         0.0628
     71 H26        -0.6633   25.2437    6.7802 H         1 55L         0.0624
     72 H27        -3.0361   25.1152    7.4534 H         1 55L         0.0617
     73 H28        -4.0530   22.9255    7.9583 H         1 55L         0.0622
@<TRIPOS>BOND
     1    1    2 ar 
     2    2    3 ar 
     3    2    4 1  
     4    4    5 1  
     5    5    6 1  
     6    6    7 1  
     7    6   10 1  
     8    7    8 am 
     9    7    9 2  
    10   10   11 am 
    11   11   12 2  
    12   11   13 1  
    13   13   14 1  
    14   13   19 1  
    15   14   15 1  
    16   15   16 1  
    17   16   17 ar 
    18   16   18 ar 
    19   19   20 am 
    20   20   21 2  
    21   20   22 1  
    22   22   23 1  
    23   22   27 1  
    24   23   24 1  
    25   24   25 ar 
    26   24   26 ar 
    27   27   28 1  
    28   28   29 2  
    29   28   30 1  
    30   29   32 1  
    31   30   31 1  
    32   31   32 2  
    33   32   33 1  
    34   33   34 ar 
    35   33   36 ar 
    36   34   35 ar 
    37   35   38 ar 
    38   36   37 ar 
    39   37   38 ar 
    40   38   39 1  
    41   39   40 ar 
    42   39   41 ar 
    43   40   44 ar 
    44   41   42 ar 
    45   42   43 ar 
    46   43   44 ar 
    47   44   45 1  
    48    4   46 1  
    49    4   47 1  
    50    5   48 1  
    51    5   49 1  
    52    6   50 1  
    53    8   51 1  
    54    8   52 1  
    55   10   53 1  
    56   13   54 1  
    57   14   55 1  
    58   14   56 1  
    59   15   57 1  
    60   15   58 1  
    61   19   59 1  
    62   22   60 1  
    63   23   61 1  
    64   23   62 1  
    65   27   63 1  
    66   27   64 1  
    67   29   65 1  
    68   34   66 1  
    69   35   67 1  
    70   36   68 1  
    71   37   69 1  
    72   40   70 1  
    73   41   71 1  
    74   42   72 1  
    75   43   73 1  
@<TRIPOS>SUBSTRUCTURE
     1 55L         1

