### 
### Created by X-TOOL on Mon Sep 10 21:13:23 2018
### 

@<TRIPOS>MOLECULE
5cxh_ligand
   49    52     1     0     0
SMALL
GAST_HUCK


@<TRIPOS>ATOM
      1 C1          3.3970    0.5520   14.3940 C.ar      1 55M         0.1137
      2 C2          3.2010   -0.5320   15.1970 C.ar      1 55M         0.0462
      3 C3          1.9480   -1.1110   15.3160 C.ar      1 55M        -0.0360
      4 C11         2.0350    5.0430   13.8590 C.3       1 55M         0.0385
      5 C13         4.0050    5.1180   12.6830 C.2       1 55M         0.1764
      6 C14         3.0060    4.7340   11.6390 C.3       1 55M         0.0446
      7 C15         1.7450    4.4710   12.4710 C.3       1 55M         0.0267
      8 C17         1.3670    2.9570   12.4790 C.3       1 55M         0.0880
      9 C19         0.8410    2.4130   11.1140 C.3       1 55M        -0.0334
     10 C20        -1.4530   -0.2940   14.0710 C.ar      1 55M        -0.0320
     11 C21        -2.7800   -0.6550   14.1980 C.ar      1 55M         0.1217
     12 C22        -3.1060   -1.7240   14.9950 C.ar      1 55M         0.1223
     13 C23        -2.0930   -2.4070   15.6700 C.ar      1 55M        -0.0382
     14 C24        -0.7750   -2.0510   15.5540 C.ar      1 55M        -0.0715
     15 C27        -3.7150    1.2430   12.9990 C.3       1 55M         0.0569
     16 C28        -4.8920   -2.8510   16.1880 C.3       1 55M         0.0577
     17 C4          0.9290   -0.5190   14.5860 C.ar      1 55M         0.0193
     18 N5          1.1510    0.5610   13.8270 N.ar      1 55M        -0.2850
     19 C6          2.3320    1.1250   13.6980 C.ar      1 55M         0.1769
     20 C7         -0.4510   -1.0090   14.6990 C.ar      1 55M        -0.0291
     21 S8          5.0550    1.1340   14.3630 S.3       1 55M         0.0093
     22 C9          5.3450   -0.1930   15.4900 C.2       1 55M         0.0849
     23 N10         4.3450   -0.8660   15.7650 N.2       1 55M        -0.2869
     24 N12         3.4080    5.2540   13.8430 N.am      1 55M        -0.2864
     25 O16         5.1330    5.2890   12.4660 O.2       1 55M        -0.3971
     26 O18         2.5080    2.2310   12.9170 O.3       1 55M        -0.2975
     27 O25        -4.4460   -2.0540   15.1160 O.3       1 55M        -0.3230
     28 O26        -3.8040   -0.0120   13.5720 O.3       1 55M        -0.3245
     29 H1          1.7744   -1.9773   15.9440 H         1 55M         0.0564
     30 H2          1.7566    4.3262   14.6456 H         1 55M         0.0525
     31 H3          1.4940    5.9878   14.0157 H         1 55M         0.0525
     32 H4          3.3223    3.8294   11.0991 H         1 55M         0.0507
     33 H5          2.8458    5.5521   10.9214 H         1 55M         0.0507
     34 H6          0.9006    5.0221   12.0314 H         1 55M         0.0374
     35 H7          0.5615    2.8160   13.2147 H         1 55M         0.0657
     36 H8          0.6009    1.3441   11.2133 H         1 55M         0.0259
     37 H9          1.6153    2.5448   10.3438 H         1 55M         0.0259
     38 H10        -0.0639    2.9665   10.8228 H         1 55M         0.0259
     39 H11        -1.1923    0.5673   13.4667 H         1 55M         0.0520
     40 H12        -2.3571   -3.2446   16.3054 H         1 55M         0.0518
     41 H13        -0.0066   -2.5700   16.1155 H         1 55M         0.0517
     42 H14        -4.6878    1.5178   12.5652 H         1 55M         0.0573
     43 H15        -2.9508    1.2315   12.2079 H         1 55M         0.0573
     44 H16        -3.4357    1.9783   13.7680 H         1 55M         0.0573
     45 H17        -5.9789   -2.9994   16.1071 H         1 55M         0.0575
     46 H18        -4.6603   -2.3493   17.1391 H         1 55M         0.0575
     47 H19        -4.3853   -3.8268   16.1551 H         1 55M         0.0575
     48 H20         6.3276   -0.4025   15.9101 H         1 55M         0.1296
     49 H21         3.9137    5.4964   14.6709 H         1 55M         0.1851
@<TRIPOS>BOND
     1    1    2 ar 
     2   19    1 ar 
     3    1   21 1  
     4    2    3 ar 
     5    2   23 1  
     6   17    3 ar 
     7    7    4 1  
     8    4   24 1  
     9    6    5 1  
    10    5   24 am 
    11    5   25 2  
    12    7    6 1  
    13    8    7 1  
    14    8    9 1  
    15   26    8 1  
    16   10   11 ar 
    17   20   10 ar 
    18   11   12 ar 
    19   11   28 1  
    20   13   12 ar 
    21   12   27 1  
    22   14   13 ar 
    23   20   14 ar 
    24   28   15 1  
    25   27   16 1  
    26   18   17 ar 
    27   17   20 1  
    28   19   18 ar 
    29   19   26 1  
    30   21   22 1  
    31   22   23 2  
    32    3   29 1  
    33    4   30 1  
    34    4   31 1  
    35    6   32 1  
    36    6   33 1  
    37    7   34 1  
    38    8   35 1  
    39    9   36 1  
    40    9   37 1  
    41    9   38 1  
    42   10   39 1  
    43   13   40 1  
    44   14   41 1  
    45   15   42 1  
    46   15   43 1  
    47   15   44 1  
    48   16   45 1  
    49   16   46 1  
    50   16   47 1  
    51   22   48 1  
    52   24   49 1  
@<TRIPOS>SUBSTRUCTURE
     1 55M         1

