### 
### Created by X-TOOL on Mon Sep 10 21:13:30 2018
### 

@<TRIPOS>MOLECULE
5cxi_ligand
   67    70     1     0     0
SMALL
GAST_HUCK


@<TRIPOS>ATOM
      1 C10        -1.7580    7.0980   21.8160 C.2       1 5TW         0.0476
      2 C19        -8.6950    5.2660   18.9060 C.3       1 5TW        -0.0470
      3 C11        -2.8060    7.3060   20.9130 C.2       1 5TW        -0.0413
      4 C12        -2.9450    6.3740   19.8690 C.3       1 5TW        -0.0169
      5 C13        -3.7940    8.3190   21.1040 C.3       1 5TW        -0.0378
      6 C18        -7.1850    5.4150   18.6330 C.3       1 5TW        -0.0490
      7 C17        -6.7760    6.2780   19.8130 C.3       1 5TW        -0.0329
      8 C20        -7.8010    8.1450   18.4740 C.3       1 5TW        -0.0589
      9 C21        -3.5650    9.3960   20.0460 C.3       1 5TW        -0.0890
     10 C16        -7.8520    7.3320   19.7810 C.3       1 5TW        -0.0238
     11 C15        -7.6590    8.2350   20.9880 C.3       1 5TW        -0.0476
     12 C14        -6.2600    8.8540   20.9600 C.3       1 5TW        -0.0584
     13 S01       -12.2060    5.2720   18.1750 S.3       1 5TW        -0.0479
     14 C02       -11.4860    5.9360   19.6240 C.2       1 5TW         0.1672
     15 C03       -10.8270    8.2410   20.2150 C.3       1 5TW        -0.0453
     16 C04       -10.4160    7.0090   19.4060 C.3       1 5TW         0.0436
     17 C05        -9.0710    6.4180   19.8610 C.3       1 5TW        -0.0161
     18 O06       -11.7940    5.5770   20.7600 O.2       1 5TW        -0.3788
     19 C07        -3.7630    8.9670   22.5020 C.3       1 5TW        -0.0611
     20 C08        -2.3190    9.1770   22.9890 C.3       1 5TW         0.0243
     21 C09        -1.5290    8.0230   22.8360 C.2       1 5TW         0.1764
     22 O22        -0.6080    7.8070   23.6220 O.2       1 5TW        -0.3440
     23 C23        -5.2070    7.7330   20.9670 C.3       1 5TW        -0.0619
     24 C24        -5.3880    6.8780   19.7270 C.3       1 5TW        -0.0417
     25 C25        -4.3510    5.7850   19.7780 C.3       1 5TW        -0.0393
     26 C32       -12.6920    2.7790   19.3530 C.3       1 5TW         0.0425
     27 C33       -13.3740    4.0830   18.9300 C.3       1 5TW         0.0337
     28 N34       -13.6980    1.8520   19.9020 N.am      1 5TW        -0.2876
     29 C35       -14.3420    0.9270   19.1640 C.2       1 5TW         0.1694
     30 O36       -14.1500    0.7750   17.9590 O.2       1 5TW        -0.3831
     31 H1         -1.1233    6.2179   21.7236 H         1 5TW         0.1318
     32 H2         -8.9039    4.2947   19.3782 H         1 5TW         0.0270
     33 H3         -9.2628    5.3471   17.9674 H         1 5TW         0.0270
     34 H4         -2.2313    5.5534   20.0343 H         1 5TW         0.0450
     35 H5         -2.7130    6.8758   18.9180 H         1 5TW         0.0450
     36 H6         -6.9932    5.9197   17.6747 H         1 5TW         0.0268
     37 H7         -6.6721    4.4420   18.6441 H         1 5TW         0.0268
     38 H8         -6.8329    5.6936   20.7432 H         1 5TW         0.0309
     39 H9         -8.5974    8.9037   18.4828 H         1 5TW         0.0235
     40 H10        -7.9463    7.4709   17.6170 H         1 5TW         0.0235
     41 H11        -6.8230    8.6411   18.3887 H         1 5TW         0.0235
     42 H12        -2.5505    9.8071   20.1549 H         1 5TW         0.0112
     43 H13        -4.3029   10.2012   20.1767 H         1 5TW         0.0112
     44 H14        -3.6765    8.9555   19.0442 H         1 5TW         0.0112
     45 H15        -7.7773    7.6437   21.9080 H         1 5TW         0.0271
     46 H16        -8.4123    9.0363   20.9677 H         1 5TW         0.0271
     47 H17        -6.1229    9.4922   21.8454 H         1 5TW         0.0259
     48 H18        -6.1448    9.4604   20.0495 H         1 5TW         0.0259
     49 H19       -11.7923    8.6172   19.8452 H         1 5TW         0.0258
     50 H20       -10.0621    9.0238   20.1051 H         1 5TW         0.0258
     51 H21       -10.9223    7.9678   21.2762 H         1 5TW         0.0258
     52 H22       -10.3538    7.2775   18.3411 H         1 5TW         0.0539
     53 H23        -9.1864    6.0550   20.8929 H         1 5TW         0.0334
     54 H24        -4.2889    8.3121   23.2122 H         1 5TW         0.0172
     55 H25        -4.2710    9.9416   22.4565 H         1 5TW         0.0172
     56 H26        -2.3416    9.4511   24.0540 H         1 5TW         0.0483
     57 H27        -1.8659    9.9948   22.4094 H         1 5TW         0.0483
     58 H28        -5.3864    7.0946   21.8446 H         1 5TW         0.0187
     59 H29        -5.2770    7.4752   18.8099 H         1 5TW         0.0298
     60 H30        -4.5354    5.1542   20.6601 H         1 5TW         0.0293
     61 H31        -4.4272    5.1731   18.8671 H         1 5TW         0.0293
     62 H32       -11.9344    2.9941   20.1210 H         1 5TW         0.0532
     63 H33       -12.2079    2.3186   18.4792 H         1 5TW         0.0532
     64 H34       -14.1607    3.8482   18.1980 H         1 5TW         0.0424
     65 H35       -13.8265    4.5485   19.8180 H         1 5TW         0.0424
     66 H36       -13.9145    1.9131   20.8764 H         1 5TW         0.1860
     67 H37       -15.0676    0.2828   19.6585 H         1 5TW         0.1544
@<TRIPOS>BOND
     1    3    1 2  
     2    1   21 1  
     3    2    6 1  
     4   17    2 1  
     5    3    4 1  
     6    5    3 1  
     7    4   25 1  
     8    5    9 1  
     9    5   19 1  
    10   23    5 1  
    11    7    6 1  
    12   10    7 1  
    13    7   24 1  
    14   10    8 1  
    15   10   11 1  
    16   17   10 1  
    17   11   12 1  
    18   12   23 1  
    19   14   13 1  
    20   13   27 1  
    21   16   14 1  
    22   14   18 2  
    23   16   15 1  
    24   16   17 1  
    25   19   20 1  
    26   20   21 1  
    27   21   22 2  
    28   23   24 1  
    29   24   25 1  
    30   27   26 1  
    31   26   28 1  
    32   28   29 am 
    33   29   30 2  
    34    1   31 1  
    35    2   32 1  
    36    2   33 1  
    37    4   34 1  
    38    4   35 1  
    39    6   36 1  
    40    6   37 1  
    41    7   38 1  
    42    8   39 1  
    43    8   40 1  
    44    8   41 1  
    45    9   42 1  
    46    9   43 1  
    47    9   44 1  
    48   11   45 1  
    49   11   46 1  
    50   12   47 1  
    51   12   48 1  
    52   15   49 1  
    53   15   50 1  
    54   15   51 1  
    55   16   52 1  
    56   17   53 1  
    57   19   54 1  
    58   19   55 1  
    59   20   56 1  
    60   20   57 1  
    61   23   58 1  
    62   24   59 1  
    63   25   60 1  
    64   25   61 1  
    65   26   62 1  
    66   26   63 1  
    67   27   64 1  
    68   27   65 1  
    69   28   66 1  
    70   29   67 1  
@<TRIPOS>SUBSTRUCTURE
     1 5TW         1

