### 
### Created by X-TOOL on Mon Sep 10 21:13:24 2018
### 

@<TRIPOS>MOLECULE
5cxz_ligand
   48    50     1     0     0
SMALL
GAST_HUCK


@<TRIPOS>ATOM
      1 C10         1.3320   -1.0590   15.9100 C.ar      1 55U         0.0242
      2 C15         6.1890    0.2840   15.9420 C.ar      1 55U        -0.0301
      3 C17         3.8600    0.0190   15.3700 C.ar      1 55U         0.0570
      4 C20         1.9370    1.9620   12.4530 C.3       1 55U         0.0352
      5 C21         1.0710    3.1470   12.8640 C.3       1 55U         0.0081
      6 C22         1.4150    3.9130   14.1380 C.3       1 55U        -0.0335
      7 C01        -5.1160   -2.5000   15.8430 C.3       1 55U         0.0160
      8 N02        -3.9960   -2.9140   16.6790 N.pl3     1 55U        -0.3128
      9 C03        -4.2960   -3.6070   17.9260 C.3       1 55U         0.0160
     10 C04        -2.6270   -2.4610   16.3900 C.ar      1 55U         0.0437
     11 C05        -2.3450   -1.4840   15.4070 C.ar      1 55U        -0.0403
     12 C06        -1.0280   -0.9970   15.2730 C.ar      1 55U        -0.0617
     13 C07         0.0180   -1.4990   16.0920 C.ar      1 55U        -0.0185
     14 C08        -0.2580   -2.5180   17.0100 C.ar      1 55U        -0.0617
     15 C09        -1.5670   -3.0010   17.1430 C.ar      1 55U        -0.0403
     16 C11         2.4310   -1.3460   16.7550 C.ar      1 55U        -0.0321
     17 C12         3.6890   -0.8530   16.4390 C.ar      1 55U         0.0479
     18 N13         4.7640   -1.1240   17.2530 N.ar      1 55U        -0.2958
     19 C14         6.0090   -0.5740   17.0260 C.ar      1 55U         0.0107
     20 C16         5.1250    0.5640   15.1170 C.ar      1 55U        -0.0278
     21 C18         2.7290    0.3650   14.6160 C.ar      1 55U         0.1310
     22 N19         2.6640    1.2690   13.4920 N.pl3     1 55U        -0.2993
     23 N23         1.1420    5.3510   14.0970 N.4       1 55U         0.2186
     24 N24         1.5170   -0.1870   14.8800 N.ar      1 55U        -0.2834
     25 H1          7.1598    0.7268   15.7510 H         1 55U         0.0680
     26 H2          2.6752    2.3311   11.7258 H         1 55U         0.0529
     27 H3          1.2788    1.2271   11.9665 H         1 55U         0.0529
     28 H4          0.0448    2.7693   12.9832 H         1 55U         0.0337
     29 H5          1.1017    3.8703   12.0358 H         1 55U         0.0337
     30 H6          2.4881    3.7765   14.3372 H         1 55U         0.0814
     31 H7          0.8308    3.4797   14.9632 H         1 55U         0.0814
     32 H8         -6.0452   -2.9456   16.2279 H         1 55U         0.0480
     33 H9         -4.9474   -2.8387   14.8101 H         1 55U         0.0480
     34 H10        -5.2007   -1.4034   15.8602 H         1 55U         0.0480
     35 H11        -3.3571   -3.8538   18.4433 H         1 55U         0.0480
     36 H12        -4.8484   -4.5328   17.7073 H         1 55U         0.0480
     37 H13        -4.9087   -2.9574   18.5683 H         1 55U         0.0480
     38 H14        -3.1337   -1.1129   14.7625 H         1 55U         0.0527
     39 H15        -0.8119   -0.2312   14.5368 H         1 55U         0.0610
     40 H16         0.5386   -2.9330   17.6169 H         1 55U         0.0610
     41 H17        -1.7674   -3.8068   17.8399 H         1 55U         0.0527
     42 H18         2.2903   -1.9484   17.6452 H         1 55U         0.0554
     43 H19         6.8386   -0.8067   17.6838 H         1 55U         0.0887
     44 H20         5.2671    1.2139   14.2612 H         1 55U         0.0805
     45 H21         3.6376    1.5805   13.3656 H         1 55U         0.1868
     46 H22         1.4002    5.7672   14.9780 H         1 55U         0.1994
     47 H23         0.1596    5.5019   13.9292 H         1 55U         0.1994
     48 H24         1.6783    5.7738   13.3556 H         1 55U         0.1994
@<TRIPOS>BOND
     1    1   13 1  
     2   16    1 ar 
     3    1   24 ar 
     4    2   19 ar 
     5   20    2 ar 
     6    3   17 ar 
     7    3   20 ar 
     8   21    3 ar 
     9    4    5 1  
    10   22    4 1  
    11    5    6 1  
    12    6   23 1  
    13    8    7 1  
    14    8    9 1  
    15   10    8 1  
    16   11   10 ar 
    17   15   10 ar 
    18   12   11 ar 
    19   13   12 ar 
    20   13   14 ar 
    21   14   15 ar 
    22   17   16 ar 
    23   17   18 ar 
    24   18   19 ar 
    25   21   22 1  
    26   21   24 ar 
    27    2   25 1  
    28    4   26 1  
    29    4   27 1  
    30    5   28 1  
    31    5   29 1  
    32    6   30 1  
    33    6   31 1  
    34    7   32 1  
    35    7   33 1  
    36    7   34 1  
    37    9   35 1  
    38    9   36 1  
    39    9   37 1  
    40   11   38 1  
    41   12   39 1  
    42   14   40 1  
    43   15   41 1  
    44   16   42 1  
    45   19   43 1  
    46   20   44 1  
    47   22   45 1  
    48   23   46 1  
    49   23   47 1  
    50   23   48 1  
@<TRIPOS>SUBSTRUCTURE
     1 55U         1

