### 
### Created by X-TOOL on Mon Sep 10 21:13:22 2018
### 

@<TRIPOS>MOLECULE
5cy3_ligand
   38    41     1     0     0
SMALL
GAST_HUCK


@<TRIPOS>ATOM
      1 N1         -9.0280  -16.5720  -17.2420 N.pl3     1 55Y        -0.2056
      2 N3         -1.5780  -10.4810  -17.3720 N.2       1 55Y        -0.2245
      3 C4         -7.0410  -13.7070  -16.4250 C.ar      1 55Y        -0.0452
      4 C5         -7.7530  -12.6120  -16.3240 C.ar      1 55Y        -0.0821
      5 C6         -7.1310  -11.3670  -15.9900 C.ar      1 55Y        -0.0886
      6 C7         -5.3960  -10.0090  -15.4450 C.2       1 55Y         0.1551
      7 C8         -5.7400  -11.3110  -15.7710 C.ar      1 55Y         0.1243
      8 C10        -8.9440  -15.2600  -17.0190 C.2       1 55Y         0.0639
      9 C13        -1.4540  -12.5980  -16.5350 C.3       1 55Y         0.1824
     10 C15        -1.2090  -10.4620  -16.0580 C.2       1 55Y         0.3085
     11 O1         -1.0540   -9.5200  -15.4080 O.2       1 55Y        -0.3558
     12 C14        -1.7280  -11.7570  -17.8180 C.2       1 55Y         0.0626
     13 O2         -1.1170  -11.6810  -15.5790 O.3       1 55Y        -0.2392
     14 C1         -2.7840  -13.3230  -16.1170 C.3       1 55Y         0.1282
     15 C          -2.4740  -14.1880  -14.9580 C.3       1 55Y        -0.0280
     16 O          -3.6540  -12.3250  -15.8000 O.3       1 55Y        -0.3063
     17 C2         -4.9900  -12.4820  -15.9370 C.ar      1 55Y         0.1254
     18 S          -6.7450   -8.9980  -15.4720 S.3       1 55Y         0.0271
     19 N          -7.7030  -10.2040  -15.8560 N.2       1 55Y        -0.5404
     20 C3         -5.6110  -13.6230  -16.2370 C.ar      1 55Y        -0.0310
     21 C9         -7.6460  -14.9860  -16.6990 C.2       1 55Y        -0.0014
     22 C12        -7.0820  -16.2210  -16.7730 C.2       1 55Y         0.0060
     23 N2         -7.9420  -17.1580  -17.1160 N.2       1 55Y        -0.2135
     24 C11       -10.2570  -17.2830  -17.6360 C.3       1 55Y         0.0615
     25 H1         -8.8228  -12.6492  -16.4949 H         1 55Y         0.0474
     26 H2         -4.3860   -9.6814  -15.2029 H         1 55Y         0.2820
     27 H3         -9.7595  -14.5409  -17.0808 H         1 55Y         0.1041
     28 H4         -0.6468  -13.3281  -16.6941 H         1 55Y         0.0993
     29 H5         -1.9770  -12.1038  -18.8198 H         1 55Y         0.1344
     30 H6         -3.1843  -13.9311  -16.9416 H         1 55Y         0.0718
     31 H7         -3.3862  -14.7128  -14.6378 H         1 55Y         0.0262
     32 H8         -2.0967  -13.5701  -14.1298 H         1 55Y         0.0262
     33 H9         -1.7087  -14.9244  -15.2443 H         1 55Y         0.0262
     34 H10        -5.0187  -14.5246  -16.3442 H         1 55Y         0.0494
     35 H11        -6.0298  -16.4151  -16.5700 H         1 55Y         0.0675
     36 H12       -10.0392  -18.3550  -17.7521 H         1 55Y         0.0607
     37 H13       -10.6249  -16.8782  -18.5903 H         1 55Y         0.0607
     38 H14       -11.0243  -17.1468  -16.8597 H         1 55Y         0.0607
@<TRIPOS>BOND
     1    8    1 1  
     2    1   23 1  
     3    1   24 1  
     4   10    2 1  
     5   12    2 2  
     6    4    3 ar 
     7    3   20 ar 
     8    3   21 1  
     9    5    4 ar 
    10    7    5 ar 
    11    5   19 2  
    12    7    6 2  
    13    6   18 1  
    14   17    7 ar 
    15   21    8 2  
    16    9   12 1  
    17    9   13 1  
    18   14    9 1  
    19   10   11 2  
    20   13   10 1  
    21   14   15 1  
    22   16   14 1  
    23   16   17 1  
    24   17   20 ar 
    25   18   19 1  
    26   21   22 1  
    27   22   23 2  
    28    4   25 1  
    29    6   26 1  
    30    8   27 1  
    31    9   28 1  
    32   12   29 1  
    33   14   30 1  
    34   15   31 1  
    35   15   32 1  
    36   15   33 1  
    37   20   34 1  
    38   22   35 1  
    39   24   36 1  
    40   24   37 1  
    41   24   38 1  
@<TRIPOS>SUBSTRUCTURE
     1 55Y         1

