### 
### Created by X-TOOL on Mon Sep 10 21:13:26 2018
### 

@<TRIPOS>MOLECULE
5cy9_ligand
   43    45     1     0     0
SMALL
GAST_HUCK


@<TRIPOS>ATOM
      1 CAW        -8.8750   24.3160   -6.4940 C.3       1 E0A        -0.0652
      2 CAV        -8.5290   22.9580   -6.9770 C.3       1 E0A        -0.0544
      3 CAS        -7.0850   22.8260   -6.5660 C.3       1 E0A        -0.0316
      4 CAR        -6.7720   21.3800   -6.8980 C.3       1 E0A         0.0902
      5 SAQ        -4.9900   21.1780   -6.6360 S.o2      1 E0A         0.0603
      6 OAT        -4.6470   19.7790   -7.0960 O.2       1 E0A        -0.1496
      7 OAU        -4.2640   22.2350   -7.4580 O.2       1 E0A        -0.1496
      8 NAP        -4.6160   21.3760   -5.0860 N.am      1 E0A        -0.1931
      9 CAC        -5.3110   20.7300   -4.0890 C.ar      1 E0A         0.0648
     10 CAB        -5.7320   19.3870   -4.1700 C.ar      1 E0A        -0.0596
     11 CAA        -6.4260   18.8120   -3.0860 C.ar      1 E0A        -0.0611
     12 CAF        -6.6670   19.5480   -1.9610 C.ar      1 E0A         0.0584
     13 CAE        -6.2490   20.8070   -1.8830 C.ar      1 E0A         0.0088
     14 CAD        -5.5910   21.4500   -2.8860 C.ar      1 E0A         0.0032
     15 CAG        -5.2070   22.7860   -2.5980 C.ar      1 E0A        -0.0530
     16 CAH        -5.5560   23.3570   -1.3600 C.ar      1 E0A        -0.0578
     17 CAI        -6.2300   22.5980   -0.3880 C.ar      1 E0A        -0.0470
     18 CAJ        -6.5930   21.3320   -0.6690 C.ar      1 E0A         0.0487
     19 CAL        -7.2400   20.3560    0.0030 C.2       1 E0A         0.2227
     20 OAM        -7.8020   20.4080    1.1210 O.2       1 E0A        -0.3789
     21 NAK        -7.3090   19.2660   -0.7980 N.am      1 E0A        -0.2329
     22 CAN        -7.9650   18.0500   -0.3940 C.3       1 E0A         0.0481
     23 CAO        -9.3640   18.0790   -0.9780 C.3       1 E0A        -0.0402
     24 H1         -9.9247   24.5357   -6.7385 H         1 E0A         0.0230
     25 H2         -8.2226   25.0557   -6.9810 H         1 E0A         0.0230
     26 H3         -8.7346   24.3644   -5.4041 H         1 E0A         0.0230
     27 H4         -8.6403   22.8837   -8.0688 H         1 E0A         0.0263
     28 H5         -9.1523   22.1924   -6.4919 H         1 E0A         0.0263
     29 H6         -6.9596   23.0217   -5.4909 H         1 E0A         0.0281
     30 H7         -6.4452   23.5118   -7.1407 H         1 E0A         0.0281
     31 H8         -7.0307   21.1642   -7.9451 H         1 E0A         0.0524
     32 H9         -7.3341   20.7058   -6.2350 H         1 E0A         0.0524
     33 H10        -3.8604   21.9830   -4.8398 H         1 E0A         0.2171
     34 H11        -5.5238   18.8015   -5.0582 H         1 E0A         0.0386
     35 H12        -6.7685   17.7852   -3.1454 H         1 E0A         0.0445
     36 H13        -4.6487   23.3624   -3.3268 H         1 E0A         0.0677
     37 H14        -5.3029   24.3908   -1.1544 H         1 E0A         0.0592
     38 H15        -6.4560   23.0285    0.5808 H         1 E0A         0.0678
     39 H16        -8.0160   17.9961    0.7035 H         1 E0A         0.0576
     40 H17        -7.4142   17.1790   -0.7787 H         1 E0A         0.0576
     41 H18        -9.9003   17.1626   -0.6906 H         1 E0A         0.0253
     42 H19        -9.3024   18.1391   -2.0746 H         1 E0A         0.0253
     43 H20        -9.9042   18.9562   -0.5924 H         1 E0A         0.0253
@<TRIPOS>BOND
     1    1    2 1  
     2    2    3 1  
     3    3    4 1  
     4    4    5 1  
     5    5    6 2  
     6    5    7 2  
     7    5    8 am 
     8    8    9 1  
     9    9   10 ar 
    10    9   14 ar 
    11   10   11 ar 
    12   11   12 ar 
    13   12   13 ar 
    14   12   21 1  
    15   13   14 ar 
    16   13   18 ar 
    17   14   15 ar 
    18   15   16 ar 
    19   16   17 ar 
    20   17   18 ar 
    21   18   19 1  
    22   19   20 2  
    23   19   21 am 
    24   21   22 1  
    25   22   23 1  
    26    1   24 1  
    27    1   25 1  
    28    1   26 1  
    29    2   27 1  
    30    2   28 1  
    31    3   29 1  
    32    3   30 1  
    33    4   31 1  
    34    4   32 1  
    35    8   33 1  
    36   10   34 1  
    37   11   35 1  
    38   15   36 1  
    39   16   37 1  
    40   17   38 1  
    41   22   39 1  
    42   22   40 1  
    43   23   41 1  
    44   23   42 1  
    45   23   43 1  
@<TRIPOS>SUBSTRUCTURE
     1 E0A         1

