### 
### Created by X-TOOL on Mon Sep 10 21:13:25 2018
### 

@<TRIPOS>MOLECULE
5cyi_ligand
   54    57     1     0     0
SMALL
GAST_HUCK


@<TRIPOS>ATOM
      1 C4          5.9130   41.7830   47.7410 C.ar      1 55S        -0.0369
      2 C14         1.6370   46.1440   53.9050 C.3       1 55S        -0.0527
      3 C5          6.3110   42.3450   48.9570 C.ar      1 55S         0.0633
      4 C6          7.8590   44.0730   49.9210 C.ar      1 55S         0.1766
      5 C11         4.8560   46.1260   51.7890 C.3       1 55S         0.0791
      6 C7          9.4660   45.2760   50.9330 C.ar      1 55S         0.0900
      7 C8         10.4420   46.7330   52.1720 C.2       1 55S         0.1089
      8 C9          8.5330   45.9960   51.6580 C.ar      1 55S         0.1541
      9 C10         7.1990   45.6690   51.4470 C.ar      1 55S         0.1974
     10 C12         3.9810   46.4140   52.9730 C.3       1 55S        -0.0123
     11 C13         2.5510   45.9350   52.6960 C.3       1 55S        -0.0477
     12 N1          9.1760   44.2910   50.0760 N.ar      1 55S        -0.2816
     13 N2         10.6670   45.7460   51.2890 N.2       1 55S        -0.2902
     14 C3          4.7270   41.0750   47.6590 C.ar      1 55S        -0.0469
     15 N3          9.1590   46.8890   52.4300 N.pl3     1 55S        -0.2448
     16 O1          2.3240   39.1970   49.8850 O.2       1 55S        -0.1708
     17 S           2.4270   39.9970   48.6930 S.o2      1 55S        -0.0083
     18 O           2.3800   39.3340   47.4160 O.2       1 55S        -0.1708
     19 C1          1.1510   41.2390   48.7380 C.3       1 55S         0.0666
     20 C          -0.0290   40.9730   49.6310 C.3       1 55S        -0.0455
     21 C2          3.9310   40.9280   48.7840 C.ar      1 55S         0.0763
     22 C19         4.3180   41.4790   49.9950 C.ar      1 55S        -0.0469
     23 C18         5.4990   42.1850   50.0860 C.ar      1 55S        -0.0369
     24 N           7.5410   43.0990   49.0590 N.pl3     1 55S        -0.2509
     25 N4          6.8770   44.7260   50.5720 N.ar      1 55S        -0.2391
     26 O2          6.2350   46.3860   52.1350 O.3       1 55S        -0.2928
     27 C17         4.5320   45.7720   54.2440 C.3       1 55S        -0.0477
     28 C16         3.6120   46.0000   55.4340 C.3       1 55S        -0.0527
     29 C15         2.2080   45.4880   55.1440 C.3       1 55S        -0.0530
     30 H1          6.5343   41.9019   46.8607 H         1 55S         0.0534
     31 H2          0.6512   45.7061   53.6893 H         1 55S         0.0265
     32 H3          1.5267   47.2229   54.0890 H         1 55S         0.0265
     33 H4          4.5607   46.7718   50.9490 H         1 55S         0.0627
     34 H5          4.7436   45.0712   51.4978 H         1 55S         0.0627
     35 H6         11.2294   47.3352   52.6229 H         1 55S         0.1396
     36 H7          3.9571   47.5032   53.1252 H         1 55S         0.0327
     37 H8          2.1462   46.4980   51.8421 H         1 55S         0.0269
     38 H9          2.5761   44.8632   52.4498 H         1 55S         0.0269
     39 H10         4.4209   40.6360   46.7163 H         1 55S         0.0605
     40 H11         8.7303   47.5568   53.0866 H         1 55S         0.2354
     41 H12         0.7706   41.3613   47.7131 H         1 55S         0.0500
     42 H13         1.6145   42.1791   49.0718 H         1 55S         0.0500
     43 H14        -0.7359   41.8131   49.5644 H         1 55S         0.0245
     44 H15         0.3147   40.8645   50.6703 H         1 55S         0.0245
     45 H16        -0.5291   40.0468   49.3116 H         1 55S         0.0245
     46 H17         3.6921   41.3550   50.8713 H         1 55S         0.0605
     47 H18         5.7992   42.6170   51.0338 H         1 55S         0.0534
     48 H19         8.2716   42.8534   48.3757 H         1 55S         0.2150
     49 H20         5.5168   46.2089   54.4660 H         1 55S         0.0269
     50 H21         4.6397   44.6898   54.0789 H         1 55S         0.0269
     51 H22         3.5643   47.0774   55.6507 H         1 55S         0.0265
     52 H23         4.0156   45.4677   56.3079 H         1 55S         0.0265
     53 H24         2.2467   44.3996   54.9895 H         1 55S         0.0265
     54 H25         1.5583   45.7136   56.0025 H         1 55S         0.0265
@<TRIPOS>BOND
     1    1    3 ar 
     2   14    1 ar 
     3   11    2 1  
     4    2   29 1  
     5    3   23 ar 
     6    3   24 1  
     7    4   12 ar 
     8   24    4 1  
     9    4   25 ar 
    10    5   10 1  
    11   26    5 1  
    12    6    8 ar 
    13   12    6 ar 
    14    6   13 1  
    15   13    7 2  
    16   15    7 1  
    17    9    8 ar 
    18    8   15 1  
    19   25    9 ar 
    20    9   26 1  
    21   10   11 1  
    22   10   27 1  
    23   21   14 ar 
    24   17   16 2  
    25   17   18 2  
    26   17   19 1  
    27   17   21 1  
    28   19   20 1  
    29   21   22 ar 
    30   22   23 ar 
    31   27   28 1  
    32   28   29 1  
    33    1   30 1  
    34    2   31 1  
    35    2   32 1  
    36    5   33 1  
    37    5   34 1  
    38    7   35 1  
    39   10   36 1  
    40   11   37 1  
    41   11   38 1  
    42   14   39 1  
    43   15   40 1  
    44   19   41 1  
    45   19   42 1  
    46   20   43 1  
    47   20   44 1  
    48   20   45 1  
    49   22   46 1  
    50   23   47 1  
    51   24   48 1  
    52   27   49 1  
    53   27   50 1  
    54   28   51 1  
    55   28   52 1  
    56   29   53 1  
    57   29   54 1  
@<TRIPOS>SUBSTRUCTURE
     1 55S         1

