### 
### Created by X-TOOL on Mon Sep 10 21:13:28 2018
### 

@<TRIPOS>MOLECULE
5czb_ligand
   63    67     1     0     0
SMALL
GAST_HUCK


@<TRIPOS>ATOM
      1 C1        -26.1150  -23.0580   16.8450 C.ar      1 55W        -0.0583
      2 C2        -26.6050  -22.5790   18.0490 C.ar      1 55W        -0.0246
      3 C3        -26.9620  -23.4460   15.8340 C.ar      1 55W        -0.0256
      4 C4        -27.9610  -22.5160   18.2470 C.ar      1 55W        -0.0583
      5 C5        -28.3250  -23.3740   16.0520 C.ar      1 55W         0.1062
      6 C6        -28.8340  -22.8960   17.2460 C.ar      1 55W        -0.0256
      7 C8        -29.0940  -23.6850   13.7150 C.2       1 55W         0.0748
      8 C12       -30.5680  -24.1680   11.7010 C.2       1 55W         0.0422
      9 O14       -29.7720  -23.9430   10.8350 O.co2     1 55W        -0.5718
     10 C15       -25.7240  -22.2300   19.1590 C.2       1 55W         0.0118
     11 C16       -24.3930  -22.5240   19.2930 C.2       1 55W        -0.0425
     12 C17       -24.0670  -22.0590   20.5430 C.2       1 55W         0.1385
     13 C21       -22.8720  -21.5220   22.4820 C.2       1 55W         0.0031
     14 C23       -25.1780  -21.0280   22.2980 C.2       1 55W         0.2170
     15 O28       -34.9980  -25.0290   15.0350 O.3       1 55W        -0.2423
     16 O29       -32.9700  -25.5150   16.5740 O.2       1 55W        -0.5065
     17 C30       -36.1040  -24.3700   15.6790 C.3       1 55W         0.0803
     18 C31       -33.6360  -20.2290   16.5660 C.ar      1 55W        -0.0456
     19 C32       -33.2220  -21.1760   17.4990 C.ar      1 55W        -0.0582
     20 C33       -33.9920  -20.6440   15.2870 C.ar      1 55W        -0.0504
     21 C34       -33.1670  -22.5270   17.1570 C.ar      1 55W        -0.0439
     22 C35       -33.9450  -22.0080   14.9260 C.ar      1 55W        -0.0213
     23 C36       -33.5240  -22.9700   15.8720 C.ar      1 55W         0.0868
     24 C37       -34.3850  -22.3400   13.5060 C.3       1 55W        -0.0271
     25 C38       -33.6850  -18.7580   16.9350 C.3       1 55W        -0.0293
     26 P27       -33.4800  -24.7650   15.4330 P.3       1 55W         0.2605
     27 N26       -32.3900  -24.8280   14.2140 N.am      1 55W        -0.2078
     28 C10       -31.0660  -24.4130   14.2000 C.2       1 55W         0.1210
     29 C9        -30.2630  -24.1030   13.1440 C.2       1 55W         0.0493
     30 O13       -31.8400  -24.3810   11.3730 O.co2     1 55W        -0.5718
     31 N11       -30.4290  -24.1500   15.3400 N.2       1 55W        -0.2110
     32 N7        -29.2800  -23.7480   15.0400 N.pl3     1 55W        -0.1783
     33 N19       -26.1490  -21.6780   20.3100 N.2       1 55W        -0.2150
     34 N18       -25.1690  -21.5830   21.0820 N.pl3     1 55W        -0.1186
     35 N24       -26.3720  -20.5290   22.7760 N.pl3     1 55W        -0.2845
     36 C22       -24.0260  -21.0020   23.0190 C.2       1 55W         0.0215
     37 C25       -21.6030  -21.4820   23.2810 C.3       1 55W        -0.0156
     38 N20       -22.8700  -22.0540   21.2120 N.2       1 55W        -0.3020
     39 H1        -25.0434  -23.1282   16.6972 H         1 55W         0.0606
     40 H2        -26.5699  -23.8003   14.8875 H         1 55W         0.0584
     41 H3        -28.3504  -22.1654   19.1960 H         1 55W         0.0606
     42 H4        -29.9051  -22.8205   17.3945 H         1 55W         0.0584
     43 H5        -28.1915  -23.3647   13.1964 H         1 55W         0.1051
     44 H6        -23.7413  -23.0151   18.5718 H         1 55W         0.0177
     45 H7        -37.0476  -24.7160   15.2320 H         1 55W         0.0602
     46 H8        -36.0116  -23.2822   15.5442 H         1 55W         0.0602
     47 H9        -36.0979  -24.6082   16.7529 H         1 55W         0.0602
     48 H10       -32.9407  -20.8613   18.4974 H         1 55W         0.0521
     49 H11       -34.3103  -19.9091   14.5565 H         1 55W         0.0513
     50 H12       -32.8425  -23.2496   17.8970 H         1 55W         0.0666
     51 H13       -34.6609  -21.4133   12.9815 H         1 55W         0.0410
     52 H14       -35.2531  -23.0147   13.5394 H         1 55W         0.0410
     53 H15       -33.5588  -22.8316   12.9716 H         1 55W         0.0410
     54 H16       -33.3698  -18.6318   17.9813 H         1 55W         0.0405
     55 H17       -34.7122  -18.3836   16.8138 H         1 55W         0.0405
     56 H18       -33.0085  -18.1923   16.2775 H         1 55W         0.0405
     57 H19       -32.7357  -25.2330   13.3323 H         1 55W         0.2118
     58 H20       -26.4121  -20.0952   23.7093 H         1 55W         0.1908
     59 H21       -27.2234  -20.5902   22.1996 H         1 55W         0.1908
     60 H22       -24.0171  -20.5706   24.0189 H         1 55W         0.0394
     61 H23       -20.7887  -21.9383   22.6990 H         1 55W         0.0448
     62 H24       -21.7419  -22.0412   24.2180 H         1 55W         0.0448
     63 H25       -21.3478  -20.4372   23.5118 H         1 55W         0.0448
@<TRIPOS>BOND
     1    1    2 ar 
     2    3    1 ar 
     3    4    2 ar 
     4    2   10 1  
     5    5    3 ar 
     6    6    4 ar 
     7    5    6 ar 
     8   32    5 1  
     9   29    7 2  
    10    7   32 1  
    11    8    9 ar 
    12   29    8 1  
    13    8   30 ar 
    14   10   11 1  
    15   10   33 2  
    16   11   12 2  
    17   12   34 1  
    18   12   38 1  
    19   13   36 1  
    20   13   37 1  
    21   38   13 2  
    22   34   14 1  
    23   14   35 1  
    24   14   36 2  
    25   15   17 1  
    26   26   15 1  
    27   26   16 2  
    28   19   18 ar 
    29   20   18 ar 
    30   18   25 1  
    31   21   19 ar 
    32   22   20 ar 
    33   23   21 ar 
    34   23   22 ar 
    35   22   24 1  
    36   26   23 1  
    37   27   26 am 
    38   28   27 am 
    39   28   29 1  
    40   28   31 2  
    41   31   32 1  
    42   33   34 1  
    43    1   39 1  
    44    3   40 1  
    45    4   41 1  
    46    6   42 1  
    47    7   43 1  
    48   11   44 1  
    49   17   45 1  
    50   17   46 1  
    51   17   47 1  
    52   19   48 1  
    53   20   49 1  
    54   21   50 1  
    55   24   51 1  
    56   24   52 1  
    57   24   53 1  
    58   25   54 1  
    59   25   55 1  
    60   25   56 1  
    61   27   57 1  
    62   35   58 1  
    63   35   59 1  
    64   36   60 1  
    65   37   61 1  
    66   37   62 1  
    67   37   63 1  
@<TRIPOS>SUBSTRUCTURE
     1 55W         1

