### 
### Created by X-TOOL on Mon Sep 10 21:13:26 2018
### 

@<TRIPOS>MOLECULE
5d0c_ligand
   54    57     1     0     0
SMALL
GAST_HUCK


@<TRIPOS>ATOM
      1 CAV         5.7320    9.6900   -3.3530 C.3       1 E0B        -0.0282
      2 CAW         5.3800    9.3220   -4.7760 C.3       1 E0B         0.0342
      3 NAX         5.6360    7.8510   -4.8640 N.am      1 E0B        -0.2734
      4 CBA         6.6850    7.3030   -5.5250 C.2       1 E0B         0.1753
      5 OBC         7.4830    7.9560   -6.2000 O.2       1 E0B        -0.3972
      6 CBB         6.8790    5.7800   -5.5290 C.3       1 E0B         0.0258
      7 CAY         4.6830    7.1160   -3.9770 C.3       1 E0B         0.0342
      8 CAZ         4.9690    7.4350   -2.5360 C.3       1 E0B        -0.0282
      9 CAU         4.7910    8.9530   -2.3650 C.3       1 E0B        -0.0205
     10 CAT         5.0840    9.2910   -0.9070 C.3       1 E0B         0.0293
     11 NAS         4.7260   10.7110   -0.6010 N.am      1 E0B        -0.2489
     12 SAP         5.5540   11.4180    0.6080 S.o2      1 E0B         0.0612
     13 OAQ         6.9970   11.4350    0.2520 O.2       1 E0B        -0.1525
     14 OAR         4.8760   12.7330    0.8270 O.2       1 E0B        -0.1525
     15 CAC         5.3260   10.4150    2.0710 C.ar      1 E0B         0.0997
     16 CAB         6.4460    9.8570    2.6480 C.ar      1 E0B        -0.0504
     17 CAA         6.3820    9.0490    3.7760 C.ar      1 E0B        -0.0397
     18 CAF         5.1680    8.8020    4.3320 C.ar      1 E0B         0.0799
     19 CAE         4.0720    9.3320    3.7420 C.ar      1 E0B         0.0245
     20 CAD         4.0710   10.1320    2.6560 C.ar      1 E0B         0.0006
     21 CAG         2.8140   10.6060    2.1780 C.ar      1 E0B        -0.0508
     22 CAH         1.6530   10.2160    2.8730 C.ar      1 E0B        -0.0548
     23 CAI         1.7620    9.3670    3.9870 C.ar      1 E0B        -0.0428
     24 CAJ         2.9790    8.9420    4.4270 C.ar      1 E0B         0.0577
     25 CAL         3.4430    8.1110    5.4250 C.2       1 E0B         0.2348
     26 OAM         2.7780    7.4110    6.2210 O.2       1 E0B        -0.3691
     27 NAK         4.7670    8.0390    5.3640 N.am      1 E0B        -0.2187
     28 CAN         5.6450    7.2480    6.2370 C.3       1 E0B         0.0527
     29 CAO         5.8530    5.8370    5.6520 C.3       1 E0B        -0.0394
     30 H1          5.6210   10.7762   -3.2198 H         1 E0B         0.0288
     31 H2          6.7733    9.4000   -3.1489 H         1 E0B         0.0288
     32 H3          6.0166    9.8694   -5.4867 H         1 E0B         0.0522
     33 H4          4.3230    9.5445   -4.9838 H         1 E0B         0.0522
     34 H5          7.7764    5.5262   -6.1124 H         1 E0B         0.0467
     35 H6          5.9993    5.2995   -5.9819 H         1 E0B         0.0467
     36 H7          7.0004    5.4231   -4.4956 H         1 E0B         0.0467
     37 H8          4.7954    6.0339   -4.1394 H         1 E0B         0.0522
     38 H9          3.6534    7.4182   -4.2192 H         1 E0B         0.0522
     39 H10         5.9994    7.1451   -2.2826 H         1 E0B         0.0288
     40 H11         4.2657    6.8968   -1.8836 H         1 E0B         0.0288
     41 H12         3.7520    9.2322   -2.5943 H         1 E0B         0.0318
     42 H13         6.1560    9.1407   -0.7118 H         1 E0B         0.0478
     43 H14         4.4962    8.6246   -0.2586 H         1 E0B         0.0478
     44 H15         4.0173   11.1984   -1.1111 H         1 E0B         0.1670
     45 H16         7.4148   10.0564    2.2043 H         1 E0B         0.0592
     46 H17         7.2829    8.6242    4.2038 H         1 E0B         0.0485
     47 H18         2.7539   11.2472    1.3060 H         1 E0B         0.0665
     48 H19         0.6803   10.5690    2.5501 H         1 E0B         0.0632
     49 H20         0.8649    9.0456    4.5037 H         1 E0B         0.0680
     50 H21         5.1856    7.1635    7.2329 H         1 E0B         0.0585
     51 H22         6.6190    7.7516    6.3240 H         1 E0B         0.0585
     52 H23         6.5116    5.2581    6.3162 H         1 E0B         0.0254
     53 H24         6.3147    5.9170    4.6568 H         1 E0B         0.0254
     54 H25         4.8812    5.3289    5.5656 H         1 E0B         0.0254
@<TRIPOS>BOND
     1    1    2 1  
     2    1    9 1  
     3    2    3 1  
     4    3    4 am 
     5    3    7 1  
     6    4    5 2  
     7    4    6 1  
     8    7    8 1  
     9    8    9 1  
    10    9   10 1  
    11   10   11 1  
    12   11   12 am 
    13   12   13 2  
    14   12   14 2  
    15   12   15 1  
    16   15   16 ar 
    17   15   20 ar 
    18   16   17 ar 
    19   17   18 ar 
    20   18   19 ar 
    21   18   27 1  
    22   19   20 ar 
    23   19   24 ar 
    24   20   21 ar 
    25   21   22 ar 
    26   22   23 ar 
    27   23   24 ar 
    28   24   25 1  
    29   25   26 2  
    30   25   27 am 
    31   27   28 1  
    32   28   29 1  
    33    1   30 1  
    34    1   31 1  
    35    2   32 1  
    36    2   33 1  
    37    6   34 1  
    38    6   35 1  
    39    6   36 1  
    40    7   37 1  
    41    7   38 1  
    42    8   39 1  
    43    8   40 1  
    44    9   41 1  
    45   10   42 1  
    46   10   43 1  
    47   11   44 1  
    48   16   45 1  
    49   17   46 1  
    50   21   47 1  
    51   22   48 1  
    52   23   49 1  
    53   28   50 1  
    54   28   51 1  
    55   29   52 1  
    56   29   53 1  
    57   29   54 1  
@<TRIPOS>SUBSTRUCTURE
     1 E0B         1

