### 
### Created by X-TOOL on Mon Sep 10 21:13:28 2018
### 

@<TRIPOS>MOLECULE
5d0j_ligand
   85    85     1     0     0
SMALL
GAST_HUCK


@<TRIPOS>ATOM
      1 N          10.5610   20.3260    9.2640 N.4       1 GLU         0.2377
      2 CA         10.9540   20.4800    7.8660 C.3       1 GLU         0.0621
      3 C           9.8640   21.2120    7.0580 C.2       1 GLU         0.2262
      4 O           9.9950   22.4050    6.7620 O.2       1 GLU        -0.3907
      5 CB         11.2660   19.1120    7.2530 C.3       1 GLU        -0.0040
      6 N           8.7900   20.5060    6.7120 N.am      1 GLY        -0.2637
      7 CA          7.6420   21.1550    6.1080 C.3       1 GLY         0.1202
      8 C           6.3470   21.1350    6.9190 C.2       1 GLY         0.2009
      9 O           5.2810   20.8860    6.3680 O.2       1 GLY        -0.3947
     10 N           6.4300   21.4070    8.2190 N.am      1 TYR        -0.2624
     11 CA          5.2490   21.4600    9.0850 C.3       1 TYR         0.1390
     12 C           5.0390   22.8530    9.6940 C.2       1 TYR         0.2057
     13 O           6.0000   23.5260   10.0500 O.2       1 TYR        -0.3942
     14 CB          5.3580   20.4280   10.2170 C.3       1 TYR         0.0163
     15 CG          5.6130   19.0060    9.7640 C.ar      1 TYR        -0.0493
     16 CD1         4.5790   18.2110    9.2780 C.ar      1 TYR        -0.0685
     17 CD2         6.8870   18.4560    9.8320 C.ar      1 TYR        -0.0685
     18 CE1         4.8100   16.9100    8.8670 C.ar      1 TYR        -0.0398
     19 CE2         7.1290   17.1560    9.4210 C.ar      1 TYR        -0.0398
     20 CZ          6.0900   16.3860    8.9430 C.ar      1 TYR         0.0805
     21 OH          6.3420   15.0930    8.5390 O.3       1 TYR        -0.3376
     22 N           3.7830   23.2710    9.8410 N.am      1 ASP        -0.2639
     23 CA          3.4770   24.6030   10.3630 C.3       1 ASP         0.1282
     24 C           3.7110   24.6940   11.8630 C.2       1 ASP         0.2037
     25 O           3.6990   25.7850   12.4300 O.2       1 ASP        -0.3944
     26 CB          2.0350   24.9970   10.0460 C.3       1 ASP        -0.0244
     27 N           3.9180   23.5450   12.5020 N.am      1 ASN        -0.2616
     28 CA          4.2380   23.5000   13.9260 C.3       1 ASN         0.1476
     29 C           5.6990   23.0820   14.1870 C.2       1 ASN         0.2062
     30 O           6.0110   22.4770   15.2140 O.2       1 ASN        -0.3942
     31 CB          3.2650   22.5670   14.6580 C.3       1 ASN         0.0773
     32 CG          3.1780   21.1820   14.0310 C.2       1 ASN         0.1780
     33 OD1         3.3650   21.0110   12.8240 O.2       1 ASN        -0.3970
     34 ND2         2.8830   20.1850   14.8560 N.am      1 ASN        -0.3007
     35 N           6.5730   23.4110   13.2330 N.am      1 SER        -0.2639
     36 CA          8.0360   23.3090   13.3630 C.3       1 SER         0.1282
     37 C           8.5720   21.9590   13.8280 C.2       1 SER         0.2031
     38 O           9.4370   21.9050   14.6990 O.2       1 SER        -0.3944
     39 CB          8.5520   24.3910   14.3210 C.3       1 SER        -0.0244
     40 N           8.0870   20.8720   13.2410 N.am      1 CYS        -0.2698
     41 CA          8.5150   19.5450   13.6740 C.3       1 CYS         0.0916
     42 C           9.2420   18.7920   12.5590 C.2       1 CYS         0.0598
     43 O          10.1320   17.9790   12.8210 O.co2     1 CYS        -0.5666
     44 CB          7.3120   18.7340   14.1750 C.3       1 CYS        -0.0300
     45 OXT         8.9530   18.9820   11.3750 O.co2     1 CYS        -0.5666
     46 H1         11.2904   19.8455    9.7671 H         1 GLU         0.2015
     47 H2          9.7082   19.7911    9.3164 H         1 GLU         0.2015
     48 H3         10.4131   21.2351    9.6736 H         1 GLU         0.2015
     49 H4         11.8694   21.0890    7.8318 H         1 GLU         0.1095
     50 H5         11.5605   19.2402    6.2010 H         1 GLU         0.0310
     51 H6         10.3724   18.4730    7.3083 H         1 GLU         0.0310
     52 H7         12.0893   18.6400    7.8093 H         1 GLU         0.0310
     53 H8          8.7744   19.5187    6.8700 H         1 GLY         0.1882
     54 H9          7.4431   20.6576    5.1473 H         1 GLY         0.0763
     55 H10         7.9082   22.2070    5.9281 H         1 GLY         0.0763
     56 H11         7.3298   21.5813    8.6190 H         1 TYR         0.1885
     57 H12         4.3687   21.2155    8.4725 H         1 TYR         0.0821
     58 H13         4.4151   20.4418   10.7833 H         1 TYR         0.0453
     59 H14         6.1857   20.7299   10.8755 H         1 TYR         0.0453
     60 H15         3.5759   18.6179    9.2205 H         1 TYR         0.0530
     61 H16         7.7059   19.0550   10.2135 H         1 TYR         0.0530
     62 H17         3.9945   16.3048    8.4880 H         1 TYR         0.0525
     63 H18         8.1309   16.7456    9.4748 H         1 TYR         0.0525
     64 H19         5.5345   14.6936    8.2374 H         1 TYR         0.2458
     65 H20         3.0321   22.6606    9.5889 H         1 ASP         0.1883
     66 H21         4.1478   25.3207    9.8682 H         1 ASP         0.0797
     67 H22         1.8321   26.0003   10.4488 H         1 ASP         0.0277
     68 H23         1.3473   24.2716   10.5051 H         1 ASP         0.0277
     69 H24         1.8876   25.0028    8.9559 H         1 ASP         0.0277
     70 H25         3.8525   22.6874   11.9919 H         1 ASN         0.1885
     71 H26         4.1056   24.5143   14.3305 H         1 ASN         0.0826
     72 H27         2.2638   23.0223   14.6408 H         1 ASN         0.0551
     73 H28         3.6008   22.4589   15.6999 H         1 ASN         0.0551
     74 H29         2.8111   19.2510   14.5060 H         1 ASN         0.1814
     75 H30         2.7327   20.3678   15.8276 H         1 ASN         0.1814
     76 H31         6.2073   23.7516   12.3668 H         1 SER         0.1883
     77 H32         8.4588   23.4994   12.3655 H         1 SER         0.0797
     78 H33         9.6450   24.3084   14.4129 H         1 SER         0.0277
     79 H34         8.0897   24.2559   15.3099 H         1 SER         0.0277
     80 H35         8.2913   25.3843   13.9269 H         1 SER         0.0277
     81 H36         7.4243   20.9624   12.4976 H         1 CYS         0.1875
     82 H37         9.2172   19.6712   14.5112 H         1 CYS         0.0723
     83 H38         7.6499   17.7380   14.4973 H         1 CYS         0.0270
     84 H39         6.5780   18.6271   13.3628 H         1 CYS         0.0270
     85 H40         6.8461   19.2556   15.0240 H         1 CYS         0.0270
@<TRIPOS>BOND
     1    1    2 1  
     2    2    3 1  
     3    2    5 1  
     4    3    4 2  
     5    3    6 am 
     6    6    7 1  
     7    7    8 1  
     8    8    9 2  
     9    8   10 am 
    10   10   11 1  
    11   11   12 1  
    12   11   14 1  
    13   12   13 2  
    14   12   22 am 
    15   14   15 1  
    16   15   16 ar 
    17   15   17 ar 
    18   16   18 ar 
    19   17   19 ar 
    20   18   20 ar 
    21   19   20 ar 
    22   20   21 1  
    23   22   23 1  
    24   23   24 1  
    25   23   26 1  
    26   24   25 2  
    27   24   27 am 
    28   27   28 1  
    29   28   29 1  
    30   28   31 1  
    31   29   30 2  
    32   29   35 am 
    33   31   32 1  
    34   32   33 2  
    35   32   34 am 
    36   35   36 1  
    37   36   37 1  
    38   36   39 1  
    39   37   38 2  
    40   37   40 am 
    41   40   41 1  
    42   41   42 1  
    43   41   44 1  
    44   42   43 ar 
    45   42   45 ar 
    46    1   46 1  
    47    1   47 1  
    48    1   48 1  
    49    2   49 1  
    50    5   50 1  
    51    5   51 1  
    52    5   52 1  
    53    6   53 1  
    54    7   54 1  
    55    7   55 1  
    56   10   56 1  
    57   11   57 1  
    58   14   58 1  
    59   14   59 1  
    60   16   60 1  
    61   17   61 1  
    62   18   62 1  
    63   19   63 1  
    64   21   64 1  
    65   22   65 1  
    66   23   66 1  
    67   26   67 1  
    68   26   68 1  
    69   26   69 1  
    70   27   70 1  
    71   28   71 1  
    72   31   72 1  
    73   31   73 1  
    74   34   74 1  
    75   34   75 1  
    76   35   76 1  
    77   36   77 1  
    78   39   78 1  
    79   39   79 1  
    80   39   80 1  
    81   40   81 1  
    82   41   82 1  
    83   44   83 1  
    84   44   84 1  
    85   44   85 1  
@<TRIPOS>SUBSTRUCTURE
     1 GLU         1

