### 
### Created by X-TOOL on Mon Sep 10 21:13:25 2018
### 

@<TRIPOS>MOLECULE
5d12_ligand
   43    46     1     0     0
SMALL
GAST_HUCK


@<TRIPOS>ATOM
      1 CAH        -6.2560   38.6040   -2.8200 C.ar      1 G97        -0.0465
      2 CAE        -4.9260   39.0210   -2.9230 C.ar      1 G97        -0.0569
      3 CAD        -4.6030   40.3760   -2.9750 C.ar      1 G97        -0.0580
      4 CAF        -5.6190   41.3150   -2.9260 C.ar      1 G97        -0.0569
      5 CAI        -6.9490   40.9060   -2.8290 C.ar      1 G97        -0.0465
      6 CAW        -7.2690   39.5490   -2.7820 C.ar      1 G97         0.0141
      7 C2         -8.6930   39.1450   -2.6790 C.ar      1 G97         0.0921
      8 N1         -9.1650   38.0410   -3.2950 N.ar      1 G97        -0.2553
      9 N3         -9.5050   39.9310   -1.9620 N.ar      1 G97        -0.3009
     10 C4        -10.8000   39.6430   -1.8280 C.ar      1 G97         0.0255
     11 CAM       -11.5430   40.4960   -1.0650 C.ar      1 G97        -0.0253
     12 CAU       -12.8870   40.2810   -0.8760 C.ar      1 G97         0.0730
     13 NAQ       -13.4080   41.2190   -0.0610 N.am      1 G97        -0.2295
     14 CAT       -14.5610   41.1690    0.6050 C.2       1 G97         0.2258
     15 OAB       -15.4210   40.3030    0.4420 O.2       1 G97        -0.3745
     16 CAC       -14.7160   42.2550    1.6230 C.2       1 G97         0.0150
     17 CAA       -15.7780   42.3690    2.4070 C.2       1 G97        -0.0781
     18 CAK       -13.5100   39.1540   -1.4480 C.ar      1 G97        -0.0283
     19 CAL       -12.7740   38.2450   -2.2470 C.ar      1 G97        -0.0465
     20 C5        -11.4050   38.4490   -2.4620 C.ar      1 G97         0.0455
     21 C6        -10.4500   37.6150   -3.2620 C.ar      1 G97         0.1561
     22 NAR       -10.7550   36.4910   -3.9710 N.pl3     1 G97        -0.2206
     23 CAV        -9.7650   35.8530   -4.6650 C.2       1 G97         0.1818
     24 CAJ        -8.4490   36.2020   -4.9720 C.2       1 G97        -0.0280
     25 CAG        -7.8640   35.1340   -5.5970 C.2       1 G97        -0.0243
     26 NAS        -8.8090   34.1750   -5.6600 N.2       1 G97        -0.2412
     27 NAN       -10.0180   34.5900   -5.0730 N.pl3     1 G97        -0.2006
     28 H1         -6.4938   37.5476   -2.7701 H         1 G97         0.0660
     29 H2         -4.1351   38.2808   -2.9630 H         1 G97         0.0628
     30 H3         -3.5686   40.6907   -3.0529 H         1 G97         0.0649
     31 H4         -5.3802   42.3717   -2.9631 H         1 G97         0.0628
     32 H5         -7.7389   41.6473   -2.7899 H         1 G97         0.0660
     33 H6        -11.0675   41.3533   -0.6025 H         1 G97         0.0447
     34 H7        -12.8655   42.0506    0.0581 H         1 G97         0.2290
     35 H8        -13.9166   42.9876    1.7244 H         1 G97         0.0698
     36 H9        -15.8360   43.1808    3.1305 H         1 G97         0.0686
     37 H10       -16.5928   41.6509    2.3278 H         1 G97         0.0686
     38 H11       -14.5658   38.9804   -1.2744 H         1 G97         0.0570
     39 H12       -13.2707   37.3907   -2.6925 H         1 G97         0.0666
     40 H13       -11.7186   36.1274   -3.9835 H         1 G97         0.2279
     41 H14        -7.9717   37.1560   -4.7529 H         1 G97         0.0216
     42 H15        -6.8421   35.0717   -5.9682 H         1 G97         0.0607
     43 H16       -10.8930   34.0553   -4.9766 H         1 G97         0.2521
@<TRIPOS>BOND
     1    1    2 ar 
     2    1    6 ar 
     3    2    3 ar 
     4    3    4 ar 
     5    4    5 ar 
     6    5    6 ar 
     7    6    7 1  
     8    7    8 ar 
     9    7    9 ar 
    10    8   21 ar 
    11    9   10 ar 
    12   10   11 ar 
    13   10   20 ar 
    14   11   12 ar 
    15   12   13 1  
    16   12   18 ar 
    17   13   14 am 
    18   14   15 2  
    19   14   16 1  
    20   16   17 2  
    21   18   19 ar 
    22   19   20 ar 
    23   20   21 ar 
    24   21   22 1  
    25   22   23 1  
    26   23   24 2  
    27   23   27 1  
    28   24   25 1  
    29   25   26 2  
    30   26   27 1  
    31    1   28 1  
    32    2   29 1  
    33    3   30 1  
    34    4   31 1  
    35    5   32 1  
    36   11   33 1  
    37   13   34 1  
    38   16   35 1  
    39   17   36 1  
    40   17   37 1  
    41   18   38 1  
    42   19   39 1  
    43   22   40 1  
    44   24   41 1  
    45   25   42 1  
    46   27   43 1  
@<TRIPOS>SUBSTRUCTURE
     1 G97         1

