### 
### Created by X-TOOL on Mon Sep 10 21:13:24 2018
### 

@<TRIPOS>MOLECULE
5d1j_ligand
   50    52     1     0     0
SMALL
GAST_HUCK


@<TRIPOS>ATOM
      1 C18        23.9390   29.1800   28.8420 C.2       1 56H         0.2163
      2 C15        25.2090   31.2470   28.7490 C.2       1 56H         0.1991
      3 C19        22.6230   28.6020   29.2630 C.3       1 56H         0.0658
      4 C21        22.7640   27.8860   30.6180 C.3       1 56H         0.0080
      5 C22        22.0960   27.6270   28.1940 C.3       1 56H         0.0080
      6 C23        21.4780   27.1700   30.9830 C.3       1 56H        -0.0313
      7 C24        20.8160   26.9570   28.6570 C.3       1 56H        -0.0313
      8 C11        27.8580   27.2070   25.9850 C.3       1 56H        -0.1014
      9 C12        28.5530   26.9030   23.6180 C.3       1 56H        -0.1014
     10 C1         29.4640   31.1860   25.2200 C.2       1 56H         0.2397
     11 O2         28.4640   30.2590   25.2360 O.3       1 56H        -0.2039
     12 N3         30.6310   30.6670   24.7990 N.2       1 56H        -0.2326
     13 C4         29.0790   32.5230   25.6990 C.3       1 56H         0.1172
     14 C5         29.0150   29.0800   24.7860 C.2       1 56H         0.1067
     15 C6         30.3550   29.3460   24.5310 C.2       1 56H         0.0512
     16 S7         28.9800   32.4080   27.4920 S.3       1 56H        -0.0674
     17 C8         28.0390   27.9160   24.6420 C.3       1 56H        -0.0417
     18 C9         27.2990   32.1840   27.9420 C.2       1 56H         0.0746
     19 C10        26.6820   28.4330   24.1550 C.3       1 56H        -0.1014
     20 S13        26.6150   30.5810   27.9730 S.3       1 56H         0.0298
     21 C14        26.4130   33.0580   28.4670 C.2       1 56H        -0.0407
     22 N16        25.2340   32.5380   28.9460 N.2       1 56H        -0.3377
     23 N17        24.1060   30.5060   29.1100 N.am      1 56H        -0.1988
     24 O20        24.7930   28.5090   28.2700 O.2       1 56H        -0.3808
     25 N25        21.1160   26.2300   29.9110 N.4       1 56H         0.2272
     26 H1         21.8996   29.4232   29.3742 H         1 56H         0.0549
     27 H2         22.9973   28.6280   31.3958 H         1 56H         0.0344
     28 H3         23.5806   27.1517   30.5550 H         1 56H         0.0344
     29 H4         22.8572   26.8563   28.0028 H         1 56H         0.0344
     30 H5         21.8962   28.1832   27.2663 H         1 56H         0.0344
     31 H6         20.6719   27.9074   31.1110 H         1 56H         0.0815
     32 H7         21.6211   26.6163   31.9226 H         1 56H         0.0815
     33 H8         20.4640   26.2514   27.8901 H         1 56H         0.0815
     34 H9         20.0411   27.7159   28.8403 H         1 56H         0.0815
     35 H10        27.1528   26.3712   25.8662 H         1 56H         0.0072
     36 H11        27.4622   27.9184   26.7248 H         1 56H         0.0072
     37 H12        28.8288   26.8214   26.3299 H         1 56H         0.0072
     38 H13        28.6878   27.4003   22.6461 H         1 56H         0.0072
     39 H14        27.8246   26.0854   23.5136 H         1 56H         0.0072
     40 H15        29.5163   26.4948   23.9577 H         1 56H         0.0072
     41 H16        28.1029   32.8107   25.2814 H         1 56H         0.0761
     42 H17        29.8363   33.2652   25.4062 H         1 56H         0.0761
     43 H18        31.0796   28.6166   24.1721 H         1 56H         0.1151
     44 H19        26.2887   29.1654   24.8754 H         1 56H         0.0072
     45 H20        25.9791   27.5915   24.0670 H         1 56H         0.0072
     46 H21        26.8036   28.9135   23.1730 H         1 56H         0.0072
     47 H22        26.6230   34.1257   28.5089 H         1 56H         0.0355
     48 H23        23.3742   30.9748   29.6048 H         1 56H         0.2384
     49 H24        20.3026   25.7051   30.1918 H         1 56H         0.2013
     50 H25        21.8850   25.5982   29.7513 H         1 56H         0.2013
@<TRIPOS>BOND
     1    1    3 1  
     2   23    1 am 
     3    1   24 2  
     4   20    2 1  
     5    2   22 2  
     6    2   23 1  
     7    3    4 1  
     8    3    5 1  
     9    4    6 1  
    10    5    7 1  
    11    6   25 1  
    12    7   25 1  
    13   17    8 1  
    14   17    9 1  
    15   10   11 1  
    16   10   12 2  
    17   13   10 1  
    18   11   14 1  
    19   12   15 1  
    20   16   13 1  
    21   15   14 2  
    22   14   17 1  
    23   18   16 1  
    24   17   19 1  
    25   18   20 1  
    26   18   21 2  
    27   21   22 1  
    28    3   26 1  
    29    4   27 1  
    30    4   28 1  
    31    5   29 1  
    32    5   30 1  
    33    6   31 1  
    34    6   32 1  
    35    7   33 1  
    36    7   34 1  
    37    8   35 1  
    38    8   36 1  
    39    8   37 1  
    40    9   38 1  
    41    9   39 1  
    42    9   40 1  
    43   13   41 1  
    44   13   42 1  
    45   15   43 1  
    46   19   44 1  
    47   19   45 1  
    48   19   46 1  
    49   21   47 1  
    50   23   48 1  
    51   25   49 1  
    52   25   50 1  
@<TRIPOS>SUBSTRUCTURE
     1 56H         1

