### 
### Created by X-TOOL on Mon Sep 10 21:13:29 2018
### 

@<TRIPOS>MOLECULE
5d1n_ligand
   46    48     1     0     0
SMALL
GAST_HUCK


@<TRIPOS>ATOM
      1 N          -4.9410   -8.4950   18.3620 N.4       1 SAH         0.2327
      2 CA         -5.7700   -8.3150   19.5490 C.3       1 SAH         0.0291
      3 CB         -5.8110   -6.8490   19.9660 C.3       1 SAH         0.0114
      4 CG         -5.9430   -5.8500   18.8230 C.3       1 SAH         0.0005
      5 SD         -6.0690   -4.1440   19.4170 S.3       1 SAH        -0.1578
      6 C          -7.1820   -8.8530   19.3380 C.2       1 SAH         0.0844
      7 O          -7.5790   -9.1710   18.2170 O.co2     1 SAH        -0.5643
      8 OXT        -7.9570   -8.9830   20.2860 O.co2     1 SAH        -0.5643
      9 C5'        -4.5860   -3.6750   18.4870 C.3       1 SAH         0.0226
     10 C4'        -3.4560   -3.2410   19.4120 C.3       1 SAH         0.0995
     11 O4'        -2.2690   -2.9490   18.6970 O.3       1 SAH        -0.3383
     12 C3'        -3.8080   -1.9770   20.1830 C.3       1 SAH         0.1132
     13 O3'        -4.1630   -2.2990   21.5070 O.3       1 SAH        -0.3864
     14 C2'        -2.5420   -1.1430   20.1640 C.3       1 SAH         0.1385
     15 O2'        -2.1200   -0.8530   21.4760 O.3       1 SAH        -0.3836
     16 C1'        -1.5200   -2.0260   19.4650 C.3       1 SAH         0.2009
     17 N9         -0.5840   -1.2150   18.6640 N.pl3     1 SAH        -0.1919
     18 C8         -0.8660   -0.0500   17.9990 C.2       1 SAH         0.1123
     19 N7          0.2670    0.3860   17.4000 N.2       1 SAH        -0.2958
     20 C5          1.2670   -0.4790   17.6780 C.ar      1 SAH         0.1045
     21 C6          2.6100   -0.5090   17.3200 C.ar      1 SAH         0.1298
     22 N6          3.1210    0.4530   16.5560 N.pl3     1 SAH        -0.3152
     23 N1          3.4120   -1.5410   17.7610 N.ar      1 SAH        -0.2698
     24 C2          2.8760   -2.5370   18.5530 C.ar      1 SAH         0.0533
     25 N3          1.5400   -2.5010   18.9020 N.ar      1 SAH        -0.2714
     26 C4          0.7470   -1.4890   18.4750 C.ar      1 SAH         0.1613
     27 H1         -4.0184   -8.1291   18.5379 H         1 SAH         0.2010
     28 H2         -5.3549   -8.0035   17.5854 H         1 SAH         0.2010
     29 H3         -4.8769   -9.4767   18.1427 H         1 SAH         0.2010
     30 H4         -5.3111   -8.8879   20.3683 H         1 SAH         0.1024
     31 H5         -4.8808   -6.6238   20.5083 H         1 SAH         0.0347
     32 H6         -6.6703   -6.7110   20.6387 H         1 SAH         0.0347
     33 H7         -6.8468   -6.0912   18.2442 H         1 SAH         0.0379
     34 H8         -5.0586   -5.9348   18.1744 H         1 SAH         0.0379
     35 H9         -4.8358   -2.8417   17.8138 H         1 SAH         0.0402
     36 H10        -4.2495   -4.5378   17.8934 H         1 SAH         0.0402
     37 H11        -3.2610   -4.0580   20.1223 H         1 SAH         0.0632
     38 H12        -4.6359   -1.4403   19.6967 H         1 SAH         0.0647
     39 H13        -3.4323   -2.7310   21.9335 H         1 SAH         0.2100
     40 H14        -2.6977   -0.2063   19.6088 H         1 SAH         0.0676
     41 H15        -1.9477   -1.6646   21.9387 H         1 SAH         0.2101
     42 H16        -0.9351   -2.5770   20.2162 H         1 SAH         0.0996
     43 H17        -1.8370    0.4415   17.9593 H         1 SAH         0.1349
     44 H18         4.1165    0.4275   16.2928 H         1 SAH         0.1820
     45 H19         2.5211    1.2233   16.2278 H         1 SAH         0.1820
     46 H20         3.5047   -3.3485   18.9014 H         1 SAH         0.0996
@<TRIPOS>BOND
     1    1    2 1  
     2    2    3 1  
     3    2    6 1  
     4    3    4 1  
     5    4    5 1  
     6    5    9 1  
     7    6    7 ar 
     8    6    8 ar 
     9    9   10 1  
    10   10   11 1  
    11   10   12 1  
    12   11   16 1  
    13   12   13 1  
    14   12   14 1  
    15   14   15 1  
    16   14   16 1  
    17   16   17 1  
    18   17   18 1  
    19   17   26 1  
    20   18   19 2  
    21   19   20 1  
    22   20   21 ar 
    23   20   26 ar 
    24   21   22 1  
    25   21   23 ar 
    26   23   24 ar 
    27   24   25 ar 
    28   25   26 ar 
    29    1   27 1  
    30    1   28 1  
    31    1   29 1  
    32    2   30 1  
    33    3   31 1  
    34    3   32 1  
    35    4   33 1  
    36    4   34 1  
    37    9   35 1  
    38    9   36 1  
    39   10   37 1  
    40   12   38 1  
    41   13   39 1  
    42   14   40 1  
    43   15   41 1  
    44   16   42 1  
    45   18   43 1  
    46   22   44 1  
    47   22   45 1  
    48   24   46 1  
@<TRIPOS>SUBSTRUCTURE
     1 SAH         1

