### 
### Created by X-TOOL on Mon Sep 10 21:13:23 2018
### 

@<TRIPOS>MOLECULE
5d1r_ligand
   47    46     1     0     0
SMALL
GAST_HUCK


@<TRIPOS>ATOM
      1 C10       -17.2650   -6.5170  160.5190 C.3       1 56S        -0.0348
      2 C15       -15.8020   -4.0550  164.3030 C.3       1 56S         0.0820
      3 C17       -16.7730   -3.0880  164.9120 C.3       1 56S        -0.0345
      4 C01       -19.1310  -13.3800  153.0960 C.3       1 56S        -0.0653
      5 C02       -18.3820  -12.7630  154.2080 C.3       1 56S        -0.0559
      6 C03       -17.2420  -11.8630  153.8750 C.3       1 56S        -0.0533
      7 C04       -16.4970  -11.3760  155.0640 C.3       1 56S        -0.0531
      8 C05       -15.8560  -10.0190  154.9900 C.3       1 56S        -0.0531
      9 C06       -16.4550   -8.9620  155.9160 C.3       1 56S        -0.0531
     10 C07       -16.3770   -9.0290  157.4410 C.3       1 56S        -0.0531
     11 C08       -16.9110   -7.8010  158.2080 C.3       1 56S        -0.0529
     12 C09       -17.0670   -7.8330  159.7390 C.3       1 56S        -0.0509
     13 C11       -17.3770   -6.5200  162.0380 C.3       1 56S         0.0487
     14 C12       -17.2240   -5.2560  162.8590 C.2       1 56S         0.2340
     15 O13       -18.0500   -4.3550  162.8100 O.2       1 56S        -0.3704
     16 O14       -16.3860   -5.2590  163.9430 O.3       1 56S        -0.2741
     17 C16       -14.5680   -4.2480  165.1300 C.3       1 56S        -0.0345
     18 H1        -18.1909   -6.0622  160.1371 H         1 56S         0.0291
     19 H2        -16.4096   -5.8723  160.2689 H         1 56S         0.0291
     20 H3        -15.4664   -3.5899  163.3643 H         1 56S         0.0644
     21 H4        -16.2482   -2.1574  165.1739 H         1 56S         0.0258
     22 H5        -17.2105   -3.5300  165.8193 H         1 56S         0.0258
     23 H6        -17.5725   -2.8671  164.1895 H         1 56S         0.0258
     24 H7        -19.9352  -14.0116  153.5015 H         1 56S         0.0230
     25 H8        -18.4492  -13.9971  152.4925 H         1 56S         0.0230
     26 H9        -19.5670  -12.5912  152.4653 H         1 56S         0.0230
     27 H10       -17.9823  -13.5808  154.8255 H         1 56S         0.0263
     28 H11       -19.1001  -12.1750  154.7984 H         1 56S         0.0263
     29 H12       -17.6353  -10.9915  153.3311 H         1 56S         0.0265
     30 H13       -16.5425  -12.4135  153.2288 H         1 56S         0.0265
     31 H14       -15.6983  -12.1038  155.2698 H         1 56S         0.0265
     32 H15       -17.2031  -11.3582  155.9073 H         1 56S         0.0265
     33 H16       -15.9478   -9.6558  153.9558 H         1 56S         0.0265
     34 H17       -14.7922  -10.1314  155.2461 H         1 56S         0.0265
     35 H18       -17.5269   -8.9226  155.6722 H         1 56S         0.0265
     36 H19       -15.9794   -8.0114  155.6331 H         1 56S         0.0265
     37 H20       -15.3206   -9.1630  157.7169 H         1 56S         0.0265
     38 H21       -16.9554   -9.9057  157.7679 H         1 56S         0.0265
     39 H22       -17.9073   -7.5830  157.7960 H         1 56S         0.0265
     40 H23       -16.2296   -6.9682  157.9798 H         1 56S         0.0265
     41 H24       -17.9397   -8.4662  159.9566 H         1 56S         0.0267
     42 H25       -16.1600   -8.3079  160.1413 H         1 56S         0.0267
     43 H26       -16.6082   -7.2176  162.4016 H         1 56S         0.0518
     44 H27       -18.3748   -6.9195  162.2719 H         1 56S         0.0518
     45 H28       -13.9003   -4.9653  164.6304 H         1 56S         0.0258
     46 H29       -14.8474   -4.6359  166.1206 H         1 56S         0.0258
     47 H30       -14.0501   -3.2846  165.2462 H         1 56S         0.0258
@<TRIPOS>BOND
     1    1   12 1  
     2   13    1 1  
     3    2    3 1  
     4   16    2 1  
     5    2   17 1  
     6    5    4 1  
     7    6    5 1  
     8    7    6 1  
     9    8    7 1  
    10    9    8 1  
    11   10    9 1  
    12   11   10 1  
    13   12   11 1  
    14   14   13 1  
    15   14   15 2  
    16   14   16 1  
    17    1   18 1  
    18    1   19 1  
    19    2   20 1  
    20    3   21 1  
    21    3   22 1  
    22    3   23 1  
    23    4   24 1  
    24    4   25 1  
    25    4   26 1  
    26    5   27 1  
    27    5   28 1  
    28    6   29 1  
    29    6   30 1  
    30    7   31 1  
    31    7   32 1  
    32    8   33 1  
    33    8   34 1  
    34    9   35 1  
    35    9   36 1  
    36   10   37 1  
    37   10   38 1  
    38   11   39 1  
    39   11   40 1  
    40   12   41 1  
    41   12   42 1  
    42   13   43 1  
    43   13   44 1  
    44   17   45 1  
    45   17   46 1  
    46   17   47 1  
@<TRIPOS>SUBSTRUCTURE
     1 56S         1

