### 
### Created by X-TOOL on Mon Sep 10 21:13:24 2018
### 

@<TRIPOS>MOLECULE
5d1s_ligand
   34    34     1     0     0
SMALL
GAST_HUCK


@<TRIPOS>ATOM
      1 C1         11.7940   18.8150   26.5780 C.3       1 56Q         0.1279
      2 C2         12.5830   18.9060   27.8900 C.2       1 56Q         0.2205
      3 O5         14.2890   20.2710   28.9340 O.3       1 56Q        -0.2717
      4 N6         10.2970   18.8840   26.5350 N.am      1 56Q        -0.2162
      5 C10         9.2170   20.8300   27.8560 C.ar      1 56Q         0.0979
      6 C11         8.1740   20.3590   28.6740 C.ar      1 56Q        -0.0357
      7 C12         7.9830   20.9050   29.9490 C.ar      1 56Q        -0.0105
      8 C13         8.8350   21.9060   30.3910 C.ar      1 56Q         0.1329
      9 C14         9.8680   22.3810   29.5890 C.ar      1 56Q        -0.0331
     10 C15        10.0570   21.8410   28.3230 C.ar      1 56Q        -0.0440
     11 C18         9.5680   17.6180   26.6050 C.3       1 56Q         0.0210
     12 C28        12.3020   17.5590   25.8640 C.3       1 56Q        -0.0277
     13 N4         13.4320   19.9330   27.8980 N.am      1 56Q        -0.1627
     14 O3         12.5090   18.1110   28.8310 O.2       1 56Q        -0.3949
     15 S7          9.4640   20.2080   26.3860 S.o2      1 56Q         0.0692
     16 O8          8.1600   20.0470   25.7780 O.2       1 56Q        -0.1506
     17 O9         10.2030   21.1460   25.5830 O.2       1 56Q        -0.1506
     18 F16         8.6570   22.4370   31.6070 F         1 56Q        -0.1891
     19 C17         6.8690   20.4170   30.8580 C.3       1 56Q        -0.0303
     20 H1         12.1207   19.6837   25.9876 H         1 56Q         0.0752
     21 H2         14.7880   21.0423   28.6919 H         1 56Q         0.2490
     22 H3          7.5181   19.5732   28.3171 H         1 56Q         0.0565
     23 H4         10.5211   23.1674   29.9497 H         1 56Q         0.0586
     24 H5         10.8612   22.2071   27.6950 H         1 56Q         0.0568
     25 H6         10.2830   16.7884   26.7075 H         1 56Q         0.0444
     26 H7          8.9789   17.4828   25.6860 H         1 56Q         0.0444
     27 H8          8.8939   17.6306   27.4742 H         1 56Q         0.0444
     28 H9         13.4007   17.5308   25.9089 H         1 56Q         0.0273
     29 H10        11.9784   17.5785   24.8129 H         1 56Q         0.0273
     30 H11        11.8919   16.6655   26.3574 H         1 56Q         0.0273
     31 H12        13.4529   20.5122   27.0831 H         1 56Q         0.2217
     32 H13         6.2981   19.6277   30.3470 H         1 56Q         0.0383
     33 H14         6.1994   21.2555   31.1001 H         1 56Q         0.0383
     34 H15         7.3023   20.0142   31.7853 H         1 56Q         0.0383
@<TRIPOS>BOND
     1    1    2 1  
     2    4    1 1  
     3    1   12 1  
     4    2   13 am 
     5    2   14 2  
     6   13    3 1  
     7    4   11 1  
     8   15    4 am 
     9    5    6 ar 
    10    5   10 ar 
    11    5   15 1  
    12    6    7 ar 
    13    7    8 ar 
    14    7   19 1  
    15    8    9 ar 
    16    8   18 1  
    17    9   10 ar 
    18   15   16 2  
    19   15   17 2  
    20    1   20 1  
    21    3   21 1  
    22    6   22 1  
    23    9   23 1  
    24   10   24 1  
    25   11   25 1  
    26   11   26 1  
    27   11   27 1  
    28   12   28 1  
    29   12   29 1  
    30   12   30 1  
    31   13   31 1  
    32   19   32 1  
    33   19   33 1  
    34   19   34 1  
@<TRIPOS>SUBSTRUCTURE
     1 56Q         1

