### 
### Created by X-TOOL on Mon Sep 10 21:13:24 2018
### 

@<TRIPOS>MOLECULE
5d1t_ligand
   50    51     1     0     0
SMALL
GAST_HUCK


@<TRIPOS>ATOM
      1 C1         11.4710   18.8200   26.5280 C.3       1 56R         0.1303
      2 C2         12.2300   19.0300   27.8390 C.2       1 56R         0.2207
      3 C3          8.4850   16.5590   21.8970 C.3       1 56R        -0.0032
      4 O5         13.9000   20.3050   28.9490 O.3       1 56R        -0.2717
      5 N6          9.9800   18.8540   26.5370 N.am      1 56R        -0.2020
      6 C10         8.8960   20.7780   27.8540 C.ar      1 56R         0.0980
      7 C11         7.9220   20.3000   28.7340 C.ar      1 56R        -0.0357
      8 C12         7.7960   20.8600   30.0020 C.ar      1 56R        -0.0105
      9 C13         8.6400   21.8860   30.3850 C.ar      1 56R         0.1329
     10 C14         9.6130   22.3610   29.5100 C.ar      1 56R        -0.0331
     11 C15         9.7450   21.8070   28.2450 C.ar      1 56R        -0.0440
     12 C19         8.5080   17.0260   25.6620 C.ar      1 56R        -0.0309
     13 C20         7.2210   16.6090   25.9940 C.ar      1 56R        -0.0657
     14 C21         6.3420   16.1770   25.0030 C.ar      1 56R        -0.0750
     15 C22         6.7560   16.1590   23.6750 C.ar      1 56R        -0.0622
     16 C24         8.9190   17.0120   24.3320 C.ar      1 56R        -0.0526
     17 C23         8.0450   16.5760   23.3420 C.ar      1 56R        -0.0055
     18 C18         9.4400   17.5040   26.7540 C.3       1 56R         0.0645
     19 C28        12.0050   17.5030   25.9760 C.3       1 56R        -0.0275
     20 N4         13.1100   20.0350   27.8300 N.am      1 56R        -0.1627
     21 O3         12.0990   18.3120   28.8360 O.2       1 56R        -0.3949
     22 S7          9.0790   20.1510   26.3890 S.o2      1 56R         0.0711
     23 O8          7.7850   19.9280   25.7960 O.2       1 56R        -0.1504
     24 O9          9.7000   21.1750   25.6010 O.2       1 56R        -0.1504
     25 F16         8.5220   22.4430   31.6060 F         1 56R        -0.1891
     26 C17         6.7400   20.3570   30.9580 C.3       1 56R        -0.0303
     27 N5          7.4680   17.3120   21.1170 N.4       1 56R         0.2307
     28 H1         11.7789   19.6292   25.8494 H         1 56R         0.0754
     29 H2          8.5461   15.5224   21.5341 H         1 56R         0.0978
     30 H3          9.4687   17.0410   21.7972 H         1 56R         0.0978
     31 H4         14.4633   21.0478   28.7658 H         1 56R         0.2490
     32 H5          7.2648   19.4935   28.4295 H         1 56R         0.0565
     33 H6         10.2697   23.1665   29.8182 H         1 56R         0.0586
     34 H7         10.5056   22.1743   27.5655 H         1 56R         0.0568
     35 H8          6.9014   16.6207   27.0297 H         1 56R         0.0500
     36 H9          5.3403   15.8565   25.2655 H         1 56R         0.0582
     37 H10         6.0777   15.8213   22.8998 H         1 56R         0.0501
     38 H11         9.9180   17.3402   24.0686 H         1 56R         0.0496
     39 H12         8.8868   17.5024   27.7048 H         1 56R         0.0642
     40 H13        10.2838   16.8013   26.8194 H         1 56R         0.0642
     41 H14        13.1048   17.5199   25.9870 H         1 56R         0.0273
     42 H15        11.6507   17.3676   24.9435 H         1 56R         0.0273
     43 H16        11.6449   16.6712   26.5993 H         1 56R         0.0273
     44 H17        13.2041   20.6013   27.0112 H         1 56R         0.2217
     45 H18         6.1703   19.5457   30.4812 H         1 56R         0.0383
     46 H19         6.0583   21.1803   31.2176 H         1 56R         0.0383
     47 H20         7.2224   19.9786   31.8713 H         1 56R         0.0383
     48 H21         7.7302   17.3213   20.1438 H         1 56R         0.2008
     49 H22         7.4148   18.2585   21.4596 H         1 56R         0.2008
     50 H23         6.5693   16.8669   21.2186 H         1 56R         0.2008
@<TRIPOS>BOND
     1    1    2 1  
     2    5    1 1  
     3    1   19 1  
     4    2   20 am 
     5    2   21 2  
     6   17    3 1  
     7    3   27 1  
     8   20    4 1  
     9   18    5 1  
    10    5   22 am 
    11    6    7 ar 
    12    6   11 ar 
    13   22    6 1  
    14    7    8 ar 
    15    8    9 ar 
    16    8   26 1  
    17   10    9 ar 
    18    9   25 1  
    19   11   10 ar 
    20   13   12 ar 
    21   12   16 ar 
    22   12   18 1  
    23   14   13 ar 
    24   15   14 ar 
    25   15   17 ar 
    26   16   17 ar 
    27   22   23 2  
    28   22   24 2  
    29    1   28 1  
    30    3   29 1  
    31    3   30 1  
    32    4   31 1  
    33    7   32 1  
    34   10   33 1  
    35   11   34 1  
    36   13   35 1  
    37   14   36 1  
    38   15   37 1  
    39   16   38 1  
    40   18   39 1  
    41   18   40 1  
    42   19   41 1  
    43   19   42 1  
    44   19   43 1  
    45   20   44 1  
    46   26   45 1  
    47   26   46 1  
    48   26   47 1  
    49   27   48 1  
    50   27   49 1  
    51   27   50 1  
@<TRIPOS>SUBSTRUCTURE
     1 56R         1

