### 
### Created by X-TOOL on Mon Sep 10 21:13:24 2018
### 

@<TRIPOS>MOLECULE
5d1u_ligand
   40    40     1     0     0
SMALL
GAST_HUCK


@<TRIPOS>ATOM
      1 C1         11.8430   19.1530   26.6200 C.3       1 56P         0.1282
      2 C2         12.5380   19.1850   27.9720 C.2       1 56P         0.2206
      3 C20         9.0860   15.5470   25.6760 C.3       1 56P        -0.0638
      4 O5         14.3120   20.0030   29.2590 O.3       1 56P        -0.2717
      5 N6         10.3630   19.0300   26.5930 N.am      1 56P        -0.2131
      6 C10         9.1660   20.8480   27.9620 C.ar      1 56P         0.0979
      7 C11         8.1570   20.3560   28.7880 C.ar      1 56P        -0.0357
      8 C12         7.9990   20.8760   30.0620 C.ar      1 56P        -0.0105
      9 C13         8.8360   21.8760   30.5150 C.ar      1 56P         0.1329
     10 C14         9.8410   22.3750   29.7000 C.ar      1 56P        -0.0331
     11 C15        10.0100   21.8550   28.4260 C.ar      1 56P        -0.0440
     12 C19         9.3030   17.0450   25.4880 C.3       1 56P        -0.0385
     13 C18         9.9400   17.6290   26.7440 C.3       1 56P         0.0322
     14 C28        12.5230   18.0080   25.8620 C.3       1 56P        -0.0277
     15 N4         13.5520   20.0360   28.0920 N.am      1 56P        -0.1627
     16 O3         12.2610   18.4230   28.8880 O.2       1 56P        -0.3949
     17 S7          9.3860   20.2550   26.4840 S.o2      1 56P         0.0694
     18 O8          8.0860   19.9670   25.8980 O.2       1 56P        -0.1506
     19 O9          9.9840   21.3100   25.7040 O.2       1 56P        -0.1506
     20 F16         8.6690   22.3710   31.7550 F         1 56P        -0.1891
     21 C17         6.9110   20.3500   30.9600 C.3       1 56P        -0.0303
     22 H1         12.0767   20.0992   26.1100 H         1 56P         0.0752
     23 H2          8.6264   15.1265   24.7694 H         1 56P         0.0230
     24 H3          8.4215   15.3778   26.5361 H         1 56P         0.0230
     25 H4         10.0535   15.0563   25.8580 H         1 56P         0.0230
     26 H5         14.9966   20.6596   29.2084 H         1 56P         0.2490
     27 H6          7.4990   19.5701   28.4351 H         1 56P         0.0565
     28 H7         10.4902   23.1664   30.0568 H         1 56P         0.0586
     29 H8         10.8013   22.2330   27.7888 H         1 56P         0.0568
     30 H9          8.3354   17.5355   25.3059 H         1 56P         0.0278
     31 H10         9.9674   17.2139   24.6277 H         1 56P         0.0278
     32 H11         9.2081   17.5731   27.5633 H         1 56P         0.0480
     33 H12        10.8230   17.0247   26.9992 H         1 56P         0.0480
     34 H13        13.6146   18.1364   25.9061 H         1 56P         0.0273
     35 H14        12.1949   18.0174   24.8121 H         1 56P         0.0273
     36 H15        12.2478   17.0482   26.3236 H         1 56P         0.0273
     37 H16        13.7644   20.6849   27.3614 H         1 56P         0.2217
     38 H17         6.3497   19.5637   30.4340 H         1 56P         0.0383
     39 H18         6.2289   21.1701   31.2288 H         1 56P         0.0383
     40 H19         7.3595   19.9318   31.8732 H         1 56P         0.0383
@<TRIPOS>BOND
     1    1    2 1  
     2    5    1 1  
     3    1   14 1  
     4    2   15 am 
     5    2   16 2  
     6   12    3 1  
     7   15    4 1  
     8   13    5 1  
     9    5   17 am 
    10    6    7 ar 
    11    6   11 ar 
    12   17    6 1  
    13    7    8 ar 
    14    8    9 ar 
    15    8   21 1  
    16   10    9 ar 
    17    9   20 1  
    18   11   10 ar 
    19   12   13 1  
    20   17   18 2  
    21   17   19 2  
    22    1   22 1  
    23    3   23 1  
    24    3   24 1  
    25    3   25 1  
    26    4   26 1  
    27    7   27 1  
    28   10   28 1  
    29   11   29 1  
    30   12   30 1  
    31   12   31 1  
    32   13   32 1  
    33   13   33 1  
    34   14   34 1  
    35   14   35 1  
    36   14   36 1  
    37   15   37 1  
    38   21   38 1  
    39   21   39 1  
    40   21   40 1  
@<TRIPOS>SUBSTRUCTURE
     1 56P         1

