### 
### Created by X-TOOL on Mon Sep 10 21:13:23 2018
### 

@<TRIPOS>MOLECULE
5d1w_ligand
   49    48     1     0     0
SMALL
GAST_HUCK


@<TRIPOS>ATOM
      1 C1         44.2240  -38.3840   15.9140 C.2       1 PLM         0.0348
      2 O1         44.0300  -38.1860   17.1560 O.co2     1 PLM        -0.5690
      3 O2         43.7900  -39.4750   15.3980 O.co2     1 PLM        -0.5690
      4 C2         44.9660  -37.3400   15.0940 C.3       1 PLM         0.0002
      5 C3         44.2160  -36.2790   14.3470 C.3       1 PLM        -0.0414
      6 C4         45.0120  -35.4060   13.4410 C.3       1 PLM        -0.0516
      7 C5         44.7780  -35.5270   11.9790 C.3       1 PLM        -0.0530
      8 C6         45.2680  -34.4140   11.1260 C.3       1 PLM        -0.0531
      9 C7         44.5620  -34.1690    9.8330 C.3       1 PLM        -0.0531
     10 C8         45.2150  -33.2090    8.8990 C.3       1 PLM        -0.0531
     11 C9         44.4590  -32.0730    8.3050 C.3       1 PLM        -0.0531
     12 CA         45.2300  -31.0440    7.5480 C.3       1 PLM        -0.0531
     13 CB         44.7150  -29.6560    7.6540 C.3       1 PLM        -0.0531
     14 CC         45.3220  -28.5660    6.8310 C.3       1 PLM        -0.0531
     15 CD         44.5810  -27.2600    6.7560 C.3       1 PLM        -0.0531
     16 CE         45.0910  -26.0770    5.9740 C.3       1 PLM        -0.0533
     17 CF         44.2310  -24.8240    5.9230 C.3       1 PLM        -0.0559
     18 CG         44.2220  -23.9330    4.7020 C.3       1 PLM        -0.0653
     19 H1         45.5591  -37.8896   14.3482 H         1 PLM         0.0430
     20 H2         45.6417  -36.8179   15.7874 H         1 PLM         0.0430
     21 H3         43.7282  -35.6307   15.0898 H         1 PLM         0.0283
     22 H4         43.4494  -36.7799   13.7376 H         1 PLM         0.0283
     23 H5         46.0742  -35.6270   13.6224 H         1 PLM         0.0266
     24 H6         44.8013  -34.3635   13.7216 H         1 PLM         0.0266
     25 H7         43.6927  -35.6130   11.8221 H         1 PLM         0.0265
     26 H8         45.2719  -36.4490   11.6385 H         1 PLM         0.0265
     27 H9         46.3226  -34.6198   10.8908 H         1 PLM         0.0265
     28 H10        45.1981  -33.4901   11.7189 H         1 PLM         0.0265
     29 H11        43.5594  -33.7812   10.0662 H         1 PLM         0.0265
     30 H12        44.4701  -35.1337    9.3126 H         1 PLM         0.0265
     31 H13        45.5953  -33.8046    8.0560 H         1 PLM         0.0265
     32 H14        46.0605  -32.7676    9.4470 H         1 PLM         0.0265
     33 H15        43.9428  -31.5566    9.1277 H         1 PLM         0.0265
     34 H16        43.7153  -32.4988    7.6153 H         1 PLM         0.0265
     35 H17        45.2226  -31.3283    6.4854 H         1 PLM         0.0265
     36 H18        46.2643  -31.0515    7.9225 H         1 PLM         0.0265
     37 H19        44.8246  -29.3567    8.7068 H         1 PLM         0.0265
     38 H20        43.6472  -29.6933    7.3927 H         1 PLM         0.0265
     39 H21        45.4245  -28.9464    5.8040 H         1 PLM         0.0265
     40 H22        46.3190  -28.3560    7.2455 H         1 PLM         0.0265
     41 H23        44.4696  -26.9133    7.7940 H         1 PLM         0.0265
     42 H24        43.5905  -27.4956    6.3397 H         1 PLM         0.0265
     43 H25        45.2411  -26.4118    4.9370 H         1 PLM         0.0265
     44 H26        46.0591  -25.7904    6.4106 H         1 PLM         0.0265
     45 H27        44.5470  -24.1937    6.7673 H         1 PLM         0.0263
     46 H28        43.1924  -25.1514    6.0784 H         1 PLM         0.0263
     47 H29        43.5387  -23.0875    4.8701 H         1 PLM         0.0230
     48 H30        43.8831  -24.5104    3.8292 H         1 PLM         0.0230
     49 H31        45.2376  -23.5526    4.5181 H         1 PLM         0.0230
@<TRIPOS>BOND
     1    1    2 ar 
     2    1    3 ar 
     3    1    4 1  
     4    4    5 1  
     5    5    6 1  
     6    6    7 1  
     7    7    8 1  
     8    8    9 1  
     9    9   10 1  
    10   10   11 1  
    11   11   12 1  
    12   12   13 1  
    13   13   14 1  
    14   14   15 1  
    15   15   16 1  
    16   16   17 1  
    17   17   18 1  
    18    4   19 1  
    19    4   20 1  
    20    5   21 1  
    21    5   22 1  
    22    6   23 1  
    23    6   24 1  
    24    7   25 1  
    25    7   26 1  
    26    8   27 1  
    27    8   28 1  
    28    9   29 1  
    29    9   30 1  
    30   10   31 1  
    31   10   32 1  
    32   11   33 1  
    33   11   34 1  
    34   12   35 1  
    35   12   36 1  
    36   13   37 1  
    37   13   38 1  
    38   14   39 1  
    39   14   40 1  
    40   15   41 1  
    41   15   42 1  
    42   16   43 1  
    43   16   44 1  
    44   17   45 1  
    45   17   46 1  
    46   18   47 1  
    47   18   48 1  
    48   18   49 1  
@<TRIPOS>SUBSTRUCTURE
     1 PLM         1

