### 
### Created by X-TOOL on Mon Sep 10 21:13:25 2018
### 

@<TRIPOS>MOLECULE
5d21_ligand
   34    35     1     0     0
SMALL
GAST_HUCK


@<TRIPOS>ATOM
      1 O2          1.9990  -16.8250  -51.2290 O.3       1 56N        -0.3837
      2 O3          2.3080  -18.5370  -48.9210 O.3       1 56N        -0.3864
      3 O4          0.5350  -17.4880  -47.2860 O.3       1 56N        -0.3865
      4 O5         -1.1960  -16.5580  -49.5460 O.3       1 56N        -0.3369
      5 C1         -0.3180  -16.5630  -50.6520 C.3       1 56N         0.2096
      6 C2          1.0800  -16.8640  -50.1480 C.3       1 56N         0.1385
      7 C3          1.0500  -18.2250  -49.4860 C.3       1 56N         0.1145
      8 C4          0.0260  -18.2540  -48.3710 C.3       1 56N         0.1119
      9 C5         -1.3330  -17.7820  -48.8660 C.3       1 56N         0.1134
     10 C6         -2.3240  -17.6340  -47.7320 C.3       1 56N         0.0730
     11 O6         -3.5920  -17.2960  -48.2630 O.3       1 56N        -0.3924
     12 O1'        -0.3100  -15.3100  -51.2720 O.3       1 56N        -0.2851
     13 C1'        -1.3440  -15.1390  -52.2100 C.ar      1 56N         0.0945
     14 C2'        -2.2250  -16.1630  -52.5630 C.ar      1 56N        -0.0330
     15 C3'        -3.2210  -15.9190  -53.4980 C.ar      1 56N        -0.0706
     16 C4'        -3.3310  -14.6550  -54.0730 C.ar      1 56N        -0.0729
     17 C5'        -2.4550  -13.6420  -53.7180 C.ar      1 56N        -0.0706
     18 C6'        -1.4620  -13.8850  -52.7870 C.ar      1 56N        -0.0330
     19 H1          1.9858  -15.9608  -51.6234 H         1 56N         0.2101
     20 H2          2.5317  -17.8836  -48.2687 H         1 56N         0.2100
     21 H3         -0.0937  -17.4931  -46.5738 H         1 56N         0.2100
     22 H4         -0.6332  -17.3312  -51.3735 H         1 56N         0.0993
     23 H5          1.3746  -16.1078  -49.4055 H         1 56N         0.0675
     24 H6          0.7906  -18.9814  -50.2413 H         1 56N         0.0648
     25 H7         -0.0902  -19.2931  -48.0293 H         1 56N         0.0647
     26 H8         -1.7235  -18.5327  -49.5688 H         1 56N         0.0647
     27 H9         -1.9870  -16.8393  -47.0502 H         1 56N         0.0584
     28 H10        -2.3971  -18.5832  -47.1810 H         1 56N         0.0584
     29 H11        -3.5265  -16.4764  -48.7389 H         1 56N         0.2095
     30 H12        -2.1315  -17.1430  -52.1093 H         1 56N         0.0542
     31 H13        -3.9095  -16.7076  -53.7793 H         1 56N         0.0589
     32 H14        -4.1080  -14.4624  -54.8039 H         1 56N         0.0523
     33 H15        -2.5479  -12.6608  -54.1693 H         1 56N         0.0589
     34 H16        -0.7754  -13.0938  -52.5084 H         1 56N         0.0542
@<TRIPOS>BOND
     1    6    1 1  
     2    7    2 1  
     3    8    3 1  
     4    5    4 1  
     5    4    9 1  
     6    6    5 1  
     7    5   12 1  
     8    7    6 1  
     9    7    8 1  
    10    8    9 1  
    11    9   10 1  
    12   10   11 1  
    13   12   13 1  
    14   13   14 ar 
    15   13   18 ar 
    16   14   15 ar 
    17   15   16 ar 
    18   16   17 ar 
    19   17   18 ar 
    20    1   19 1  
    21    2   20 1  
    22    3   21 1  
    23    5   22 1  
    24    6   23 1  
    25    7   24 1  
    26    8   25 1  
    27    9   26 1  
    28   10   27 1  
    29   10   28 1  
    30   11   29 1  
    31   14   30 1  
    32   15   31 1  
    33   16   32 1  
    34   17   33 1  
    35   18   34 1  
@<TRIPOS>SUBSTRUCTURE
     1 56N         1

