### 
### Created by X-TOOL on Mon Sep 10 21:13:27 2018
### 

@<TRIPOS>MOLECULE
5d24_ligand
   46    47     1     0     0
SMALL
GAST_HUCK


@<TRIPOS>ATOM
      1 C15         5.3340    7.0240   -3.1250 C.ar      1 L26         0.0806
      2 C14         4.9880    8.2890   -2.6390 C.ar      1 L26        -0.0483
      3 C12         7.0470    8.2810   -1.3460 C.ar      1 L26        -0.0524
      4 C4         12.6950    5.0670   -0.1980 C.2       1 L26         0.0278
      5 C3         11.7470    5.9960    0.2750 C.2       1 L26        -0.0327
      6 C11         7.3570    7.0060   -1.8330 C.ar      1 L26         0.0557
      7 C16         6.5110    6.4010   -2.7280 C.ar      1 L26        -0.0141
      8 C13         5.8580    8.9220   -1.7560 C.ar      1 L26        -0.0838
      9 C7         10.5140    5.6210   -0.4470 C.2       1 L26         0.1223
     10 C5         12.0290    4.1980   -1.2140 C.2       1 L26         0.0623
     11 C27        14.1450    4.9660    0.1340 C.2       1 L26         0.0977
     12 C8          9.2050    6.3240   -0.3580 C.2       1 L26         0.2277
     13 C26        12.6090    3.0420   -2.0030 C.3       1 L26        -0.0012
     14 C29        14.8130    6.2330    0.5970 C.3       1 L26         0.0031
     15 C2         11.8440    7.1080    1.3170 C.3       1 L26        -0.0345
     16 N6         10.7410    4.5890   -1.3060 N.pl3     1 L26        -0.2739
     17 N10         8.5310    6.2660   -1.5660 N.am      1 L26        -0.2402
     18 O28        14.7900    3.9500   -0.0750 O.2       1 L26        -0.4021
     19 O9          8.7800    6.9270    0.6190 O.2       1 L26        -0.3918
     20 O1          4.5320    6.3320   -3.9870 O.3       1 L26        -0.3016
     21 C6         11.8880    6.3840    2.6530 C.3       1 L26        -0.0585
     22 C9          3.1640    6.6970   -4.1310 C.3       1 L26         0.1583
     23 C10         2.4910    5.6090   -4.9200 C.2       1 L26         0.2044
     24 O11         1.6810    5.9290   -5.7670 O.2       1 L26        -0.3943
     25 N12         2.8210    4.2500   -4.6500 N.am      1 L26        -0.2986
     26 H1          4.0632    8.7657   -2.9431 H         1 L26         0.0418
     27 H2          7.7194    8.7758   -0.6546 H         1 L26         0.0413
     28 H3          6.7636    5.4264   -3.1298 H         1 L26         0.0419
     29 H4          5.6215    9.9114   -1.3816 H         1 L26         0.0551
     30 H5         11.8355    2.6250   -2.6647 H         1 L26         0.0449
     31 H6         12.9571    2.2626   -1.3093 H         1 L26         0.0449
     32 H7         13.4555    3.3990   -2.6080 H         1 L26         0.0449
     33 H8         15.8733    6.0318    0.8097 H         1 L26         0.0441
     34 H9         14.3183    6.5958    1.5100 H         1 L26         0.0441
     35 H10        14.7356    6.9972   -0.1904 H         1 L26         0.0441
     36 H11        10.9657    7.7680    1.2625 H         1 L26         0.0382
     37 H12        12.7582    7.7010    1.1672 H         1 L26         0.0382
     38 H13        10.0369    4.1708   -1.9306 H         1 L26         0.2317
     39 H14         8.8925    5.6717   -2.2844 H         1 L26         0.2236
     40 H15        11.9588    7.1205    3.4670 H         1 L26         0.0248
     41 H16        12.7648    5.7203    2.6817 H         1 L26         0.0248
     42 H17        10.9722    5.7874    2.7771 H         1 L26         0.0248
     43 H18         3.0844    7.6545   -4.6666 H         1 L26         0.0859
     44 H19         2.6932    6.7902   -3.1412 H         1 L26         0.0859
     45 H20         2.3808    3.5163   -5.1675 H         1 L26         0.1815
     46 H21         3.4929    4.0296   -3.9429 H         1 L26         0.1815
@<TRIPOS>BOND
     1    1    2 ar 
     2    7    1 ar 
     3    1   20 1  
     4    8    2 ar 
     5    6    3 ar 
     6    3    8 ar 
     7    5    4 1  
     8   10    4 2  
     9    4   11 1  
    10    9    5 2  
    11    5   15 1  
    12    6    7 ar 
    13   17    6 1  
    14   12    9 1  
    15    9   16 1  
    16   10   13 1  
    17   16   10 1  
    18   11   14 1  
    19   11   18 2  
    20   12   17 am 
    21   12   19 2  
    22   15   21 1  
    23   20   22 1  
    24   22   23 1  
    25   23   24 2  
    26   23   25 am 
    27    2   26 1  
    28    3   27 1  
    29    7   28 1  
    30    8   29 1  
    31   13   30 1  
    32   13   31 1  
    33   13   32 1  
    34   14   33 1  
    35   14   34 1  
    36   14   35 1  
    37   15   36 1  
    38   15   37 1  
    39   16   38 1  
    40   17   39 1  
    41   21   40 1  
    42   21   41 1  
    43   21   42 1  
    44   22   43 1  
    45   22   44 1  
    46   25   45 1  
    47   25   46 1  
@<TRIPOS>SUBSTRUCTURE
     1 L26         1

