### 
### Created by X-TOOL on Mon Sep 10 21:13:27 2018
### 

@<TRIPOS>MOLECULE
5d25_ligand
   53    54     1     0     0
SMALL
GAST_HUCK


@<TRIPOS>ATOM
      1 C11         2.6800   56.4800   23.0050 C.ar      1 56M         0.0968
      2 C12         2.2720   55.4990   22.0920 C.ar      1 56M        -0.0230
      3 C13         1.3720   54.4880   22.4890 C.ar      1 56M         0.0837
      4 C14         0.9050   54.4690   23.8040 C.ar      1 56M        -0.0597
      5 C15         1.3150   55.4340   24.7190 C.ar      1 56M        -0.0445
      6 C16         2.1970   56.4330   24.3090 C.ar      1 56M         0.1090
      7 C4          5.5760   61.1130   21.2530 C.2       1 56M         0.0275
      8 C3          4.6330   60.2940   21.8570 C.2       1 56M        -0.0356
      9 C7          4.9180   58.9420   21.2740 C.2       1 56M         0.1215
     10 C5          6.3940   60.2870   20.3410 C.2       1 56M         0.0622
     11 C27         5.7730   62.5900   21.4080 C.2       1 56M         0.0977
     12 C8          4.2060   57.6660   21.5760 C.2       1 56M         0.2252
     13 C26         7.5420   60.7160   19.4600 C.3       1 56M        -0.0012
     14 C29         4.6580   63.3740   22.0320 C.3       1 56M         0.0031
     15 C23         3.1130   51.0330   19.7480 C.3       1 56M        -0.0480
     16 C25         2.1090   50.8430   23.4740 C.3       1 56M        -0.0480
     17 C2          3.5730   60.6860   22.8620 C.3       1 56M        -0.0438
     18 C22         3.0510   52.2110   20.6940 C.3       1 56M         0.0267
     19 C24         1.4280   50.9090   22.1340 C.3       1 56M         0.0267
     20 N6          5.9400   59.0280   20.4190 N.pl3     1 56M        -0.2739
     21 N10         3.5370   57.4980   22.7160 N.am      1 56M        -0.2405
     22 N21         1.7930   52.1420   21.4360 N.am      1 56M        -0.2360
     23 O28         6.7970   63.1360   21.0020 O.2       1 56M        -0.4021
     24 O9          4.2860   56.7830   20.7350 O.2       1 56M        -0.3932
     25 O19         0.7150   53.9310   20.1690 O.2       1 56M        -0.1517
     26 O20        -0.4470   52.8870   21.9260 O.2       1 56M        -0.1517
     27 O17         2.5980   57.3920   25.1860 O.3       1 56M        -0.3394
     28 S18         0.8410   53.3440   21.4740 S.o2      1 56M         0.0623
     29 H1          2.6495   55.5169   21.0760 H         1 56M         0.0485
     30 H2          0.2149   53.6936   24.1163 H         1 56M         0.0479
     31 H3          0.9523   55.4093   25.7402 H         1 56M         0.0495
     32 H4          7.9271   59.8450   18.9095 H         1 56M         0.0449
     33 H5          8.3436   61.1399   20.0827 H         1 56M         0.0449
     34 H6          7.1920   61.4757   18.7456 H         1 56M         0.0449
     35 H7          4.9396   64.4362   22.0813 H         1 56M         0.0441
     36 H8          4.4687   62.9973   23.0480 H         1 56M         0.0441
     37 H9          3.7476   63.2639   21.4245 H         1 56M         0.0441
     38 H10         4.0544   51.0681   19.1800 H         1 56M         0.0245
     39 H11         2.2627   51.0769   19.0515 H         1 56M         0.0245
     40 H12         3.0671   50.0971   20.3242 H         1 56M         0.0245
     41 H13         1.8241   49.9113   23.9846 H         1 56M         0.0245
     42 H14         1.8011   51.7046   24.0846 H         1 56M         0.0245
     43 H15         3.1996   50.8648   23.3325 H         1 56M         0.0245
     44 H16         3.6458   61.7637   23.0701 H         1 56M         0.0349
     45 H17         3.7246   60.1216   23.7939 H         1 56M         0.0349
     46 H18         2.5777   60.4580   22.4530 H         1 56M         0.0349
     47 H19         3.0937   53.1495   20.1218 H         1 56M         0.0475
     48 H20         3.8981   52.1698   21.3945 H         1 56M         0.0475
     49 H21         0.3380   50.8843   22.2799 H         1 56M         0.0475
     50 H22         1.7365   50.0446   21.5278 H         1 56M         0.0475
     51 H23         6.3276   58.2336   19.8903 H         1 56M         0.2317
     52 H24         3.6779   58.1859   23.4280 H         1 56M         0.2205
     53 H25         3.0407   56.9829   25.9203 H         1 56M         0.2433
@<TRIPOS>BOND
     1    2    1 ar 
     2    1    6 ar 
     3    1   21 1  
     4    3    2 ar 
     5    3    4 ar 
     6   28    3 1  
     7    4    5 ar 
     8    5    6 ar 
     9    6   27 1  
    10    8    7 1  
    11   10    7 2  
    12    7   11 1  
    13    9    8 2  
    14    8   17 1  
    15   12    9 1  
    16    9   20 1  
    17   10   13 1  
    18   20   10 1  
    19   11   14 1  
    20   11   23 2  
    21   21   12 am 
    22   12   24 2  
    23   18   15 1  
    24   19   16 1  
    25   22   18 1  
    26   22   19 1  
    27   22   28 am 
    28   28   25 2  
    29   28   26 2  
    30    2   29 1  
    31    4   30 1  
    32    5   31 1  
    33   13   32 1  
    34   13   33 1  
    35   13   34 1  
    36   14   35 1  
    37   14   36 1  
    38   14   37 1  
    39   15   38 1  
    40   15   39 1  
    41   15   40 1  
    42   16   41 1  
    43   16   42 1  
    44   16   43 1  
    45   17   44 1  
    46   17   45 1  
    47   17   46 1  
    48   18   47 1  
    49   18   48 1  
    50   19   49 1  
    51   19   50 1  
    52   20   51 1  
    53   21   52 1  
    54   27   53 1  
@<TRIPOS>SUBSTRUCTURE
     1 56M         1

