### 
### Created by X-TOOL on Mon Sep 10 21:13:26 2018
### 

@<TRIPOS>MOLECULE
5d26_ligand
   55    56     1     0     0
SMALL
GAST_HUCK


@<TRIPOS>ATOM
      1 C15         1.2680   55.0010   24.7490 C.ar      1 L28        -0.0445
      2 C14         0.8050   54.0840   23.8150 C.ar      1 L28        -0.0597
      3 C12         2.2210   55.1020   22.1440 C.ar      1 L28        -0.0230
      4 C4          5.5200   60.8540   21.5950 C.2       1 L28         0.0444
      5 C3          4.6220   59.9680   22.2050 C.2       1 L28        -0.0319
      6 C11         2.6980   56.0370   23.0840 C.ar      1 L28         0.0968
      7 C16         2.1970   55.9730   24.3790 C.ar      1 L28         0.1090
      8 C13         1.2800   54.1070   22.5050 C.ar      1 L28         0.0837
      9 C7          4.8670   58.6810   21.4770 C.2       1 L28         0.1214
     10 C5          6.2510   60.1150   20.5370 C.2       1 L28         0.0627
     11 C27         5.7820   62.3030   21.8820 C.2       1 L28         0.1700
     12 C8          4.1400   57.3930   21.6970 C.2       1 L28         0.2250
     13 C26         7.3160   60.6310   19.6040 C.3       1 L28        -0.0016
     14 C1          4.3270   60.0040   24.6820 C.3       1 L28        -0.0585
     15 C23         2.7900   50.6600   19.5580 C.3       1 L28        -0.0480
     16 C25         2.1570   50.5470   23.4470 C.3       1 L28        -0.0480
     17 C2          3.6490   60.2250   23.3390 C.3       1 L28        -0.0346
     18 C22         2.8210   51.7310   20.6310 C.3       1 L28         0.0267
     19 C24         1.2420   50.6030   22.2400 C.3       1 L28         0.0267
     20 N6          5.7940   58.8610   20.5300 N.pl3     1 L28        -0.2745
     21 N10         3.6080   57.0480   22.8710 N.am      1 L28        -0.2405
     22 N21         1.5880   51.7650   21.4210 N.am      1 L28        -0.2360
     23 O28         6.5800   62.9260   21.1960 O.2       1 L28        -0.4066
     24 O9          4.0270   56.6980   20.7110 O.2       1 L28        -0.3933
     25 O19         0.6970   53.6800   20.1670 O.2       1 L28        -0.1517
     26 O20        -0.6350   52.6900   21.8050 O.2       1 L28        -0.1517
     27 O17         2.6370   56.8730   25.2990 O.3       1 L28        -0.3394
     28 S18         0.7080   53.0240   21.4430 S.o2      1 L28         0.0623
     29 N1          5.1450   62.9820   22.9430 N.am      1 L28        -0.3069
     30 H1          0.9059   54.9612   25.7700 H         1 L28         0.0495
     31 H2          0.0683   53.3444   24.1070 H         1 L28         0.0479
     32 H3          2.5820   55.1452   21.1228 H         1 L28         0.0485
     33 H4          7.6480   59.8182   18.9413 H         1 L28         0.0447
     34 H5          8.1710   60.9980   20.1907 H         1 L28         0.0447
     35 H6          6.9064   61.4533   18.9990 H         1 L28         0.0447
     36 H7          3.6074   60.1946   25.4918 H         1 L28         0.0248
     37 H8          5.1798   60.6919   24.7799 H         1 L28         0.0248
     38 H9          4.6843   58.9656   24.7459 H         1 L28         0.0248
     39 H10         3.7354   50.6767   18.9959 H         1 L28         0.0245
     40 H11         1.9521   50.8525   18.8719 H         1 L28         0.0245
     41 H12         2.6602   49.6739   20.0278 H         1 L28         0.0245
     42 H13         1.8977   49.6737   24.0635 H         1 L28         0.0245
     43 H14         2.0361   51.4644   24.0417 H         1 L28         0.0245
     44 H15         3.2013   50.4622   23.1119 H         1 L28         0.0245
     45 H16         2.7955   59.5372   23.2468 H         1 L28         0.0382
     46 H17         3.2910   61.2635   23.2807 H         1 L28         0.0382
     47 H18         2.9590   52.7101   20.1491 H         1 L28         0.0475
     48 H19         3.6671   51.5316   21.3050 H         1 L28         0.0475
     49 H20         0.1977   50.6880   22.5748 H         1 L28         0.0475
     50 H21         1.3628   49.6857   21.6450 H         1 L28         0.0475
     51 H22         6.1133   58.1281   19.8805 H         1 L28         0.2315
     52 H23         3.8974   57.5731   23.6713 H         1 L28         0.2205
     53 H24         2.2103   56.7075   26.1315 H         1 L28         0.2433
     54 H25         5.3417   63.9485   23.1077 H         1 L28         0.1794
     55 H26         4.4971   62.4965   23.5299 H         1 L28         0.1794
@<TRIPOS>BOND
     1    2    1 ar 
     2    1    7 ar 
     3    8    2 ar 
     4    3    6 ar 
     5    8    3 ar 
     6    5    4 1  
     7   10    4 2  
     8    4   11 1  
     9    9    5 2  
    10    5   17 1  
    11    6    7 ar 
    12    6   21 1  
    13    7   27 1  
    14   28    8 1  
    15   12    9 1  
    16    9   20 1  
    17   10   13 1  
    18   20   10 1  
    19   11   23 2  
    20   11   29 am 
    21   21   12 am 
    22   12   24 2  
    23   17   14 1  
    24   18   15 1  
    25   19   16 1  
    26   22   18 1  
    27   22   19 1  
    28   22   28 am 
    29   28   25 2  
    30   28   26 2  
    31    1   30 1  
    32    2   31 1  
    33    3   32 1  
    34   13   33 1  
    35   13   34 1  
    36   13   35 1  
    37   14   36 1  
    38   14   37 1  
    39   14   38 1  
    40   15   39 1  
    41   15   40 1  
    42   15   41 1  
    43   16   42 1  
    44   16   43 1  
    45   16   44 1  
    46   17   45 1  
    47   17   46 1  
    48   18   47 1  
    49   18   48 1  
    50   19   49 1  
    51   19   50 1  
    52   20   51 1  
    53   21   52 1  
    54   27   53 1  
    55   29   54 1  
    56   29   55 1  
@<TRIPOS>SUBSTRUCTURE
     1 L28         1

