### 
### Created by X-TOOL on Mon Sep 10 21:13:27 2018
### 

@<TRIPOS>MOLECULE
5d29_ligand
   33    33     1     0     0
SMALL
GAST_HUCK


@<TRIPOS>ATOM
      1 CAG        22.9210   46.3720   41.1920 C.ar      1 5Q1        -0.0565
      2 CAI        23.6900   45.8380   40.1380 C.ar      1 5Q1        -0.0543
      3 CAS        24.4330   44.6890   40.3990 C.ar      1 5Q1         0.0032
      4 CAO        25.3230   44.0380   39.2920 C.2       1 5Q1         0.0584
      5 OAE        25.3450   44.5750   38.1670 O.co2     1 5Q1        -0.5625
      6 OAA        25.9830   43.0190   39.6410 O.co2     1 5Q1        -0.5625
      7 CAJ        24.3910   44.0440   41.6220 C.ar      1 5Q1        -0.0543
      8 CAH        23.5850   44.5480   42.6690 C.ar      1 5Q1        -0.0565
      9 CAR        22.8860   45.7210   42.4220 C.ar      1 5Q1        -0.0383
     10 CAM        22.0580   46.3040   43.5720 C.3       1 5Q1        -0.0033
     11 CAT        20.6410   45.6570   43.6710 C.3       1 5Q1         0.0238
     12 CAP        20.0350   46.2110   44.9980 C.2       1 5Q1         0.0400
     13 OAF        20.0290   45.4090   45.9870 O.co2     1 5Q1        -0.5685
     14 OAB        19.6390   47.4150   44.9540 O.co2     1 5Q1        -0.5685
     15 CAL        19.8300   46.1190   42.4590 C.3       1 5Q1        -0.0198
     16 CAK        18.3320   45.7030   42.4570 C.3       1 5Q1         0.0408
     17 CAQ        18.0450   44.2030   42.7360 C.2       1 5Q1         0.1989
     18 OAC        18.5440   43.1950   42.1290 O.2       1 5Q1        -0.3970
     19 NAN        17.1240   44.0470   43.6780 N.am      1 5Q1        -0.1642
     20 OAD        16.7870   42.7540   44.0780 O.3       1 5Q1        -0.2717
     21 H1         22.3585   47.2869   41.0451 H         1 5Q1         0.0565
     22 H2         23.7026   46.3047   39.1597 H         1 5Q1         0.0634
     23 H3         24.9793   43.1471   41.7787 H         1 5Q1         0.0634
     24 H4         23.5162   44.0396   43.6239 H         1 5Q1         0.0565
     25 H5         21.9420   47.3859   43.4110 H         1 5Q1         0.0453
     26 H6         22.5932   46.1291   44.5170 H         1 5Q1         0.0453
     27 H7         20.6991   44.5588   43.6954 H         1 5Q1         0.0490
     28 H8         20.2994   45.6989   41.5572 H         1 5Q1         0.0311
     29 H9         19.8766   47.2173   42.4189 H         1 5Q1         0.0311
     30 H10        17.9154   45.9478   41.4688 H         1 5Q1         0.0503
     31 H11        17.8170   46.2939   43.2287 H         1 5Q1         0.0503
     32 H12        16.6800   44.8410   44.0932 H         1 5Q1         0.2216
     33 H13        17.5587   42.3184   44.4205 H         1 5Q1         0.2490
@<TRIPOS>BOND
     1    1    2 ar 
     2    1    9 ar 
     3    2    3 ar 
     4    3    4 1  
     5    3    7 ar 
     6    4    5 ar 
     7    4    6 ar 
     8    7    8 ar 
     9    8    9 ar 
    10    9   10 1  
    11   10   11 1  
    12   11   12 1  
    13   11   15 1  
    14   12   13 ar 
    15   12   14 ar 
    16   15   16 1  
    17   16   17 1  
    18   17   18 2  
    19   17   19 am 
    20   19   20 1  
    21    1   21 1  
    22    2   22 1  
    23    7   23 1  
    24    8   24 1  
    25   10   25 1  
    26   10   26 1  
    27   11   27 1  
    28   15   28 1  
    29   15   29 1  
    30   16   30 1  
    31   16   31 1  
    32   19   32 1  
    33   20   33 1  
@<TRIPOS>SUBSTRUCTURE
     1 5Q1         1

