### 
### Created by X-TOOL on Mon Sep 10 21:13:26 2018
### 

@<TRIPOS>MOLECULE
5d3c_ligand
   76    78     1     0     0
SMALL
GAST_HUCK


@<TRIPOS>ATOM
      1 C4          1.2590   23.7480    5.4210 C.ar      1 56O        -0.0543
      2 C5          2.5930   23.8510    5.0990 C.ar      1 56O        -0.0544
      3 C8          5.5920   24.2270    4.5650 C.2       1 56O        -0.0269
      4 C2          1.8330   22.3590    7.2950 C.ar      1 56O        -0.0543
      5 C6          3.5660   23.2250    5.8550 C.ar      1 56O        -0.0148
      6 O44        10.6080   28.8570   12.2060 O.co2     1 56O        -0.5690
      7 C42        10.0130   29.9090   11.8930 C.2       1 56O         0.0350
      8 O43        10.4420   31.0490   12.1750 O.co2     1 56O        -0.5690
      9 C41         8.7100   29.8030   11.1410 C.3       1 56O         0.0044
     10 C40         8.8990   30.3670    9.7400 C.3       1 56O        -0.0008
     11 C29         7.8280   29.8540    8.7880 C.3       1 56O         0.1321
     12 C37         6.6820   30.8150    8.7170 C.2       1 56O         0.1993
     13 N39         6.8710   31.9100    7.9870 N.am      1 56O        -0.2990
     14 O38         5.6370   30.5710    9.2900 O.2       1 56O        -0.3947
     15 N28         8.3930   29.6840    7.4690 N.am      1 56O        -0.2636
     16 C27         7.6530   29.2300    6.4700 C.2       1 56O         0.2040
     17 O36         6.4820   28.9190    6.5760 O.2       1 56O        -0.3944
     18 C26         8.3840   29.1280    5.1740 C.3       1 56O         0.1324
     19 C31         8.3260   30.4480    4.4150 C.3       1 56O        -0.0008
     20 C32         9.3890   30.5160    3.3230 C.3       1 56O         0.0044
     21 C33         9.0720   31.6040    2.3250 C.2       1 56O         0.0350
     22 O35         9.7490   32.6470    2.3490 O.co2     1 56O        -0.5690
     23 O34         8.1510   31.4160    1.5090 O.co2     1 56O        -0.5690
     24 N25         7.9220   28.0610    4.3130 N.am      1 56O        -0.2650
     25 C20         8.5870   26.9230    4.2800 C.2       1 56O         0.1859
     26 O30         9.5860   26.7100    4.9340 O.2       1 56O        -0.3963
     27 C19         8.0710   25.9140    3.3220 C.3       1 56O         0.0796
     28 C21         9.0330   26.0870    2.1440 C.3       1 56O         0.0607
     29 C22         8.6030   25.1920    1.0070 C.2       1 56O         0.2015
     30 N24         9.3020   24.0790    0.8550 N.am      1 56O        -0.1641
     31 O24         8.9290   23.2160   -0.1650 O.3       1 56O        -0.2717
     32 O23         7.6580   25.4760    0.3030 O.2       1 56O        -0.3968
     33 C71         8.1340   24.5000    3.8990 C.3       1 56O         0.0428
     34 C9          6.9090   23.9830    4.6030 C.2       1 56O         0.1413
     35 O10         7.1710   23.0130    5.4660 O.3       1 56O        -0.1669
     36 N11         5.9430   22.6310    6.0480 N.2       1 56O        -0.1517
     37 C7          5.0080   23.3560    5.4930 C.2       1 56O         0.0432
     38 C1          3.1810   22.4710    6.9600 C.ar      1 56O        -0.0544
     39 C3          0.8790   23.0020    6.5180 C.ar      1 56O        -0.0186
     40 C12        -0.5700   22.9320    6.8080 C.ar      1 56O        -0.0179
     41 C17        -1.1460   21.7430    7.2020 C.ar      1 56O        -0.0403
     42 C13        -1.3510   24.0700    6.6600 C.ar      1 56O        -0.0541
     43 C14        -2.7120   24.0320    6.9170 C.ar      1 56O        -0.0609
     44 C15        -3.2920   22.8410    7.3170 C.ar      1 56O        -0.0479
     45 C16        -2.5060   21.7100    7.4560 C.ar      1 56O         0.0409
     46 CL         -3.2180   20.2190    7.9510 Cl        1 56O        -0.0707
     47 H1          0.5116   24.2496    4.8169 H         1 56O         0.0622
     48 H2          2.8867   24.4353    4.2345 H         1 56O         0.0616
     49 H3          5.0793   24.9556    3.9388 H         1 56O         0.0289
     50 H4          1.5314   21.7739    8.1563 H         1 56O         0.0622
     51 H5          7.9327   30.3762   11.6675 H         1 56O         0.0433
     52 H6          8.4066   28.7477   11.0758 H         1 56O         0.0433
     53 H7          9.8875   30.0659    9.3629 H         1 56O         0.0330
     54 H8          8.8424   31.4646    9.7850 H         1 56O         0.0330
     55 H9          7.4603   28.8835    9.1525 H         1 56O         0.0801
     56 H10         6.1402   32.5875    7.9034 H         1 56O         0.1815
     57 H11         7.7439   32.0561    7.5215 H         1 56O         0.1815
     58 H12         9.3535   29.9118    7.3092 H         1 56O         0.1883
     59 H13         9.4372   28.9208    5.4145 H         1 56O         0.0801
     60 H14         8.4884   31.2741    5.1229 H         1 56O         0.0330
     61 H15         7.3330   30.5507    3.9531 H         1 56O         0.0330
     62 H16         9.4296   29.5491    2.8000 H         1 56O         0.0433
     63 H17        10.3655   30.7247    3.7843 H         1 56O         0.0433
     64 H18         7.1061   28.1854    3.7483 H         1 56O         0.1883
     65 H19         7.0355   26.1389    3.0268 H         1 56O         0.0590
     66 H20        10.0512   25.8155    2.4593 H         1 56O         0.0531
     67 H21         9.0196   27.1352    1.8106 H         1 56O         0.0531
     68 H22        10.0732   23.8670    1.4552 H         1 56O         0.2216
     69 H23         9.5060   22.4612   -0.1666 H         1 56O         0.2490
     70 H24         8.9640   24.4749    4.6204 H         1 56O         0.0514
     71 H25         8.3504   23.8137    3.0670 H         1 56O         0.0514
     72 H26         3.9312   21.9700    7.5610 H         1 56O         0.0616
     73 H27        -0.5434   20.8485    7.3111 H         1 56O         0.0628
     74 H28        -0.8913   24.9981    6.3400 H         1 56O         0.0624
     75 H29        -3.3158   24.9254    6.8059 H         1 56O         0.0617
     76 H30        -4.3557   22.7939    7.5203 H         1 56O         0.0622
@<TRIPOS>BOND
     1    2    1 ar 
     2    1   39 ar 
     3    5    2 ar 
     4   34    3 2  
     5    3   37 1  
     6   38    4 ar 
     7    4   39 ar 
     8   37    5 1  
     9    5   38 ar 
    10    7    6 ar 
    11    7    8 ar 
    12    9    7 1  
    13   10    9 1  
    14   11   10 1  
    15   11   12 1  
    16   15   11 1  
    17   12   13 am 
    18   12   14 2  
    19   16   15 am 
    20   16   17 2  
    21   18   16 1  
    22   18   19 1  
    23   24   18 1  
    24   19   20 1  
    25   20   21 1  
    26   21   22 ar 
    27   21   23 ar 
    28   25   24 am 
    29   25   26 2  
    30   27   25 1  
    31   27   28 1  
    32   33   27 1  
    33   28   29 1  
    34   29   30 am 
    35   29   32 2  
    36   30   31 1  
    37   33   34 1  
    38   34   35 1  
    39   35   36 1  
    40   36   37 2  
    41   39   40 1  
    42   40   41 ar 
    43   40   42 ar 
    44   41   45 ar 
    45   42   43 ar 
    46   43   44 ar 
    47   44   45 ar 
    48   45   46 1  
    49    1   47 1  
    50    2   48 1  
    51    3   49 1  
    52    4   50 1  
    53    9   51 1  
    54    9   52 1  
    55   10   53 1  
    56   10   54 1  
    57   11   55 1  
    58   13   56 1  
    59   13   57 1  
    60   15   58 1  
    61   18   59 1  
    62   19   60 1  
    63   19   61 1  
    64   20   62 1  
    65   20   63 1  
    66   24   64 1  
    67   27   65 1  
    68   28   66 1  
    69   28   67 1  
    70   30   68 1  
    71   31   69 1  
    72   33   70 1  
    73   33   71 1  
    74   38   72 1  
    75   41   73 1  
    76   42   74 1  
    77   43   75 1  
    78   44   76 1  
@<TRIPOS>SUBSTRUCTURE
     1 56O         1

