### 
### Created by X-TOOL on Mon Sep 10 21:13:26 2018
### 

@<TRIPOS>MOLECULE
5d3h_ligand
   57    58     1     0     0
SMALL
GAST_HUCK


@<TRIPOS>ATOM
      1 C11         2.8670   55.5510   23.1070 C.ar      1 57G         0.0968
      2 C12         2.3650   54.6080   22.1870 C.ar      1 57G        -0.0230
      3 C7          5.1130   58.0280   21.3540 C.2       1 57G         0.1217
      4 C1          4.4800   59.6640   24.4370 C.3       1 57G        -0.0585
      5 C2          3.8640   59.7520   23.0440 C.3       1 57G        -0.0345
      6 C3          4.8640   59.3760   21.9660 C.2       1 57G        -0.0327
      7 C4          5.7720   60.2000   21.3060 C.2       1 57G         0.0303
      8 C5          6.5390   59.3730   20.3290 C.2       1 57G         0.0623
      9 C8          4.3790   56.7640   21.6740 C.2       1 57G         0.2252
     10 C24         3.0220   51.4500   20.6670 C.3       1 57G         0.0267
     11 C25         3.2030   50.2750   19.7380 C.3       1 57G        -0.0480
     12 C27         5.9530   61.6740   21.5280 C.2       1 57G         0.1262
     13 O28         5.2930   62.2910   22.3460 O.2       1 57G        -0.3994
     14 C29         6.9880   62.3530   20.6830 C.3       1 57G         0.1110
     15 C15         1.4970   54.5580   24.8370 C.ar      1 57G        -0.0445
     16 C14         1.0070   53.6290   23.9180 C.ar      1 57G        -0.0597
     17 C16         2.4170   55.5190   24.4280 C.ar      1 57G         0.1090
     18 C13         1.4300   53.6290   22.5840 C.ar      1 57G         0.0837
     19 C26         7.6390   59.7160   19.3540 C.3       1 57G        -0.0012
     20 C23         2.4850   50.1840   23.4500 C.3       1 57G        -0.0480
     21 C22         1.5410   50.1560   22.2800 C.3       1 57G         0.0267
     22 N6          6.0690   58.1220   20.4230 N.pl3     1 57G        -0.2739
     23 N10         3.7920   56.5290   22.8480 N.am      1 57G        -0.2405
     24 N21         1.8070   51.3460   21.4810 N.am      1 57G        -0.2360
     25 O9          4.2950   55.9690   20.7530 O.2       1 57G        -0.3932
     26 O19        -0.4800   52.0470   21.8870 O.2       1 57G        -0.1517
     27 O20         0.7320   53.1110   20.2340 O.2       1 57G        -0.1517
     28 O17         2.8820   56.4490   25.3130 O.3       1 57G        -0.3394
     29 S18         0.8500   52.5290   21.5320 S.o2      1 57G         0.0623
     30 O1          6.9300   63.7700   20.6880 O.3       1 57G        -0.3772
     31 H1          2.7031   54.6356   21.1574 H         1 57G         0.0485
     32 H2          3.7272   59.9429   25.1890 H         1 57G         0.0248
     33 H3          5.3365   60.3510   24.5033 H         1 57G         0.0248
     34 H4          4.8203   58.6347   24.6231 H         1 57G         0.0248
     35 H5          3.5218   60.7827   22.8695 H         1 57G         0.0382
     36 H6          3.0056   59.0664   22.9893 H         1 57G         0.0382
     37 H7          2.9647   52.3689   20.0651 H         1 57G         0.0475
     38 H8          3.8916   51.5050   21.3383 H         1 57G         0.0475
     39 H9          4.1266   50.4072   19.1553 H         1 57G         0.0245
     40 H10         2.3438   50.2125   19.0541 H         1 57G         0.0245
     41 H11         3.2707   49.3487   20.3273 H         1 57G         0.0245
     42 H12         6.8604   62.0099   19.6457 H         1 57G         0.0774
     43 H13         7.9800   62.0508   21.0498 H         1 57G         0.0774
     44 H14         1.1617   54.5312   25.8675 H         1 57G         0.0495
     45 H15         0.2830   52.8913   24.2446 H         1 57G         0.0479
     46 H16         7.9406   58.8100   18.8079 H         1 57G         0.0449
     47 H17         8.5033   60.1180   19.9029 H         1 57G         0.0449
     48 H18         7.2747   60.4699   18.6406 H         1 57G         0.0449
     49 H19         2.3147   49.2983   24.0798 H         1 57G         0.0245
     50 H20         2.3084   51.0942   24.0419 H         1 57G         0.0245
     51 H21         3.5224   50.1799   23.0843 H         1 57G         0.0245
     52 H22         0.5001   50.1661   22.6356 H         1 57G         0.0475
     53 H23         1.7141   49.2518   21.6780 H         1 57G         0.0475
     54 H24         6.4016   57.3326   19.8510 H         1 57G         0.2317
     55 H25         4.0507   57.1216   23.6108 H         1 57G         0.2205
     56 H26         3.3179   56.0089   26.0333 H         1 57G         0.2433
     57 H27         7.0509   64.0876   21.5751 H         1 57G         0.2128
@<TRIPOS>BOND
     1    2    1 ar 
     2    1   17 ar 
     3    1   23 1  
     4   18    2 ar 
     5    3    6 2  
     6    9    3 1  
     7    3   22 1  
     8    5    4 1  
     9    6    5 1  
    10    6    7 1  
    11    8    7 2  
    12    7   12 1  
    13    8   19 1  
    14   22    8 1  
    15   23    9 am 
    16    9   25 2  
    17   10   11 1  
    18   24   10 1  
    19   12   13 2  
    20   12   14 1  
    21   14   30 1  
    22   16   15 ar 
    23   15   17 ar 
    24   18   16 ar 
    25   17   28 1  
    26   29   18 1  
    27   21   20 1  
    28   24   21 1  
    29   24   29 am 
    30   29   26 2  
    31   29   27 2  
    32    2   31 1  
    33    4   32 1  
    34    4   33 1  
    35    4   34 1  
    36    5   35 1  
    37    5   36 1  
    38   10   37 1  
    39   10   38 1  
    40   11   39 1  
    41   11   40 1  
    42   11   41 1  
    43   14   42 1  
    44   14   43 1  
    45   15   44 1  
    46   16   45 1  
    47   19   46 1  
    48   19   47 1  
    49   19   48 1  
    50   20   49 1  
    51   20   50 1  
    52   20   51 1  
    53   21   52 1  
    54   21   53 1  
    55   22   54 1  
    56   23   55 1  
    57   28   56 1  
    58   30   57 1  
@<TRIPOS>SUBSTRUCTURE
     1 57G         1

