### 
### Created by X-TOOL on Mon Sep 10 21:13:27 2018
### 

@<TRIPOS>MOLECULE
5d3j_ligand
   55    56     1     0     0
SMALL
GAST_HUCK


@<TRIPOS>ATOM
      1 C15         1.5280   54.9490   24.9990 C.ar      1 L33        -0.0738
      2 C14         0.9800   54.1260   24.0140 C.ar      1 L33        -0.0507
      3 C12         2.2890   55.2910   22.3470 C.ar      1 L33        -0.0149
      4 C4          5.6010   60.8160   21.3840 C.2       1 L33         0.0278
      5 C3          4.7200   59.9950   22.0820 C.2       1 L33        -0.0327
      6 C11         2.8530   56.1210   23.3490 C.ar      1 L33         0.0667
      7 C16         2.4530   55.9390   24.6760 C.ar      1 L33        -0.0413
      8 C13         1.3480   54.3020   22.6830 C.ar      1 L33         0.0949
      9 C7          5.0090   58.6310   21.5580 C.2       1 L33         0.1223
     10 C5          6.4010   59.9740   20.4750 C.2       1 L33         0.0623
     11 C27         5.7580   62.2980   21.4400 C.2       1 L33         0.0977
     12 C8          4.3430   57.3420   21.9410 C.2       1 L33         0.2279
     13 C26         7.4640   60.4420   19.5120 C.3       1 L33        -0.0012
     14 C29         4.5520   63.0770   21.8980 C.3       1 L33         0.0031
     15 C1          4.4720   60.9520   24.3240 C.3       1 L33        -0.0585
     16 C23         2.6620   50.7260   19.7760 C.3       1 L33        -0.0480
     17 C25         2.3760   50.7950   23.3890 C.3       1 L33        -0.0480
     18 C2          3.7190   60.4020   23.1350 C.3       1 L33        -0.0345
     19 C22         2.6980   52.0310   20.5450 C.3       1 L33         0.0268
     20 C24         1.2980   50.9250   22.3400 C.3       1 L33         0.0268
     21 N6          5.9860   58.7030   20.6350 N.pl3     1 L33        -0.2739
     22 N10         3.7520   57.1340   23.1210 N.am      1 L33        -0.2377
     23 N21         1.5800   52.0760   21.4800 N.am      1 L33        -0.2349
     24 O28         6.7800   62.8610   21.0520 O.2       1 L33        -0.4021
     25 O9          4.3620   56.4690   21.0840 O.2       1 L33        -0.3918
     26 O19         0.5600   54.0280   20.3350 O.2       1 L33        -0.1503
     27 O20        -0.6190   52.8800   21.9950 O.2       1 L33        -0.1503
     28 S18         0.6900   53.3300   21.5710 S.o2      1 L33         0.0671
     29 H1          1.2288   54.8156   26.0323 H         1 L33         0.0577
     30 H2          0.2703   53.3525   24.2844 H         1 L33         0.0506
     31 H3          2.5861   55.4203   21.3126 H         1 L33         0.0521
     32 H4          2.8638   56.5701   25.4558 H         1 L33         0.0502
     33 H5          7.8787   59.5764   18.9746 H         1 L33         0.0449
     34 H6          8.2670   60.9467   20.0692 H         1 L33         0.0449
     35 H7          7.0214   61.1440   18.7901 H         1 L33         0.0449
     36 H8          4.7879   64.1514   21.8980 H         1 L33         0.0441
     37 H9          4.2767   62.7621   22.9154 H         1 L33         0.0441
     38 H10         3.7112   62.8862   21.2149 H         1 L33         0.0441
     39 H11         3.7567   61.2543   25.1031 H         1 L33         0.0248
     40 H12         5.0641   61.8247   24.0113 H         1 L33         0.0248
     41 H13         5.1432   60.1774   24.7232 H         1 L33         0.0248
     42 H14         3.5056   50.6926   19.0708 H         1 L33         0.0245
     43 H15         1.7159   50.6543   19.2195 H         1 L33         0.0245
     44 H16         2.7385   49.8837   20.4793 H         1 L33         0.0245
     45 H17         2.1594   49.9292   24.0320 H         1 L33         0.0245
     46 H18         2.4040   51.7085   24.0012 H         1 L33         0.0245
     47 H19         3.3500   50.6525   22.8981 H         1 L33         0.0245
     48 H20         3.1274   59.5272   23.4427 H         1 L33         0.0382
     49 H21         3.0483   61.1745   22.7308 H         1 L33         0.0382
     50 H22         2.6216   52.8732   19.8416 H         1 L33         0.0475
     51 H23         3.6442   52.1026   21.1014 H         1 L33         0.0475
     52 H24         0.3245   51.0666   22.8322 H         1 L33         0.0475
     53 H25         1.2705   50.0106   21.7291 H         1 L33         0.0475
     54 H26         6.3650   57.8951   20.1206 H         1 L33         0.2317
     55 H27         3.9759   57.7480   23.8779 H         1 L33         0.2238
@<TRIPOS>BOND
     1    2    1 ar 
     2    1    7 ar 
     3    8    2 ar 
     4    3    6 ar 
     5    8    3 ar 
     6    5    4 1  
     7   10    4 2  
     8    4   11 1  
     9    9    5 2  
    10    5   18 1  
    11    6    7 ar 
    12    6   22 1  
    13   28    8 1  
    14   12    9 1  
    15    9   21 1  
    16   10   13 1  
    17   21   10 1  
    18   11   14 1  
    19   11   24 2  
    20   22   12 am 
    21   12   25 2  
    22   18   15 1  
    23   19   16 1  
    24   20   17 1  
    25   23   19 1  
    26   23   20 1  
    27   23   28 am 
    28   28   26 2  
    29   28   27 2  
    30    1   29 1  
    31    2   30 1  
    32    3   31 1  
    33    7   32 1  
    34   13   33 1  
    35   13   34 1  
    36   13   35 1  
    37   14   36 1  
    38   14   37 1  
    39   14   38 1  
    40   15   39 1  
    41   15   40 1  
    42   15   41 1  
    43   16   42 1  
    44   16   43 1  
    45   16   44 1  
    46   17   45 1  
    47   17   46 1  
    48   17   47 1  
    49   18   48 1  
    50   18   49 1  
    51   19   50 1  
    52   19   51 1  
    53   20   52 1  
    54   20   53 1  
    55   21   54 1  
    56   22   55 1  
@<TRIPOS>SUBSTRUCTURE
     1 L33         1

