### 
### Created by X-TOOL on Mon Sep 10 21:13:27 2018
### 

@<TRIPOS>MOLECULE
5d3l_ligand
   59    60     1     0     0
SMALL
GAST_HUCK


@<TRIPOS>ATOM
      1 C1         15.7590  -10.2830   -5.0850 C.3       1 57F        -0.0585
      2 C2         16.4120  -10.0180   -6.4230 C.3       1 57F        -0.0345
      3 C3         15.3240   -9.6760   -7.4240 C.2       1 57F        -0.0329
      4 C4         14.4380  -10.5410   -8.0880 C.2       1 57F         0.0277
      5 C5         13.5460   -9.7080   -8.9390 C.2       1 57F         0.0622
      6 C6         19.1530   -2.4580   -4.3130 C.3       1 57F        -0.0387
      7 C7         14.9080   -8.3250   -7.8990 C.2       1 57F         0.1213
      8 C8         15.5360   -7.0170   -7.5540 C.2       1 57F         0.2234
      9 C11        16.9100   -5.7240   -6.0260 C.ar      1 57F         0.0900
     10 C12        17.2250   -4.6150   -6.8310 C.ar      1 57F        -0.0291
     11 C13        17.9540   -3.5190   -6.3050 C.ar      1 57F         0.0853
     12 C14        18.3730   -3.5660   -4.9780 C.ar      1 57F        -0.0432
     13 C15        18.0680   -4.6600   -4.1940 C.ar      1 57F        -0.0427
     14 C16        17.3370   -5.7280   -4.7080 C.ar      1 57F         0.1032
     15 C27        14.3160  -12.0370   -8.0540 C.2       1 57F         0.0977
     16 C26        12.4380  -10.1470   -9.8590 C.3       1 57F        -0.0012
     17 C29        15.5480  -12.8310   -7.7560 C.3       1 57F         0.0031
     18 C23        20.5310   -0.3350   -8.7620 C.3       1 57F        -0.0480
     19 C25        21.7310   -3.7650   -8.1250 C.3       1 57F        -0.0480
     20 C22        20.6000   -1.0850   -7.4590 C.3       1 57F         0.0266
     21 C24        20.2950   -3.4140   -8.4370 C.3       1 57F         0.0266
     22 N6         13.9070   -8.4400   -8.7820 N.pl3     1 57F        -0.2740
     23 N10        16.1770   -6.8280   -6.3960 N.am      1 57F        -0.2443
     24 N21        19.7710   -2.2710   -7.6690 N.am      1 57F        -0.2368
     25 O28        13.2290  -12.5700   -8.3040 O.2       1 57F        -0.4022
     26 O9         15.4460   -6.1720   -8.4290 O.2       1 57F        -0.3942
     27 O19        17.9620   -1.0330   -6.5570 O.2       1 57F        -0.1528
     28 O20        17.6200   -2.3990   -8.4870 O.2       1 57F        -0.1528
     29 O17        17.0530   -6.7910   -3.9120 O.3       1 57F        -0.3408
     30 S18        18.2970   -2.2570   -7.2420 S.o2      1 57F         0.0599
     31 H1         16.5316  -10.5334   -4.3431 H         1 57F         0.0248
     32 H2         15.0560  -11.1236   -5.1802 H         1 57F         0.0248
     33 H3         15.2145   -9.3848   -4.7584 H         1 57F         0.0248
     34 H4         16.9554  -10.9146   -6.7559 H         1 57F         0.0382
     35 H5         17.1139   -9.1757   -6.3342 H         1 57F         0.0382
     36 H6         19.3628   -2.7330   -3.2688 H         1 57F         0.0362
     37 H7         18.5636   -1.5295   -4.3363 H         1 57F         0.0362
     38 H8         20.1010   -2.3041   -4.8492 H         1 57F         0.0362
     39 H9         16.9063   -4.5980   -7.8670 H         1 57F         0.0470
     40 H10        18.4023   -4.6884   -3.1632 H         1 57F         0.0439
     41 H11        11.9847   -9.2645  -10.3342 H         1 57F         0.0449
     42 H12        11.6729  -10.6856   -9.2806 H         1 57F         0.0449
     43 H13        12.8468  -10.8115  -10.6344 H         1 57F         0.0449
     44 H14        15.3041  -13.9036   -7.7654 H         1 57F         0.0441
     45 H15        15.9336  -12.5514   -6.7645 H         1 57F         0.0441
     46 H16        16.3123  -12.6221   -8.5190 H         1 57F         0.0441
     47 H17        21.1346    0.5818   -8.6898 H         1 57F         0.0245
     48 H18        19.4855   -0.0696   -8.9774 H         1 57F         0.0245
     49 H19        20.9226   -0.9689   -9.5712 H         1 57F         0.0245
     50 H20        22.0401   -4.6240   -8.7386 H         1 57F         0.0245
     51 H21        21.8221   -4.0237   -7.0597 H         1 57F         0.0245
     52 H22        22.3763   -2.9030   -8.3496 H         1 57F         0.0245
     53 H23        20.2000   -0.4727   -6.6373 H         1 57F         0.0475
     54 H24        21.6371   -1.3721   -7.2311 H         1 57F         0.0475
     55 H25        19.6700   -4.2922   -8.2178 H         1 57F         0.0475
     56 H26        20.2241   -3.1715   -9.5076 H         1 57F         0.0475
     57 H27        13.4733   -7.6468   -9.2756 H         1 57F         0.2317
     58 H28        16.1172   -7.5687   -5.7268 H         1 57F         0.2182
     59 H29        16.5525   -7.4300   -4.4056 H         1 57F         0.2433
@<TRIPOS>BOND
     1    2    1 1  
     2    3    2 1  
     3    3    4 1  
     4    7    3 2  
     5    5    4 2  
     6    4   15 1  
     7    5   16 1  
     8   22    5 1  
     9   12    6 1  
    10    8    7 1  
    11    7   22 1  
    12   23    8 am 
    13    8   26 2  
    14   10    9 ar 
    15    9   14 ar 
    16    9   23 1  
    17   11   10 ar 
    18   11   12 ar 
    19   30   11 1  
    20   12   13 ar 
    21   13   14 ar 
    22   14   29 1  
    23   15   17 1  
    24   15   25 2  
    25   20   18 1  
    26   21   19 1  
    27   24   20 1  
    28   24   21 1  
    29   24   30 am 
    30   30   27 2  
    31   30   28 2  
    32    1   31 1  
    33    1   32 1  
    34    1   33 1  
    35    2   34 1  
    36    2   35 1  
    37    6   36 1  
    38    6   37 1  
    39    6   38 1  
    40   10   39 1  
    41   13   40 1  
    42   16   41 1  
    43   16   42 1  
    44   16   43 1  
    45   17   44 1  
    46   17   45 1  
    47   17   46 1  
    48   18   47 1  
    49   18   48 1  
    50   18   49 1  
    51   19   50 1  
    52   19   51 1  
    53   19   52 1  
    54   20   53 1  
    55   20   54 1  
    56   21   55 1  
    57   21   56 1  
    58   22   57 1  
    59   23   58 1  
    60   29   59 1  
@<TRIPOS>SUBSTRUCTURE
     1 57F         1

