### 
### Created by X-TOOL on Mon Sep 10 21:13:29 2018
### 

@<TRIPOS>MOLECULE
5d3n_ligand
   49    50     1     0     0
SMALL
GAST_HUCK


@<TRIPOS>ATOM
      1 C15        -5.9200    9.7100   -1.4970 C.ar      1 L40        -0.0720
      2 C14        -5.3590   10.2010   -0.3230 C.ar      1 L40        -0.0575
      3 C12        -6.8940    8.8350    0.9590 C.ar      1 L40        -0.0212
      4 C4        -12.4410    5.6730    0.5550 C.2       1 L40         0.0277
      5 C3        -11.4450    6.5850    0.2160 C.2       1 L40        -0.0328
      6 C11        -7.4890    8.3350   -0.2120 C.ar      1 L40         0.0690
      7 C16        -6.9880    8.7880   -1.4570 C.ar      1 L40        -0.0242
      8 C13        -5.8550    9.7630    0.9150 C.ar      1 L40         0.0877
      9 C7        -10.2480    6.0770    0.9430 C.2       1 L40         0.1220
     10 C5        -11.8860    4.6800    1.4800 C.2       1 L40         0.0622
     11 C27       -13.8650    5.6700    0.1570 C.2       1 L40         0.0977
     12 C8         -8.9100    6.7430    0.9130 C.2       1 L40         0.2261
     13 C26       -12.5660    3.5150    2.1340 C.3       1 L40        -0.0012
     14 C29       -14.4890    7.0130    0.0130 C.3       1 L40         0.0031
     15 C1        -11.5350    7.1900   -2.1280 C.3       1 L40        -0.0585
     16 C2        -11.5190    7.7820   -0.7250 C.3       1 L40        -0.0345
     17 C22        -4.4720    7.9850    3.3720 C.3       1 L40         0.0150
     18 N6        -10.5940    4.9960    1.6550 N.pl3     1 L40        -0.2739
     19 N10        -8.4660    7.3650   -0.1710 N.am      1 L40        -0.2407
     20 N21        -4.0990    9.2900    2.8500 N.am      1 L40        -0.2514
     21 O28       -14.4990    4.6460    0.0340 O.2       1 L40        -0.4021
     22 O9         -8.3130    6.7960    1.9660 O.2       1 L40        -0.3927
     23 O19        -4.5900   11.5840    1.9710 O.2       1 L40        -0.1514
     24 O20        -6.2450   10.5580    3.2430 O.2       1 L40        -0.1514
     25 C17        -7.5270    8.3340   -2.7920 C.3       1 L40        -0.0351
     26 S18        -5.2150   10.3200    2.2740 S.o2      1 L40         0.0616
     27 H1         -5.5324   10.0393   -2.4543 H         1 L40         0.0513
     28 H2         -4.5453   10.9161   -0.3636 H         1 L40         0.0489
     29 H3         -7.2527    8.4898    1.9219 H         1 L40         0.0499
     30 H4        -11.8454    2.9793    2.7694 H         1 L40         0.0449
     31 H5        -12.9505    2.8335    1.3609 H         1 L40         0.0449
     32 H6        -13.4010    3.8773    2.7517 H         1 L40         0.0449
     33 H7        -15.5419    6.8981   -0.2838 H         1 L40         0.0441
     34 H8        -13.9516    7.5864   -0.7566 H         1 L40         0.0441
     35 H9        -14.4349    7.5473    0.9730 H         1 L40         0.0441
     36 H10       -11.5881    8.0021   -2.8680 H         1 L40         0.0248
     37 H11       -12.4113    6.5346   -2.2395 H         1 L40         0.0248
     38 H12       -10.6172    6.6058   -2.2900 H         1 L40         0.0248
     39 H13       -10.6418    8.4321   -0.5912 H         1 L40         0.0382
     40 H14       -12.4360    8.3609   -0.5407 H         1 L40         0.0382
     41 H15        -3.5697    7.4528    3.7075 H         1 L40         0.0439
     42 H16        -4.9689    7.4025    2.5822 H         1 L40         0.0439
     43 H17        -5.1595    8.1125    4.2212 H         1 L40         0.0439
     44 H18        -9.9475    4.4721    2.2620 H         1 L40         0.2317
     45 H19        -8.8807    7.1045   -1.0429 H         1 L40         0.2217
     46 H20        -3.1358    9.5587    2.8456 H         1 L40         0.1668
     47 H21        -6.9700    8.8304   -3.6003 H         1 L40         0.0362
     48 H22        -8.5926    8.5969   -2.8658 H         1 L40         0.0362
     49 H23        -7.4111    7.2439   -2.8827 H         1 L40         0.0362
@<TRIPOS>BOND
     1    2    1 ar 
     2    1    7 ar 
     3    8    2 ar 
     4    3    6 ar 
     5    8    3 ar 
     6    5    4 1  
     7   10    4 2  
     8    4   11 1  
     9    9    5 2  
    10    5   16 1  
    11    6    7 ar 
    12    6   19 1  
    13    7   25 1  
    14   26    8 1  
    15   12    9 1  
    16    9   18 1  
    17   10   13 1  
    18   18   10 1  
    19   11   14 1  
    20   11   21 2  
    21   19   12 am 
    22   12   22 2  
    23   16   15 1  
    24   20   17 1  
    25   20   26 am 
    26   26   23 2  
    27   26   24 2  
    28    1   27 1  
    29    2   28 1  
    30    3   29 1  
    31   13   30 1  
    32   13   31 1  
    33   13   32 1  
    34   14   33 1  
    35   14   34 1  
    36   14   35 1  
    37   15   36 1  
    38   15   37 1  
    39   15   38 1  
    40   16   39 1  
    41   16   40 1  
    42   17   41 1  
    43   17   42 1  
    44   17   43 1  
    45   18   44 1  
    46   19   45 1  
    47   20   46 1  
    48   25   47 1  
    49   25   48 1  
    50   25   49 1  
@<TRIPOS>SUBSTRUCTURE
     1 L40         1

