### 
### Created by X-TOOL on Mon Sep 10 21:13:27 2018
### 

@<TRIPOS>MOLECULE
5d3p_ligand
   48    50     1     0     0
SMALL
GAST_HUCK


@<TRIPOS>ATOM
      1 C1        -11.0100    7.6050   -1.9270 C.3       1 57E        -0.0584
      2 C2        -10.6620    8.1050   -0.5440 C.3       1 57E        -0.0342
      3 C3        -10.5520    6.9390    0.4030 C.2       1 57E        -0.0312
      4 C4        -11.5570    6.0660    0.8270 C.2       1 57E         0.0283
      5 C5        -10.9730    5.0890    1.7780 C.2       1 57E         0.0627
      6 C7         -9.3500    6.4350    1.1250 C.2       1 57E         0.1339
      7 C11        -6.3190    8.5160    0.2300 C.ar      1 57E         0.0957
      8 C12        -5.7240    9.0190    1.4090 C.ar      1 57E        -0.0133
      9 C13        -4.6750    9.9490    1.3130 C.ar      1 57E         0.0920
     10 C14        -4.2260   10.3270    0.0440 C.ar      1 57E        -0.0547
     11 C15        -4.8110    9.8090   -1.1250 C.ar      1 57E        -0.0763
     12 C17        -6.6250    8.2220   -2.1030 C.2       1 57E        -0.0654
     13 C22        -3.5340    8.2340    3.8910 C.3       1 57E         0.0150
     14 C26       -11.6500    3.9500    2.4900 C.3       1 57E        -0.0010
     15 C27       -13.0120    6.0630    0.4910 C.2       1 57E         0.0979
     16 O28       -13.6390    5.0200    0.4620 O.2       1 57E        -0.4021
     17 C8         -7.9750    7.0150    1.1120 C.2       1 57E         0.2709
     18 C29       -13.7190    7.3720    0.2980 C.3       1 57E         0.0031
     19 N6         -9.6790    5.3850    1.8880 N.pl3     1 57E        -0.2728
     20 N10        -7.3490    7.5700    0.0680 N.am      1 57E        -0.1814
     21 O9         -7.4330    6.9270    2.2150 O.2       1 57E        -0.3678
     22 C6         -7.4910    7.2060   -1.3470 C.2       1 57E         0.0507
     23 C16        -5.8620    8.9060   -1.0010 C.ar      1 57E        -0.0281
     24 S18        -3.9930   10.5450    2.6570 S.o2      1 57E         0.0619
     25 O19        -4.9920   10.8500    3.6230 O.2       1 57E        -0.1516
     26 O20        -3.2090   11.7250    2.3400 O.2       1 57E        -0.1516
     27 N21        -3.0150    9.4360    3.2600 N.am      1 57E        -0.2516
     28 H1        -11.0896    8.4586   -2.6162 H         1 57E         0.0248
     29 H2        -11.9708    7.0706   -1.8927 H         1 57E         0.0248
     30 H3        -10.2228    6.9219   -2.2788 H         1 57E         0.0248
     31 H4        -11.4493    8.7883   -0.1931 H         1 57E         0.0383
     32 H5         -9.7013    8.6396   -0.5792 H         1 57E         0.0383
     33 H6         -6.0743    8.6897    2.3805 H         1 57E         0.0563
     34 H7         -3.4092   11.0347   -0.0405 H         1 57E         0.0522
     35 H8         -4.4504   10.1072   -2.1028 H         1 57E         0.0526
     36 H9         -6.5747    8.4038   -3.1755 H         1 57E         0.0242
     37 H10        -2.6963    7.6094    4.2347 H         1 57E         0.0439
     38 H11        -4.1379    7.6701    3.1648 H         1 57E         0.0439
     39 H12        -4.1605    8.5127    4.7511 H         1 57E         0.0439
     40 H13       -10.9181    3.4261    3.1223 H         1 57E         0.0450
     41 H14       -12.0636    3.2490    1.7500 H         1 57E         0.0450
     42 H15       -12.4633    4.3420    3.1184 H         1 57E         0.0450
     43 H16       -14.7762    7.1858    0.0580 H         1 57E         0.0441
     44 H17       -13.2476    7.9251   -0.5277 H         1 57E         0.0441
     45 H18       -13.6517    7.9648    1.2221 H         1 57E         0.0441
     46 H19        -9.0152    4.8710    2.4847 H         1 57E         0.2318
     47 H20        -8.0814    6.3933   -1.7677 H         1 57E         0.0950
     48 H21        -2.0259    9.5712    3.2023 H         1 57E         0.1668
@<TRIPOS>BOND
     1    2    1 1  
     2    3    2 1  
     3    3    4 1  
     4    6    3 2  
     5    5    4 2  
     6    4   15 1  
     7    5   14 1  
     8   19    5 1  
     9   17    6 1  
    10    6   19 1  
    11    8    7 ar 
    12    7   20 1  
    13    7   23 ar 
    14    9    8 ar 
    15    9   10 ar 
    16   24    9 1  
    17   10   11 ar 
    18   11   23 ar 
    19   12   22 2  
    20   23   12 1  
    21   27   13 1  
    22   15   16 2  
    23   15   18 1  
    24   20   17 am 
    25   17   21 2  
    26   20   22 1  
    27   24   25 2  
    28   24   26 2  
    29   24   27 am 
    30    1   28 1  
    31    1   29 1  
    32    1   30 1  
    33    2   31 1  
    34    2   32 1  
    35    8   33 1  
    36   10   34 1  
    37   11   35 1  
    38   12   36 1  
    39   13   37 1  
    40   13   38 1  
    41   13   39 1  
    42   14   40 1  
    43   14   41 1  
    44   14   42 1  
    45   18   43 1  
    46   18   44 1  
    47   18   45 1  
    48   19   46 1  
    49   22   47 1  
    50   27   48 1  
@<TRIPOS>SUBSTRUCTURE
     1 57E         1

