### 
### Created by X-TOOL on Mon Sep 10 21:13:27 2018
### 

@<TRIPOS>MOLECULE
5d3s_ligand
   54    56     1     0     0
SMALL
GAST_HUCK


@<TRIPOS>ATOM
      1 C1         15.1900  -11.4040   -4.6520 C.3       1 579        -0.0585
      2 C2         15.8730  -10.9380   -5.9090 C.3       1 579        -0.0345
      3 O2         19.2980   -1.9310   -9.7490 O.3       1 579        -0.3766
      4 C3         14.8440  -10.5310   -6.9470 C.2       1 579        -0.0328
      5 C4         13.9860  -11.3500   -7.6880 C.2       1 579         0.0278
      6 C5         13.1480  -10.5050   -8.5680 C.2       1 579         0.0622
      7 C7         14.4840   -9.1630   -7.4180 C.2       1 579         0.1221
      8 C8         15.0960   -7.8580   -7.0220 C.2       1 579         0.2269
      9 C11        16.2860   -6.3760   -5.5710 C.ar      1 579         0.0630
     10 C12        16.0030   -5.1680   -6.2700 C.ar      1 579        -0.0162
     11 C13        16.6380   -3.9630   -5.9560 C.ar      1 579         0.1284
     12 C14        17.5840   -3.9840   -4.9270 C.ar      1 579         0.1421
     13 C15        17.8700   -5.1610   -4.2270 C.ar      1 579        -0.0398
     14 C16        17.2170   -6.3490   -4.5350 C.ar      1 579        -0.0427
     15 C22        17.3450   -3.1580   -9.0770 C.3       1 579         0.0530
     16 C23        17.9900   -2.3160  -10.1670 C.3       1 579         0.0647
     17 C24        18.6150   -1.6850   -7.4060 C.3       1 579         0.0530
     18 C25        19.2190   -1.0180   -8.6450 C.3       1 579         0.0647
     19 C26        12.1130  -10.9480   -9.5610 C.3       1 579        -0.0012
     20 C27        13.8770  -12.8300   -7.6790 C.2       1 579         0.0977
     21 C29        15.0950  -13.6110   -7.2680 C.3       1 579         0.0031
     22 N6         13.5250   -9.2390   -8.3580 N.pl3     1 579        -0.2739
     23 N10        15.7290   -7.6020   -5.8700 N.am      1 579        -0.2399
     24 N21        17.4320   -2.4530   -7.7980 N.am      1 579        -0.2304
     25 O28        12.8740  -13.4030   -8.0710 O.2       1 579        -0.4021
     26 O9         14.9860   -7.0170   -7.8850 O.2       1 579        -0.3923
     27 O19        15.0070   -2.7260   -7.4530 O.2       1 579        -0.1509
     28 O20        16.2360   -1.4630   -5.9050 O.2       1 579        -0.1509
     29 S18        16.2880   -2.6010   -6.8020 S.o2      1 579         0.0682
     30 F1         18.2490   -2.8680   -4.5680 F         1 579        -0.1943
     31 H1         15.9475  -11.6954   -3.9096 H         1 579         0.0248
     32 H2         14.5499  -12.2686   -4.8814 H         1 579         0.0248
     33 H3         14.5733  -10.5887   -4.2459 H         1 579         0.0248
     34 H4         16.4903  -11.7549   -6.3109 H         1 579         0.0382
     35 H5         16.5137  -10.0750   -5.6754 H         1 579         0.0382
     36 H6         15.2723   -5.1834   -7.0706 H         1 579         0.0513
     37 H7         18.6098   -5.1465   -3.4348 H         1 579         0.0566
     38 H8         17.4312   -7.2501   -3.9717 H         1 579         0.0494
     39 H9         17.8692   -4.1220   -9.0003 H         1 579         0.0501
     40 H10        16.2884   -3.3341   -9.3271 H         1 579         0.0501
     41 H11        18.0581   -2.9038  -11.0943 H         1 579         0.0576
     42 H12        17.3815   -1.4174  -10.3463 H         1 579         0.0576
     43 H13        18.3270   -0.9134   -6.6769 H         1 579         0.0501
     44 H14        19.3570   -2.3589   -6.9530 H         1 579         0.0501
     45 H15        18.5898   -0.1629   -8.9329 H         1 579         0.0576
     46 H16        20.2313   -0.6630   -8.4018 H         1 579         0.0576
     47 H17        11.6734  -10.0664  -10.0503 H         1 579         0.0449
     48 H18        11.3235  -11.5107   -9.0414 H         1 579         0.0449
     49 H19        12.5837  -11.5914  -10.3189 H         1 579         0.0449
     50 H20        14.8710  -14.6872   -7.3075 H         1 579         0.0441
     51 H21        15.3799  -13.3333   -6.2425 H         1 579         0.0441
     52 H22        15.9248  -13.3838   -7.9534 H         1 579         0.0441
     53 H23        13.1312   -8.4261   -8.8529 H         1 579         0.2317
     54 H24        15.8014   -8.3351   -5.1938 H         1 579         0.2226
@<TRIPOS>BOND
     1    2    1 1  
     2    4    2 1  
     3   16    3 1  
     4   18    3 1  
     5    4    5 1  
     6    7    4 2  
     7    6    5 2  
     8    5   20 1  
     9    6   19 1  
    10   22    6 1  
    11    8    7 1  
    12    7   22 1  
    13   23    8 am 
    14    8   26 2  
    15   10    9 ar 
    16    9   14 ar 
    17    9   23 1  
    18   11   10 ar 
    19   11   12 ar 
    20   29   11 1  
    21   12   13 ar 
    22   12   30 1  
    23   13   14 ar 
    24   15   16 1  
    25   24   15 1  
    26   17   18 1  
    27   24   17 1  
    28   20   21 1  
    29   20   25 2  
    30   24   29 am 
    31   29   27 2  
    32   29   28 2  
    33    1   31 1  
    34    1   32 1  
    35    1   33 1  
    36    2   34 1  
    37    2   35 1  
    38   10   36 1  
    39   13   37 1  
    40   14   38 1  
    41   15   39 1  
    42   15   40 1  
    43   16   41 1  
    44   16   42 1  
    45   17   43 1  
    46   17   44 1  
    47   18   45 1  
    48   18   46 1  
    49   19   47 1  
    50   19   48 1  
    51   19   49 1  
    52   21   50 1  
    53   21   51 1  
    54   21   52 1  
    55   22   53 1  
    56   23   54 1  
@<TRIPOS>SUBSTRUCTURE
     1 579         1

