### 
### Created by X-TOOL on Mon Sep 10 21:13:27 2018
### 

@<TRIPOS>MOLECULE
5d3t_ligand
   48    49     1     0     0
SMALL
GAST_HUCK


@<TRIPOS>ATOM
      1 C1         11.3040    6.0210    2.5180 C.3       1 56Y        -0.0585
      2 C2         11.2190    6.6650    1.1420 C.3       1 56Y        -0.0345
      3 C3         11.1300    5.5780    0.0910 C.2       1 56Y        -0.0333
      4 C4         12.1020    4.7110   -0.3960 C.2       1 56Y         0.0277
      5 C5         11.5030    3.8070   -1.3930 C.2       1 56Y         0.0622
      6 C6          6.2110    7.9100   -1.8270 C.ar      1 56Y        -0.0155
      7 C11         6.4390    6.4320   -1.6210 C.3       1 56Y         0.0665
      8 C14         6.2950    8.8130   -0.7650 C.ar      1 56Y        -0.0541
      9 C15         5.4330   10.1990   -4.7540 C.2       1 56Y         0.2008
     10 C26        12.1760    2.7290   -2.1980 C.3       1 56Y        -0.0012
     11 C27        13.5390    4.6400   -0.0680 C.2       1 56Y         0.0977
     12 C29        14.2000    5.9120    0.3990 C.3       1 56Y         0.0031
     13 C7          9.9040    5.1510   -0.6400 C.2       1 56Y         0.1163
     14 C8          8.5590    5.8180   -0.4820 C.2       1 56Y         0.2044
     15 N6         10.1990    4.1350   -1.4820 N.pl3     1 56Y        -0.2744
     16 N10         7.8830    6.1450   -1.6080 N.am      1 56Y        -0.2688
     17 O28        14.1320    3.5850   -0.2270 O.2       1 56Y        -0.4022
     18 O9          8.0940    6.0560    0.6150 O.2       1 56Y        -0.4028
     19 C9          5.9300    8.3740   -3.0990 C.ar      1 56Y        -0.0387
     20 C10         5.7180    9.7260   -3.3460 C.ar      1 56Y         0.0430
     21 C12         5.8120   10.6280   -2.2880 C.ar      1 56Y        -0.0489
     22 C13         6.0970   10.1690   -1.0020 C.ar      1 56Y        -0.0628
     23 O16         4.8040   11.2360   -4.9910 O.2       1 56Y        -0.3849
     24 N17         5.9360    9.4280   -5.8270 N.am      1 56Y        -0.3001
     25 C16         8.5230    6.2630   -2.9220 C.3       1 56Y         0.0232
     26 H1         11.3689    6.8053    3.2865 H         1 56Y         0.0248
     27 H2         12.1982    5.3824    2.5694 H         1 56Y         0.0248
     28 H3         10.4063    5.4098    2.6929 H         1 56Y         0.0248
     29 H4         12.1165    7.2759    0.9650 H         1 56Y         0.0382
     30 H5         10.3247    7.3032    1.0885 H         1 56Y         0.0382
     31 H6          5.9632    5.8719   -2.4395 H         1 56Y         0.0684
     32 H7          5.9975    6.1250   -0.6614 H         1 56Y         0.0684
     33 H8          6.5129    8.4597    0.2364 H         1 56Y         0.0593
     34 H9         11.4359    2.2424   -2.8503 H         1 56Y         0.0449
     35 H10        12.6128    1.9825   -1.5184 H         1 56Y         0.0449
     36 H11        12.9713    3.1738   -2.8141 H         1 56Y         0.0449
     37 H12        15.2625    5.7180    0.6072 H         1 56Y         0.0441
     38 H13        13.7057    6.2671    1.3153 H         1 56Y         0.0441
     39 H14        14.1141    6.6790   -0.3848 H         1 56Y         0.0441
     40 H15         9.5204    3.6751   -2.1056 H         1 56Y         0.2317
     41 H16         5.8738    7.6692   -3.9207 H         1 56Y         0.0608
     42 H17         5.6635   11.6872   -2.4645 H         1 56Y         0.0611
     43 H18         6.1646   10.8742   -0.1815 H         1 56Y         0.0611
     44 H19         5.7655    9.7128   -6.7703 H         1 56Y         0.1808
     45 H20         6.4623    8.5979   -5.6426 H         1 56Y         0.1808
     46 H21         9.5950    6.0345   -2.8295 H         1 56Y         0.0486
     47 H22         8.3979    7.2884   -3.3000 H         1 56Y         0.0486
     48 H23         8.0562    5.5546   -3.6222 H         1 56Y         0.0486
@<TRIPOS>BOND
     1    2    1 1  
     2    3    2 1  
     3    3    4 1  
     4   13    3 2  
     5    5    4 2  
     6    4   11 1  
     7    5   10 1  
     8   15    5 1  
     9    6    7 1  
    10    6    8 ar 
    11   19    6 ar 
    12    7   16 1  
    13    8   22 ar 
    14   20    9 1  
    15    9   23 2  
    16    9   24 am 
    17   11   12 1  
    18   11   17 2  
    19   14   13 1  
    20   13   15 1  
    21   16   14 am 
    22   14   18 2  
    23   16   25 1  
    24   19   20 ar 
    25   20   21 ar 
    26   21   22 ar 
    27    1   26 1  
    28    1   27 1  
    29    1   28 1  
    30    2   29 1  
    31    2   30 1  
    32    7   31 1  
    33    7   32 1  
    34    8   33 1  
    35   10   34 1  
    36   10   35 1  
    37   10   36 1  
    38   12   37 1  
    39   12   38 1  
    40   12   39 1  
    41   15   40 1  
    42   19   41 1  
    43   21   42 1  
    44   22   43 1  
    45   24   44 1  
    46   24   45 1  
    47   25   46 1  
    48   25   47 1  
    49   25   48 1  
@<TRIPOS>SUBSTRUCTURE
     1 56Y         1

