### 
### Created by X-TOOL on Mon Sep 10 21:13:28 2018
### 

@<TRIPOS>MOLECULE
5d45_ligand
   51    55     1     0     0
SMALL
GAST_HUCK


@<TRIPOS>ATOM
      1 C8        -11.5650   -7.4220  -19.0970 C.ar      1 57P        -0.0178
      2 C2        -15.3260   -5.0060  -18.8050 C.ar      1 57P        -0.0676
      3 C4        -13.9040   -6.8280  -18.0430 C.ar      1 57P        -0.0372
      4 C5        -14.9850   -7.4510  -17.4020 C.ar      1 57P        -0.0631
      5 C6        -16.2600   -6.8970  -17.5340 C.ar      1 57P        -0.0676
      6 C11        -9.3960   -7.8590  -20.7310 C.ar      1 57P        -0.0714
      7 C1        -16.4360   -5.6550  -18.2090 C.ar      1 57P        -0.0674
      8 C21        -9.3590   -8.5950  -16.3320 C.3       1 57P         0.0625
      9 C22        -8.5390   -7.2870  -16.2480 C.3       1 57P         0.0264
     10 C24       -10.8720   -6.9890  -22.7280 C.3       1 57P        -0.0129
     11 C25       -10.7190   -8.3910  -23.1660 C.3       1 57P        -0.0400
     12 O1         -9.8940   -5.1810  -16.2140 O.co2     1 57P        -0.5689
     13 C23        -9.2450   -6.0850  -15.6040 C.2       1 57P         0.0373
     14 O2         -9.3780   -6.0800  -14.3200 O.co2     1 57P        -0.5689
     15 N         -10.4910   -8.1820  -17.2120 N.pl3     1 57P        -0.2566
     16 C14       -11.7510   -7.8430  -16.8450 C.2       1 57P         0.0805
     17 C15       -12.2910   -7.9800  -15.4690 C.ar      1 57P         0.0088
     18 C16       -12.3060   -9.3110  -15.0290 C.ar      1 57P        -0.0515
     19 C17       -12.7850   -9.6220  -13.7330 C.ar      1 57P        -0.0613
     20 C18       -13.1900   -8.5670  -12.8920 C.ar      1 57P        -0.0619
     21 C19       -13.2040   -7.2230  -13.3890 C.ar      1 57P        -0.0613
     22 C20       -12.7160   -6.9260  -14.6840 C.ar      1 57P        -0.0515
     23 C7        -12.4960   -7.3390  -17.9800 C.2       1 57P        -0.0048
     24 C3        -14.0280   -5.5980  -18.7150 C.ar      1 57P        -0.0631
     25 C13       -10.2980   -7.9910  -18.5390 C.ar      1 57P         0.0649
     26 C9        -11.7070   -7.1600  -20.4350 C.ar      1 57P        -0.0709
     27 C10       -10.6200   -7.3550  -21.2590 C.ar      1 57P        -0.0553
     28 C12        -9.2030   -8.1760  -19.3820 C.ar      1 57P        -0.0455
     29 C26        -9.6740   -7.3780  -23.5980 C.3       1 57P        -0.0400
     30 H1        -15.4606   -4.0653  -19.3265 H         1 57P         0.0602
     31 H2        -14.8330   -8.3485  -16.8134 H         1 57P         0.0570
     32 H3        -17.1188   -7.4139  -17.1214 H         1 57P         0.0602
     33 H4         -8.5669   -8.0052  -21.4138 H         1 57P         0.0499
     34 H5        -17.4207   -5.2055  -18.2669 H         1 57P         0.0570
     35 H6         -9.7156   -8.9099  -15.3402 H         1 57P         0.0615
     36 H7         -8.7732   -9.4078  -16.7861 H         1 57P         0.0615
     37 H8         -8.2567   -7.0013  -17.2721 H         1 57P         0.0456
     38 H9         -7.6317   -7.4966  -15.6625 H         1 57P         0.0456
     39 H10       -11.6183   -6.2218  -22.9817 H         1 57P         0.0441
     40 H11       -11.4135   -8.8096  -23.9093 H         1 57P         0.0289
     41 H12       -10.4564   -9.1668  -22.4317 H         1 57P         0.0289
     42 H13       -11.9512  -10.1016  -15.6803 H         1 57P         0.0625
     43 H14       -12.8389  -10.6506  -13.3952 H         1 57P         0.0617
     44 H15       -13.4905   -8.7714  -11.8707 H         1 57P         0.0616
     45 H16       -13.5925   -6.4252  -12.7664 H         1 57P         0.0617
     46 H17       -12.6771   -5.9055  -15.0475 H         1 57P         0.0625
     47 H18       -13.1630   -5.1127  -19.1524 H         1 57P         0.0570
     48 H19       -12.6511   -6.8081  -20.8349 H         1 57P         0.0471
     49 H20        -8.2534   -8.5455  -19.0122 H         1 57P         0.0536
     50 H21        -8.6616   -7.4067  -23.1688 H         1 57P         0.0289
     51 H22        -9.6187   -7.0495  -24.6463 H         1 57P         0.0289
@<TRIPOS>BOND
     1    1   23 1  
     2   25    1 ar 
     3    1   26 ar 
     4    2    7 ar 
     5   24    2 ar 
     6    3    4 ar 
     7   23    3 1  
     8    3   24 ar 
     9    4    5 ar 
    10    5    7 ar 
    11    6   27 ar 
    12   28    6 ar 
    13    8    9 1  
    14   15    8 1  
    15    9   13 1  
    16   10   11 1  
    17   27   10 1  
    18   10   29 1  
    19   29   11 1  
    20   13   12 ar 
    21   13   14 ar 
    22   15   16 1  
    23   25   15 1  
    24   16   17 1  
    25   16   23 2  
    26   17   18 ar 
    27   17   22 ar 
    28   18   19 ar 
    29   19   20 ar 
    30   21   20 ar 
    31   22   21 ar 
    32   25   28 ar 
    33   26   27 ar 
    34    2   30 1  
    35    4   31 1  
    36    5   32 1  
    37    6   33 1  
    38    7   34 1  
    39    8   35 1  
    40    8   36 1  
    41    9   37 1  
    42    9   38 1  
    43   10   39 1  
    44   11   40 1  
    45   11   41 1  
    46   18   42 1  
    47   19   43 1  
    48   20   44 1  
    49   21   45 1  
    50   22   46 1  
    51   24   47 1  
    52   26   48 1  
    53   28   49 1  
    54   29   50 1  
    55   29   51 1  
@<TRIPOS>SUBSTRUCTURE
     1 57P         1

