### 
### Created by X-TOOL on Mon Sep 10 21:13:27 2018
### 

@<TRIPOS>MOLECULE
5d47_ligand
   54    58     1     0     0
SMALL
GAST_HUCK


@<TRIPOS>ATOM
      1 O1          6.5610    5.8800   14.3270 O.co2     1 L19        -0.5689
      2 C22         6.6970    5.8990   15.5130 C.2       1 L19         0.0373
      3 O2          6.0880    4.8870   16.0920 O.co2     1 L19        -0.5689
      4 C21         7.4820    6.9880   16.2690 C.3       1 L19         0.0264
      5 C20         6.7240    8.3060   16.4860 C.3       1 L19         0.0626
      6 N1          5.5630    7.9490   17.3160 N.pl3     1 L19        -0.2564
      7 C13         4.2690    7.7320   16.8280 C.2       1 L19         0.0812
      8 C14         3.7990    7.9560   15.4140 C.ar      1 L19         0.0090
      9 C15         4.0770    9.2280   14.8930 C.ar      1 L19        -0.0515
     10 C16         3.7170    9.5420   13.5770 C.ar      1 L19        -0.0612
     11 C17         3.0250    8.5460   12.8200 C.ar      1 L19        -0.0619
     12 C18         2.7350    7.2250   13.3260 C.ar      1 L19        -0.0612
     13 C19         3.1430    6.9450   14.6190 C.ar      1 L19        -0.0515
     14 C6          3.3830    7.3040   17.9230 C.2       1 L19         0.0014
     15 C7          4.3030    7.2250   19.1020 C.ar      1 L19        -0.0172
     16 C8          4.0480    6.8750   20.4400 C.ar      1 L19        -0.0707
     17 C9          5.1430    6.9690   21.3100 C.ar      1 L19        -0.0552
     18 C23         4.9960    6.5460   22.7170 C.3       1 L19        -0.0128
     19 C24         5.3580    7.7570   23.5350 C.3       1 L19        -0.0400
     20 C25         3.9020    7.2220   23.5310 C.3       1 L19        -0.0400
     21 C10         6.4440    7.3580   20.8760 C.ar      1 L19        -0.0713
     22 C11         6.7390    7.7020   19.5540 C.ar      1 L19        -0.0454
     23 C12         5.6760    7.6460   18.6320 C.ar      1 L19         0.0651
     24 C5          1.9330    6.9540   17.8540 C.ar      1 L19         0.0129
     25 C4          0.9230    7.7910   17.3410 C.ar      1 L19        -0.0446
     26 C3         -0.4230    7.3190   17.2980 C.ar      1 L19        -0.0092
     27 N          -0.6860    6.0890   17.8000 N.ar      1 L19        -0.3180
     28 C2          0.2140    5.2260   18.3360 C.ar      1 L19         0.0314
     29 C1          1.5730    5.6110   18.3750 C.ar      1 L19         0.1188
     30 O           2.5730    4.8030   18.9020 O.3       1 L19        -0.3148
     31 C           2.0640    3.7620   19.7280 C.3       1 L19         0.0610
     32 H1          8.3944    7.2101   15.6961 H         1 L19         0.0456
     33 H2          7.7571    6.5868   17.2556 H         1 L19         0.0456
     34 H3          6.3960    8.7257   15.5236 H         1 L19         0.0615
     35 H4          7.3608    9.0364   17.0067 H         1 L19         0.0615
     36 H5          4.5715    9.9693   15.5103 H         1 L19         0.0625
     37 H6          3.9550   10.5080   13.1465 H         1 L19         0.0617
     38 H7          2.7018    8.7950   11.8157 H         1 L19         0.0616
     39 H8          2.2214    6.4864   12.7212 H         1 L19         0.0617
     40 H9          2.9688    5.9602   15.0372 H         1 L19         0.0625
     41 H10         3.0689    6.5536   20.7764 H         1 L19         0.0472
     42 H11         5.3181    5.5138   22.9191 H         1 L19         0.0441
     43 H12         5.5969    8.7076   23.0358 H         1 L19         0.0289
     44 H13         5.9824    7.6479   24.4340 H         1 L19         0.0289
     45 H14         3.4911    6.7283   24.4240 H         1 L19         0.0289
     46 H15         3.1056    7.7880   23.0258 H         1 L19         0.0289
     47 H16         7.2436    7.3885   21.6072 H         1 L19         0.0499
     48 H17         7.7375    7.9976   19.2529 H         1 L19         0.0536
     49 H18         1.1659    8.7846   16.9821 H         1 L19         0.0622
     50 H19        -1.2134    7.9284   16.8750 H         1 L19         0.0706
     51 H20        -0.1021    4.2647   18.7247 H         1 L19         0.0716
     52 H21         2.8990    3.1589   20.1141 H         1 L19         0.0581
     53 H22         1.3913    3.1218   19.1384 H         1 L19         0.0581
     54 H23         1.5084    4.2005   20.5700 H         1 L19         0.0581
@<TRIPOS>BOND
     1    1    2 ar 
     2    2    3 ar 
     3    2    4 1  
     4    4    5 1  
     5    5    6 1  
     6    6    7 1  
     7    6   23 1  
     8    7    8 1  
     9    7   14 2  
    10    8    9 ar 
    11    8   13 ar 
    12    9   10 ar 
    13   10   11 ar 
    14   11   12 ar 
    15   12   13 ar 
    16   14   15 1  
    17   14   24 1  
    18   15   16 ar 
    19   15   23 ar 
    20   16   17 ar 
    21   17   18 1  
    22   17   21 ar 
    23   18   19 1  
    24   18   20 1  
    25   19   20 1  
    26   21   22 ar 
    27   22   23 ar 
    28   24   25 ar 
    29   24   29 ar 
    30   25   26 ar 
    31   26   27 ar 
    32   27   28 ar 
    33   28   29 ar 
    34   29   30 1  
    35   30   31 1  
    36    4   32 1  
    37    4   33 1  
    38    5   34 1  
    39    5   35 1  
    40    9   36 1  
    41   10   37 1  
    42   11   38 1  
    43   12   39 1  
    44   13   40 1  
    45   16   41 1  
    46   18   42 1  
    47   19   43 1  
    48   19   44 1  
    49   20   45 1  
    50   20   46 1  
    51   21   47 1  
    52   22   48 1  
    53   25   49 1  
    54   26   50 1  
    55   28   51 1  
    56   31   52 1  
    57   31   53 1  
    58   31   54 1  
@<TRIPOS>SUBSTRUCTURE
     1 L19         1

