### 
### Created by X-TOOL on Mon Sep 10 21:13:28 2018
### 

@<TRIPOS>MOLECULE
5d48_ligand
   64    68     1     0     0
SMALL
GAST_HUCK


@<TRIPOS>ATOM
      1 O1          6.3400    5.7860   14.3660 O.co2     1 L96        -0.5689
      2 C24         6.5110    5.6580   15.5860 C.2       1 L96         0.0373
      3 O2          5.9080    4.6340   16.2140 O.co2     1 L96        -0.5689
      4 C23         7.2940    6.6870   16.3870 C.3       1 L96         0.0257
      5 C22         6.3920    7.9000   16.6720 C.3       1 L96         0.0589
      6 N2          5.2690    7.5250   17.5370 N.pl3     1 L96        -0.2674
      7 C12         3.9530    7.4230   17.1020 C.2       1 L96         0.0589
      8 C5          3.1370    6.9640   18.1970 C.2       1 L96        -0.0290
      9 C2          1.6300    6.7030   18.1390 C.2       1 L96        -0.0117
     10 C1          0.6060    7.7040   17.9180 C.2       1 L96         0.0661
     11 C           0.8340    9.1920   17.8130 C.3       1 L96        -0.0024
     12 N1         -0.5930    7.0150   17.8450 N.pl3     1 L96        -0.2277
     13 N          -0.3330    5.6440   17.9970 N.2       1 L96        -0.2413
     14 C3          1.0010    5.3800   18.1530 C.2       1 L96         0.0011
     15 C4          1.6460    4.0420   18.3770 C.3       1 L96        -0.0297
     16 C6          4.0060    6.8110   19.3580 C.ar      1 L96        -0.0243
     17 C7          3.7540    6.5070   20.6940 C.ar      1 L96        -0.0717
     18 C8          4.7750    6.5420   21.6030 C.ar      1 L96        -0.0555
     19 C25         4.5300    6.0790   23.0130 C.3       1 L96        -0.0131
     20 C26         3.3900    6.7330   23.7850 C.3       1 L96        -0.0401
     21 C27         4.8770    7.1200   24.0640 C.3       1 L96        -0.0401
     22 C9          6.0910    6.8610   21.1730 C.ar      1 L96        -0.0718
     23 C10         6.3600    7.2440   19.8490 C.ar      1 L96        -0.0466
     24 C11         5.3550    7.2420   18.8710 C.ar      1 L96         0.0600
     25 C13         3.4920    7.6970   15.7120 C.ar      1 L96        -0.0136
     26 C14         3.1820    6.7210   14.7640 C.ar      1 L96        -0.0680
     27 C15         2.7070    7.1190   13.4770 C.ar      1 L96        -0.0735
     28 C16         2.6310    8.4970   13.1500 C.ar      1 L96        -0.0366
     29 C17         2.9530    9.4600   14.1290 C.ar      1 L96         0.0876
     30 C18         3.4100    9.0890   15.3970 C.ar      1 L96        -0.0296
     31 O           2.7670   10.8010   13.7780 O.3       1 L96        -0.3166
     32 C19         2.8460   11.8740   14.7170 C.3       1 L96         0.0754
     33 C20         4.2400   12.4890   14.6190 C.3       1 L96        -0.0346
     34 C21         1.6950   12.8180   14.3050 C.3       1 L96        -0.0346
     35 H1          8.1735    7.0100   15.8107 H         1 L96         0.0456
     36 H2          7.6220    6.2412   17.3376 H         1 L96         0.0456
     37 H3          5.9997    8.2886   15.7206 H         1 L96         0.0607
     38 H4          6.9853    8.6809   17.1703 H         1 L96         0.0607
     39 H5         -0.1274    9.6992   17.6445 H         1 L96         0.0441
     40 H6          1.5111    9.4008   16.9716 H         1 L96         0.0441
     41 H7          1.2844    9.5607   18.7463 H         1 L96         0.0441
     42 H8         -1.5212    7.4382   17.7028 H         1 L96         0.2487
     43 H9          0.8818    3.2527   18.3216 H         1 L96         0.0376
     44 H10         2.1196    4.0248   19.3697 H         1 L96         0.0376
     45 H11         2.4088    3.8686   17.6037 H         1 L96         0.0376
     46 H12         2.7517    6.2435   21.0120 H         1 L96         0.0475
     47 H13         4.7638    5.0119   23.1416 H         1 L96         0.0440
     48 H14         2.8210    6.1537   24.5270 H         1 L96         0.0289
     49 H15         2.7186    7.4446   23.2822 H         1 L96         0.0289
     50 H16         5.2571    8.1063   23.7596 H         1 L96         0.0289
     51 H17         5.3595    6.8154   25.0044 H         1 L96         0.0289
     52 H18         6.9073    6.8074   21.8842 H         1 L96         0.0500
     53 H19         7.3647    7.5473   19.5775 H         1 L96         0.0532
     54 H20         3.3006    5.6702   15.0022 H         1 L96         0.0502
     55 H21         2.4057    6.3706   12.7529 H         1 L96         0.0581
     56 H22         2.3281    8.8074   12.1565 H         1 L96         0.0515
     57 H23         3.6957    9.8398   16.1248 H         1 L96         0.0507
     58 H24         2.6840   11.5154   15.7442 H         1 L96         0.0644
     59 H25         4.3253   13.3199   15.3348 H         1 L96         0.0258
     60 H26         4.4036   12.8658   13.5986 H         1 L96         0.0258
     61 H27         4.9954   11.7244   14.8531 H         1 L96         0.0258
     62 H28         1.6742   13.6868   14.9793 H         1 L96         0.0258
     63 H29         0.7379   12.2798   14.3709 H         1 L96         0.0258
     64 H30         1.8532   13.1598   13.2715 H         1 L96         0.0258
@<TRIPOS>BOND
     1    1    2 ar 
     2    2    3 ar 
     3    2    4 1  
     4    4    5 1  
     5    5    6 1  
     6    6    7 1  
     7    6   24 1  
     8    7    8 2  
     9    7   25 1  
    10    8    9 1  
    11    8   16 1  
    12    9   10 2  
    13    9   14 1  
    14   10   11 1  
    15   10   12 1  
    16   12   13 1  
    17   13   14 2  
    18   14   15 1  
    19   16   17 ar 
    20   16   24 ar 
    21   17   18 ar 
    22   18   19 1  
    23   18   22 ar 
    24   19   20 1  
    25   19   21 1  
    26   20   21 1  
    27   22   23 ar 
    28   23   24 ar 
    29   25   26 ar 
    30   25   30 ar 
    31   26   27 ar 
    32   27   28 ar 
    33   28   29 ar 
    34   29   30 ar 
    35   29   31 1  
    36   31   32 1  
    37   32   33 1  
    38   32   34 1  
    39    4   35 1  
    40    4   36 1  
    41    5   37 1  
    42    5   38 1  
    43   11   39 1  
    44   11   40 1  
    45   11   41 1  
    46   12   42 1  
    47   15   43 1  
    48   15   44 1  
    49   15   45 1  
    50   17   46 1  
    51   19   47 1  
    52   20   48 1  
    53   20   49 1  
    54   21   50 1  
    55   21   51 1  
    56   22   52 1  
    57   23   53 1  
    58   26   54 1  
    59   27   55 1  
    60   28   56 1  
    61   30   57 1  
    62   32   58 1  
    63   33   59 1  
    64   33   60 1  
    65   33   61 1  
    66   34   62 1  
    67   34   63 1  
    68   34   64 1  
@<TRIPOS>SUBSTRUCTURE
     1 L96         1

