### 
### Created by X-TOOL on Mon Sep 10 21:13:28 2018
### 

@<TRIPOS>MOLECULE
5d4a_ligand
   34    36     1     0     0
SMALL
GAST_HUCK


@<TRIPOS>ATOM
      1 O1          5.8910    7.2150   15.2970 O.co2     1 57Q        -0.5689
      2 C17         5.8340    6.2000   15.9700 C.2       1 57Q         0.0373
      3 O2          5.7450    5.0440   15.3560 O.co2     1 57Q        -0.5689
      4 C16         5.8570    6.2450   17.4870 C.3       1 57Q         0.0262
      5 C15         5.1750    7.5390   18.0210 C.3       1 57Q         0.0619
      6 N           5.1200    7.3300   19.4860 N.pl3     1 57Q        -0.2585
      7 C14         6.0230    7.7800   20.4120 C.ar      1 57Q         0.0670
      8 C13         7.2370    8.4770   20.3170 C.ar      1 57Q        -0.0422
      9 C12         7.8880    8.7490   21.5530 C.ar      1 57Q        -0.0756
     10 C11         7.3460    8.2810   22.7320 C.ar      1 57Q        -0.0781
     11 C10         6.1420    7.6020   22.8170 C.ar      1 57Q        -0.0735
     12 C9          5.4880    7.3600   21.6340 C.ar      1 57Q        -0.0230
     13 C8          4.2870    6.6260   21.4400 C.2       1 57Q        -0.0527
     14 C7          4.0990    6.6960   20.0550 C.2       1 57Q         0.0666
     15 C4          3.0530    6.1450   19.3130 C.ar      1 57Q         0.0047
     16 C3          2.1360    5.4070   19.9390 C.ar      1 57Q        -0.0526
     17 C2          1.0470    4.8530   19.2430 C.ar      1 57Q        -0.0619
     18 C5          2.8900    6.2720   17.9250 C.ar      1 57Q        -0.0526
     19 C6          1.7800    5.7110   17.2510 C.ar      1 57Q        -0.0619
     20 C1          0.7760    5.0420   17.9380 C.ar      1 57Q        -0.0625
     21 H1          6.9015    6.2215   17.8311 H         1 57Q         0.0456
     22 H2          5.3215    5.3684   17.8804 H         1 57Q         0.0456
     23 H3          4.1637    7.6503   17.6028 H         1 57Q         0.0613
     24 H4          5.7738    8.4281   17.7742 H         1 57Q         0.0613
     25 H5          7.6517    8.7878   19.3649 H         1 57Q         0.0543
     26 H6          8.8077    9.3226   21.5679 H         1 57Q         0.0537
     27 H7          7.8968    8.4556   23.6491 H         1 57Q         0.0517
     28 H8          5.7366    7.2781   23.7687 H         1 57Q         0.0541
     29 H9          3.6660    6.1311   22.1852 H         1 57Q         0.0335
     30 H10         2.2317    5.2308   21.0043 H         1 57Q         0.0619
     31 H11         0.3688    4.2206   19.8044 H         1 57Q         0.0616
     32 H12         3.6347    6.8146   17.3539 H         1 57Q         0.0619
     33 H13         1.7117    5.8056   16.1733 H         1 57Q         0.0616
     34 H14        -0.1402    4.7036   17.4677 H         1 57Q         0.0611
@<TRIPOS>BOND
     1    1    2 ar 
     2    2    3 ar 
     3    2    4 1  
     4    4    5 1  
     5    5    6 1  
     6    6    7 1  
     7    6   14 1  
     8    7    8 ar 
     9    7   12 ar 
    10    8    9 ar 
    11    9   10 ar 
    12   10   11 ar 
    13   11   12 ar 
    14   12   13 1  
    15   13   14 2  
    16   14   15 1  
    17   15   16 ar 
    18   15   18 ar 
    19   16   17 ar 
    20   17   20 ar 
    21   18   19 ar 
    22   19   20 ar 
    23    4   21 1  
    24    4   22 1  
    25    5   23 1  
    26    5   24 1  
    27    8   25 1  
    28    9   26 1  
    29   10   27 1  
    30   11   28 1  
    31   13   29 1  
    32   16   30 1  
    33   17   31 1  
    34   18   32 1  
    35   19   33 1  
    36   20   34 1  
@<TRIPOS>SUBSTRUCTURE
     1 57Q         1

