### 
### Created by X-TOOL on Mon Sep 10 21:13:25 2018
### 

@<TRIPOS>MOLECULE
5d6e_ligand
   53    55     1     0     0
SMALL
GAST_HUCK


@<TRIPOS>ATOM
      1 O3         30.4150   21.1720   22.5620 O.2       1 94A        -0.3774
      2 C9         29.8330   20.1180   22.2050 C.2       1 94A         0.3235
      3 N2         29.8850   18.8930   22.7840 N.am      1 94A        -0.2598
      4 C10        30.7180   18.5720   23.9410 C.3       1 94A         0.0383
      5 C11        31.9810   17.7980   23.5010 C.3       1 94A        -0.0423
      6 C12        29.9210   17.8660   25.0340 C.3       1 94A        -0.0423
      7 O2         28.9430   20.2800   21.0860 O.3       1 94A        -0.2364
      8 C1         28.7680   21.6090   20.4740 C.3       1 94A         0.1564
      9 C3         28.5570   21.2960   19.0630 C.2       1 94A         0.1327
     10 N5         29.5120   20.8300   18.1780 N.2       1 94A        -0.1438
     11 N6         28.7790   20.6520   17.0440 N.2       1 94A        -0.0306
     12 N1         27.4350   20.9570   17.1950 N.pl3     1 94A        -0.1415
     13 C2         27.3390   21.3570   18.4880 C.2       1 94A         0.1134
     14 C5         26.0400   21.8170   19.0590 C.3       1 94A         0.0574
     15 C8         25.7120   23.2440   18.4930 C.3       1 94A        -0.0739
     16 O1         24.9920   20.9210   18.6950 O.3       1 94A        -0.4435
     17 C7         26.2410   21.7580   20.5970 C.3       1 94A        -0.0562
     18 C6         27.5830   22.3230   21.0690 C.3       1 94A        -0.0123
     19 C4         26.5190   20.7770   16.0720 C.3       1 94A         0.1097
     20 C19        25.9960   19.3330   15.9740 C.ar      1 94A        -0.0206
     21 C20        26.8250   18.2690   16.2240 C.ar      1 94A        -0.0659
     22 C21        26.2890   16.9750   16.0080 C.ar      1 94A        -0.0395
     23 C22        24.9480   16.7890   15.6570 C.ar      1 94A         0.0837
     24 O25        24.3250   15.5900   15.4230 O.3       1 94A        -0.3257
     25 C25        25.1660   14.4240   15.5360 C.3       1 94A         0.0579
     26 C23        24.1000   17.8400   15.3950 C.ar      1 94A        -0.0395
     27 C24        24.6640   19.1150   15.5840 C.ar      1 94A        -0.0659
     28 H1         29.3193   18.1654   22.3959 H         1 94A         0.1870
     29 H2         31.0614   19.5254   24.3688 H         1 94A         0.0550
     30 H3         32.5947   17.5655   24.3838 H         1 94A         0.0252
     31 H4         32.5640   18.4150   22.8014 H         1 94A         0.0252
     32 H5         31.6835   16.8625   23.0047 H         1 94A         0.0252
     33 H6         30.5825   17.6428   25.8840 H         1 94A         0.0252
     34 H7         29.5051   16.9283   24.6370 H         1 94A         0.0252
     35 H8         29.1009   18.5180   25.3691 H         1 94A         0.0252
     36 H9         29.6686   22.2263   20.6075 H         1 94A         0.0943
     37 H10        24.7549   23.5922   18.9087 H         1 94A         0.0108
     38 H11        25.6396   23.1958   17.3965 H         1 94A         0.0108
     39 H12        26.5115   23.9439   18.7773 H         1 94A         0.0108
     40 H13        24.1714   21.2302   19.0603 H         1 94A         0.1885
     41 H14        26.1768   20.7068   20.9147 H         1 94A         0.0147
     42 H15        25.4352   22.3351   21.0741 H         1 94A         0.0147
     43 H16        27.6351   23.3844   20.7848 H         1 94A         0.0320
     44 H17        27.6344   22.2337   22.1642 H         1 94A         0.0320
     45 H18        27.0477   21.0262   15.1401 H         1 94A         0.0793
     46 H19        25.6630   21.4557   16.2007 H         1 94A         0.0793
     47 H20        27.8422   18.4113   16.5705 H         1 94A         0.0531
     48 H21        26.9329   16.1098   16.1173 H         1 94A         0.0525
     49 H22        24.5714   13.5217   15.3303 H         1 94A         0.0575
     50 H23        25.5788   14.3668   16.5540 H         1 94A         0.0575
     51 H24        25.9893   14.4939   14.8099 H         1 94A         0.0575
     52 H25        23.0764   17.6969   15.0682 H         1 94A         0.0525
     53 H26        24.0331   19.9809   15.4188 H         1 94A         0.0531
@<TRIPOS>BOND
     1    1    2 2  
     2    2    3 am 
     3    2    7 1  
     4    3    4 1  
     5    4    5 1  
     6    4    6 1  
     7    7    8 1  
     8    8    9 1  
     9    8   18 1  
    10    9   10 1  
    11    9   13 2  
    12   10   11 2  
    13   11   12 1  
    14   12   13 1  
    15   12   19 1  
    16   13   14 1  
    17   14   15 1  
    18   14   16 1  
    19   14   17 1  
    20   17   18 1  
    21   19   20 1  
    22   20   21 ar 
    23   20   27 ar 
    24   21   22 ar 
    25   22   23 ar 
    26   23   24 1  
    27   23   26 ar 
    28   24   25 1  
    29   26   27 ar 
    30    3   28 1  
    31    4   29 1  
    32    5   30 1  
    33    5   31 1  
    34    5   32 1  
    35    6   33 1  
    36    6   34 1  
    37    6   35 1  
    38    8   36 1  
    39   15   37 1  
    40   15   38 1  
    41   15   39 1  
    42   16   40 1  
    43   17   41 1  
    44   17   42 1  
    45   18   43 1  
    46   18   44 1  
    47   19   45 1  
    48   19   46 1  
    49   21   47 1  
    50   22   48 1  
    51   25   49 1  
    52   25   50 1  
    53   25   51 1  
    54   26   52 1  
    55   27   53 1  
@<TRIPOS>SUBSTRUCTURE
     1 94A         1

