### 
### Created by X-TOOL on Mon Sep 10 21:13:26 2018
### 

@<TRIPOS>MOLECULE
5d6f_ligand
   53    55     1     0     0
SMALL
GAST_HUCK


@<TRIPOS>ATOM
      1 O1         26.5850   21.9800   18.3940 O.3       1 57R        -0.4435
      2 C1         24.8480   14.3790   15.2900 C.3       1 57R         0.0579
      3 C2         25.4400   16.6670   15.4890 C.ar      1 57R         0.0837
      4 N1         28.5210   19.6330   18.0770 N.pl3     1 57R        -0.1415
      5 C3         25.1280   17.9560   15.2980 C.ar      1 57R        -0.0395
      6 C4         26.0060   18.9900   15.6460 C.ar      1 57R        -0.0659
      7 O2         29.6320   21.0250   22.2010 O.3       1 57R        -0.2364
      8 C5         27.2020   18.6090   16.2180 C.ar      1 57R        -0.0206
      9 O3         29.6750   18.7710   23.0350 O.2       1 57R        -0.3774
     10 C6         27.5240   17.3270   16.4710 C.ar      1 57R        -0.0659
     11 O4         24.4960   15.7030   15.1750 O.3       1 57R        -0.3257
     12 C7         26.6540   16.3240   16.0840 C.ar      1 57R        -0.0395
     13 C16        30.2450   19.8880   22.9090 C.2       1 57R         0.3235
     14 N4         31.4060   20.1600   23.4070 N.am      1 57R        -0.2598
     15 C17        32.2180   19.1610   24.1190 C.3       1 57R         0.0383
     16 C18        32.8430   18.3610   22.9820 C.3       1 57R        -0.0423
     17 C19        33.2630   19.8330   25.0120 C.3       1 57R        -0.0423
     18 C13        28.3410   20.5990   21.6490 C.3       1 57R         0.1564
     19 C14        27.4950   21.8700   21.3760 C.3       1 57R        -0.0123
     20 C15        26.1950   21.4210   20.7170 C.3       1 57R        -0.0562
     21 C10        26.5110   20.8480   19.3220 C.3       1 57R         0.0574
     22 C9         25.3100   19.8950   18.9430 C.3       1 57R        -0.0739
     23 C11        27.7970   20.2560   19.1990 C.2       1 57R         0.1134
     24 C12        28.6890   20.0280   20.3250 C.2       1 57R         0.1327
     25 N3         29.7810   19.4720   19.9220 N.2       1 57R        -0.1438
     26 N2         29.7580   19.1930   18.5930 N.2       1 57R        -0.0306
     27 C8         28.2210   19.6020   16.6410 C.3       1 57R         0.1097
     28 H1         27.2712   22.5739   18.6748 H         1 57R         0.1885
     29 H2         23.9939   13.7466   15.0062 H         1 57R         0.0575
     30 H3         25.1333   14.1645   16.3305 H         1 57R         0.0575
     31 H4         25.6983   14.1666   14.6253 H         1 57R         0.0575
     32 H5         24.1678   18.2058   14.8613 H         1 57R         0.0525
     33 H6         25.7595   20.0317   15.4754 H         1 57R         0.0531
     34 H7         28.4539   17.0835   16.9720 H         1 57R         0.0531
     35 H8         26.9126   15.2831   16.2413 H         1 57R         0.0525
     36 H9         31.7670   21.0869   23.3043 H         1 57R         0.1870
     37 H10        31.5829   18.5133   24.7412 H         1 57R         0.0550
     38 H11        33.4837   17.5701   23.3991 H         1 57R         0.0252
     39 H12        33.4487   19.0297   22.3528 H         1 57R         0.0252
     40 H13        32.0477   17.9057   22.3736 H         1 57R         0.0252
     41 H14        33.8529   19.0624   25.5298 H         1 57R         0.0252
     42 H15        32.7572   20.4679   25.7543 H         1 57R         0.0252
     43 H16        33.9302   20.4517   24.3939 H         1 57R         0.0252
     44 H17        27.8166   19.8840   22.3000 H         1 57R         0.0943
     45 H18        28.0418   22.5484   20.7046 H         1 57R         0.0320
     46 H19        27.2775   22.3871   22.3222 H         1 57R         0.0320
     47 H20        25.5160   22.2807   20.6173 H         1 57R         0.0147
     48 H21        25.7172   20.6460   21.3343 H         1 57R         0.0147
     49 H22        25.2723   19.0535   19.6505 H         1 57R         0.0108
     50 H23        25.4552   19.5101   17.9228 H         1 57R         0.0108
     51 H24        24.3660   20.4576   18.9918 H         1 57R         0.0108
     52 H25        29.1550   19.3770   16.1053 H         1 57R         0.0793
     53 H26        27.8621   20.5999   16.3490 H         1 57R         0.0793
@<TRIPOS>BOND
     1   21    1 1  
     2   11    2 1  
     3    5    3 ar 
     4    3   11 1  
     5   12    3 ar 
     6   23    4 1  
     7    4   26 1  
     8    4   27 1  
     9    6    5 ar 
    10    8    6 ar 
    11    7   13 1  
    12   18    7 1  
    13    8   10 ar 
    14   27    8 1  
    15   13    9 2  
    16   10   12 ar 
    17   13   14 am 
    18   14   15 1  
    19   15   16 1  
    20   15   17 1  
    21   19   18 1  
    22   18   24 1  
    23   20   19 1  
    24   21   20 1  
    25   21   22 1  
    26   21   23 1  
    27   23   24 2  
    28   24   25 1  
    29   25   26 2  
    30    1   28 1  
    31    2   29 1  
    32    2   30 1  
    33    2   31 1  
    34    5   32 1  
    35    6   33 1  
    36   10   34 1  
    37   12   35 1  
    38   14   36 1  
    39   15   37 1  
    40   16   38 1  
    41   16   39 1  
    42   16   40 1  
    43   17   41 1  
    44   17   42 1  
    45   17   43 1  
    46   18   44 1  
    47   19   45 1  
    48   19   46 1  
    49   20   47 1  
    50   20   48 1  
    51   22   49 1  
    52   22   50 1  
    53   22   51 1  
    54   27   52 1  
    55   27   53 1  
@<TRIPOS>SUBSTRUCTURE
     1 57R         1

