### 
### Created by X-TOOL on Mon Sep 10 21:13:25 2018
### 

@<TRIPOS>MOLECULE
5d6p_ligand
   32    33     1     0     0
SMALL
GAST_HUCK


@<TRIPOS>ATOM
      1 C8         -7.2670    5.0270    0.3990 C.2       1 57U         0.2061
      2 C6         -5.2830    3.7270    1.1620 C.2       1 57U         0.0520
      3 C5         -4.0380    3.2240    1.8240 C.2       1 57U         0.0440
      4 C4         -3.4960    3.8540    2.9360 C.2       1 57U        -0.0884
      5 C3         -2.3900    3.0870    3.2410 C.2       1 57U        -0.0926
      6 C2         -2.3200    2.0330    2.3210 C.2       1 57U         0.0055
      7 N1         -3.3590    2.1220    1.4620 N.pl3     1 57U        -0.2970
      8 C10        -6.1080    3.0380    0.1290 C.2       1 57U         0.0114
      9 C14        -8.7360    6.8420    1.0960 C.2       1 57U         0.3007
     10 C11        -5.8360    1.6850   -0.4650 C.3       1 57U         0.0756
     11 O18        -8.0900    7.1710    2.1010 O.2       1 57U        -0.3856
     12 N15        -9.8800    7.4710    0.8470 N.am      1 57U        -0.2659
     13 C16       -10.4980    8.5760    1.5660 C.3       1 57U         0.0292
     14 C17       -11.9980    8.4010    1.5190 C.3       1 57U        -0.0450
     15 N13        -8.3560    5.8800    0.2080 N.am      1 57U        -0.1783
     16 S7         -5.9900    5.2490    1.5420 S.3       1 57U         0.0086
     17 N9         -7.1930    3.8170   -0.2300 N.2       1 57U        -0.3079
     18 O12        -4.5740    1.6900   -1.1310 O.3       1 57U        -0.3839
     19 H1         -3.8585    4.7444    3.4475 H         1 57U         0.0216
     20 H2         -1.6918    3.2697    4.0565 H         1 57U         0.0274
     21 H3         -1.5498    1.2634    2.3013 H         1 57U         0.0753
     22 H4         -3.5841    1.4787    0.6898 H         1 57U         0.2272
     23 H5         -6.6281    1.4381   -1.1872 H         1 57U         0.0706
     24 H6         -5.8222    0.9313    0.3361 H         1 57U         0.0706
     25 H7        -10.3886    7.1380    0.0530 H         1 57U         0.1856
     26 H8        -10.2208    9.5287    1.0911 H         1 57U         0.0515
     27 H9        -10.1572    8.5748    2.6118 H         1 57U         0.0515
     28 H10       -12.4808    9.2291    2.0586 H         1 57U         0.0249
     29 H11       -12.2708    7.4463    1.9925 H         1 57U         0.0249
     30 H12       -12.3345    8.4003    0.4717 H         1 57U         0.0249
     31 H13        -8.8898    5.7790   -0.6316 H         1 57U         0.2430
     32 H14        -4.5854    2.3399   -1.8239 H         1 57U         0.2125
@<TRIPOS>BOND
     1   15    1 1  
     2    1   16 1  
     3    1   17 2  
     4    2    3 1  
     5    8    2 2  
     6   16    2 1  
     7    3    4 2  
     8    3    7 1  
     9    4    5 1  
    10    6    5 2  
    11    7    6 1  
    12    8   10 1  
    13   17    8 1  
    14    9   11 2  
    15    9   12 am 
    16    9   15 am 
    17   10   18 1  
    18   12   13 1  
    19   13   14 1  
    20    4   19 1  
    21    5   20 1  
    22    6   21 1  
    23    7   22 1  
    24   10   23 1  
    25   10   24 1  
    26   12   25 1  
    27   13   26 1  
    28   13   27 1  
    29   14   28 1  
    30   14   29 1  
    31   14   30 1  
    32   15   31 1  
    33   18   32 1  
@<TRIPOS>SUBSTRUCTURE
     1 57U         1

