### 
### Created by X-TOOL on Mon Sep 10 21:13:22 2018
### 

@<TRIPOS>MOLECULE
5d6q_ligand
   41    43     1     0     0
SMALL
GAST_HUCK


@<TRIPOS>ATOM
      1 O         -15.5230  -16.2070  -30.2150 O.2       1 57V        -0.3859
      2 C1        -19.3630  -16.3090  -31.2610 C.3       1 57V        -0.0450
      3 C8         -9.4040  -21.4410  -32.8900 C.ar      1 57V        -0.0110
      4 C7        -10.6390  -20.5610  -32.5860 C.2       1 57V        -0.0614
      5 C6        -10.4050  -19.4550  -31.8630 C.2       1 57V        -0.0634
      6 C5        -11.5170  -18.5640  -31.4360 C.2       1 57V         0.0066
      7 C4        -13.6470  -17.7300  -31.4340 C.2       1 57V         0.2088
      8 C3        -15.8210  -16.8210  -31.2300 C.2       1 57V         0.3002
      9 C2        -17.9720  -15.6220  -31.3870 C.3       1 57V         0.0292
     10 N1        -16.9330  -16.6010  -31.8450 N.am      1 57V        -0.2661
     11 C9         -8.0760  -20.9890  -32.7320 C.ar      1 57V        -0.0425
     12 C10        -7.0430  -21.9180  -32.9890 C.ar      1 57V        -0.0393
     13 C14       -10.1730  -17.2360  -29.5800 C.2       1 57V         0.0678
     14 N2        -14.9560  -17.6600  -31.8730 N.am      1 57V        -0.1782
     15 C13       -11.3620  -17.5300  -30.3910 C.2       1 57V         0.0726
     16 C12        -9.6510  -22.7410  -33.2760 C.ar      1 57V         0.0116
     17 C11        -7.4140  -23.1880  -33.4090 C.ar      1 57V         0.0058
     18 S         -12.9330  -16.7850  -30.1970 S.3       1 57V         0.0301
     19 N5         -9.9260  -16.0040  -29.1150 N.pl3     1 57V        -0.2865
     20 C17        -8.7600  -16.0950  -28.3990 C.2       1 57V         0.0180
     21 C16        -8.3370  -17.3890  -28.3790 C.2       1 57V        -0.0778
     22 C15        -9.2620  -18.1460  -29.0690 C.2       1 57V        -0.0723
     23 N3        -12.8140  -18.6680  -32.0040 N.2       1 57V        -0.3141
     24 N4         -8.6800  -23.5720  -33.5770 N.ar      1 57V        -0.3019
     25 H1        -20.1068  -15.5719  -30.9243 H         1 57V         0.0249
     26 H2        -19.3023  -17.1287  -30.5300 H         1 57V         0.0249
     27 H3        -19.6630  -16.7118  -32.2396 H         1 57V         0.0249
     28 H4        -11.6362  -20.8226  -32.9368 H         1 57V         0.0500
     29 H5         -9.3825  -19.2052  -31.5838 H         1 57V         0.0613
     30 H6        -17.6793  -15.2182  -30.4066 H         1 57V         0.0515
     31 H7        -18.0401  -14.8012  -32.1162 H         1 57V         0.0515
     32 H8        -17.1141  -17.1172  -32.6821 H         1 57V         0.1856
     33 H9         -7.8580  -19.9721  -32.4264 H         1 57V         0.0699
     34 H10        -6.0004  -21.6493  -32.8630 H         1 57V         0.0692
     35 H11       -15.2639  -18.2134  -32.6470 H         1 57V         0.2423
     36 H12       -10.6766  -23.0873  -33.3327 H         1 57V         0.0794
     37 H13        -6.6300  -23.9086  -33.6120 H         1 57V         0.0777
     38 H14       -10.4964  -15.1596  -29.2649 H         1 57V         0.2308
     39 H15        -8.2505  -15.2603  -27.9199 H         1 57V         0.0859
     40 H16        -7.4305  -17.7604  -27.9034 H         1 57V         0.0318
     41 H17        -9.2733  -19.2286  -29.1867 H         1 57V         0.0329
@<TRIPOS>BOND
     1    8    1 2  
     2    9    2 1  
     3    4    3 1  
     4    3   11 ar 
     5    3   16 ar 
     6    5    4 2  
     7    6    5 1  
     8    6   15 2  
     9   23    6 1  
    10   14    7 1  
    11    7   18 1  
    12    7   23 2  
    13   10    8 am 
    14    8   14 am 
    15    9   10 1  
    16   11   12 ar 
    17   12   17 ar 
    18   15   13 1  
    19   13   19 1  
    20   13   22 2  
    21   15   18 1  
    22   16   24 ar 
    23   17   24 ar 
    24   19   20 1  
    25   20   21 2  
    26   21   22 1  
    27    2   25 1  
    28    2   26 1  
    29    2   27 1  
    30    4   28 1  
    31    5   29 1  
    32    9   30 1  
    33    9   31 1  
    34   10   32 1  
    35   11   33 1  
    36   12   34 1  
    37   14   35 1  
    38   16   36 1  
    39   17   37 1  
    40   19   38 1  
    41   20   39 1  
    42   21   40 1  
    43   22   41 1  
@<TRIPOS>SUBSTRUCTURE
     1 57V         1

