### 
### Created by X-TOOL on Mon Sep 10 21:13:28 2018
### 

@<TRIPOS>MOLECULE
5d75_ligand
  126   129     1     0     0
SMALL
GAST_HUCK


@<TRIPOS>ATOM
      1 C1          6.8830  -23.6740   -2.0820 C.2       1 FK5         0.2621
      2 C2          5.7520  -23.0530   -1.3280 C.3       1 FK5         0.1459
      3 C3          4.6210  -24.0750   -1.2010 C.3       1 FK5        -0.0106
      4 C4          3.8460  -24.2270   -2.5050 C.3       1 FK5        -0.0469
      5 C5          3.2890  -22.8570   -2.9200 C.3       1 FK5        -0.0320
      6 C6          4.4060  -21.8250   -3.1210 C.3       1 FK5         0.0376
      7 C8          5.5590  -20.6490   -1.1810 C.2       1 FK5         0.2778
      8 C9          4.9810  -19.3530   -1.5810 C.2       1 FK5         0.2928
      9 C10         5.8500  -18.3310   -2.3160 C.3       1 FK5         0.2516
     10 C11         7.1690  -17.9750   -1.5910 C.3       1 FK5         0.0194
     11 C12         8.0200  -16.9910   -2.3960 C.3       1 FK5        -0.0176
     12 C13         8.2810  -17.4790   -3.8200 C.3       1 FK5         0.0870
     13 C14         6.9970  -18.0040   -4.4700 C.3       1 FK5         0.1119
     14 C15         7.2440  -18.6560   -5.8300 C.3       1 FK5         0.0871
     15 C16         5.8830  -19.1950   -6.2970 C.3       1 FK5        -0.0198
     16 C17         5.9180  -20.1300   -7.4950 C.3       1 FK5        -0.0329
     17 C18         6.5070  -19.4810   -8.7750 C.3       1 FK5        -0.0252
     18 C19         7.2860  -20.5770   -9.4650 C.2       1 FK5        -0.0804
     19 C20         8.5880  -20.7650   -9.1450 C.2       1 FK5        -0.0861
     20 C21         9.4260  -21.8910   -9.7250 C.3       1 FK5         0.0486
     21 C22         9.7320  -22.8530   -8.5890 C.2       1 FK5         0.1163
     22 C23         8.6400  -23.7660   -8.0660 C.3       1 FK5         0.0491
     23 C24         8.8470  -24.1830   -6.6060 C.3       1 FK5         0.0778
     24 C25         7.8260  -23.5280   -5.6770 C.3       1 FK5         0.0236
     25 C26         8.1510  -23.7870   -4.1910 C.3       1 FK5         0.1176
     26 C27         9.4910  -23.2680   -3.7200 C.2       1 FK5        -0.0504
     27 C28        10.3960  -24.1660   -3.2680 C.2       1 FK5        -0.1031
     28 C29        11.7850  -23.8380   -2.7540 C.3       1 FK5        -0.0326
     29 C30        11.8510  -24.0640   -1.2310 C.3       1 FK5        -0.0181
     30 C31        13.2770  -23.8540   -0.6720 C.3       1 FK5         0.0855
     31 C32        14.2720  -24.7520   -1.4120 C.3       1 FK5         0.0815
     32 C33        14.2430  -24.5920   -2.9430 C.3       1 FK5        -0.0231
     33 C34        12.8100  -24.7000   -3.5160 C.3       1 FK5        -0.0445
     34 C35         6.9690  -17.4290   -0.1910 C.3       1 FK5        -0.0584
     35 C36         4.5210  -20.7480   -7.6670 C.3       1 FK5        -0.0606
     36 C37         6.5690  -21.4660  -10.4560 C.3       1 FK5        -0.0396
     37 C38        10.6870  -21.3990  -10.4530 C.3       1 FK5        -0.0034
     38 C39        10.3530  -20.8240  -11.8140 C.2       1 FK5        -0.0855
     39 C40        10.1760  -21.6390  -12.8380 C.2       1 FK5        -0.1172
     40 C41         6.3860  -23.9390   -6.0170 C.3       1 FK5        -0.0555
     41 C42         9.7330  -21.7740   -3.7300 C.3       1 FK5        -0.0376
     42 C43        10.1890  -16.1330   -4.4590 C.3       1 FK5         0.0369
     43 C44         9.5840  -19.2110   -6.3000 C.3       1 FK5         0.0369
     44 C45        13.4060  -23.0200    1.6130 C.3       1 FK5         0.0369
     45 N7          5.2480  -21.7590   -1.8760 N.am      1 FK5        -0.2402
     46 O1          7.1200  -23.1880   -3.4170 O.3       1 FK5        -0.2597
     47 O2          7.5880  -24.5460   -1.5620 O.2       1 FK5        -0.3676
     48 O3          6.3080  -20.6730   -0.1920 O.2       1 FK5        -0.3605
     49 O4          3.8080  -19.0920   -1.2990 O.2       1 FK5        -0.2853
     50 O5          6.2020  -18.8680   -3.6050 O.3       1 FK5        -0.3394
     51 O6          5.0560  -17.1460   -2.4550 O.3       1 FK5        -0.3640
     52 O7          8.7950  -16.4220   -4.6670 O.3       1 FK5        -0.3771
     53 O8          8.2870  -19.6540   -5.8390 O.3       1 FK5        -0.3771
     54 O9         10.8330  -22.9230   -8.0690 O.2       1 FK5        -0.3896
     55 O10         8.7700  -25.6170   -6.5350 O.3       1 FK5        -0.3889
     56 O11        13.3480  -24.1520    0.7380 O.3       1 FK5        -0.3771
     57 O12        15.5850  -24.4470   -0.9450 O.3       1 FK5        -0.3892
     58 H1          6.1241  -22.8378   -0.3155 H         1 FK5         0.0820
     59 H2          3.9292  -23.7444   -0.4122 H         1 FK5         0.0314
     60 H3          5.0510  -25.0496   -0.9268 H         1 FK5         0.0314
     61 H4          3.0157  -24.9338   -2.3600 H         1 FK5         0.0268
     62 H5          4.5168  -24.6054   -3.2904 H         1 FK5         0.0268
     63 H6          2.6084  -22.4966   -2.1346 H         1 FK5         0.0285
     64 H7          2.7340  -22.9691   -3.8631 H         1 FK5         0.0285
     65 H8          3.9635  -20.8375   -3.3186 H         1 FK5         0.0526
     66 H9          5.0333  -22.1231   -3.9740 H         1 FK5         0.0526
     67 H10         7.7406  -18.9102   -1.4979 H         1 FK5         0.0336
     68 H11         8.9852  -16.8582   -1.8853 H         1 FK5         0.0294
     69 H12         7.4945  -16.0258   -2.4438 H         1 FK5         0.0294
     70 H13         9.0202  -18.2923   -3.7749 H         1 FK5         0.0622
     71 H14         6.3771  -17.1160   -4.6630 H         1 FK5         0.0646
     72 H15         7.5595  -17.8683   -6.5300 H         1 FK5         0.0622
     73 H16         5.2508  -18.3339   -6.5593 H         1 FK5         0.0295
     74 H17         5.4294  -19.7404   -5.4563 H         1 FK5         0.0295
     75 H18         6.5995  -20.9546   -7.2389 H         1 FK5         0.0320
     76 H19         7.1718  -18.6454   -8.5108 H         1 FK5         0.0416
     77 H20         5.6996  -19.1153   -9.4265 H         1 FK5         0.0416
     78 H21         9.0551  -20.0784   -8.4405 H         1 FK5         0.0267
     79 H22         8.8144  -22.4231  -10.4685 H         1 FK5         0.0626
     80 H23         8.6153  -24.6729   -8.6880 H         1 FK5         0.0520
     81 H24         7.6771  -23.2402   -8.1458 H         1 FK5         0.0520
     82 H25         9.8510  -23.8655   -6.2878 H         1 FK5         0.0624
     83 H26         7.8970  -22.4422   -5.8382 H         1 FK5         0.0375
     84 H27         8.1398  -24.8747   -4.0271 H         1 FK5         0.0802
     85 H28        10.1022  -25.2146   -3.2736 H         1 FK5         0.0246
     86 H29        12.0004  -22.7783   -2.9555 H         1 FK5         0.0375
     87 H30        11.5322  -25.0936   -1.0113 H         1 FK5         0.0308
     88 H31        11.1691  -23.3558   -0.7376 H         1 FK5         0.0308
     89 H32        13.5594  -22.8020   -0.8256 H         1 FK5         0.0623
     90 H33        14.0349  -25.7990   -1.1722 H         1 FK5         0.0619
     91 H34        14.8646  -25.3800   -3.3932 H         1 FK5         0.0292
     92 H35        14.6551  -23.6061   -3.2038 H         1 FK5         0.0292
     93 H36        12.8282  -24.3746   -4.5666 H         1 FK5         0.0283
     94 H37        12.4907  -25.7513   -3.4632 H         1 FK5         0.0283
     95 H38         6.3575  -18.1325    0.3930 H         1 FK5         0.0232
     96 H39         6.4573  -16.4568   -0.2462 H         1 FK5         0.0232
     97 H40         7.9470  -17.3015    0.2961 H         1 FK5         0.0232
     98 H41         4.1910  -21.1802   -6.7108 H         1 FK5         0.0234
     99 H42         4.5609  -21.5375   -8.4319 H         1 FK5         0.0234
    100 H43         3.8114  -19.9685   -7.9813 H         1 FK5         0.0234
    101 H44         7.2748  -22.2048  -10.8633 H         1 FK5         0.0378
    102 H45         6.1673  -20.8521  -11.2756 H         1 FK5         0.0378
    103 H46         5.7434  -21.9879   -9.9500 H         1 FK5         0.0378
    104 H47        11.3782  -22.2449  -10.5821 H         1 FK5         0.0484
    105 H48        11.1701  -20.6202   -9.8447 H         1 FK5         0.0484
    106 H49        10.2596  -19.7472  -11.9470 H         1 FK5         0.0675
    107 H50         9.9356  -21.2349  -13.8203 H         1 FK5         0.0290
    108 H51        10.2705  -22.7151  -12.7001 H         1 FK5         0.0290
    109 H52         6.1897  -23.7410   -7.0811 H         1 FK5         0.0236
    110 H53         5.6838  -23.3587   -5.4005 H         1 FK5         0.0236
    111 H54         6.2530  -25.0117   -5.8131 H         1 FK5         0.0236
    112 H55        10.7478  -21.5645   -3.3608 H         1 FK5         0.0376
    113 H56         8.9968  -21.2789   -3.0797 H         1 FK5         0.0376
    114 H57         9.6304  -21.3928   -4.7567 H         1 FK5         0.0376
    115 H58        10.5007  -15.3240   -5.1360 H         1 FK5         0.0524
    116 H59        10.7851  -17.0341   -4.6657 H         1 FK5         0.0524
    117 H60        10.3470  -15.8199   -3.4164 H         1 FK5         0.0524
    118 H61        10.2929  -20.0512   -6.2629 H         1 FK5         0.0524
    119 H62         9.9450  -18.3979   -5.6531 H         1 FK5         0.0524
    120 H63         9.5007  -18.8470   -7.3347 H         1 FK5         0.0524
    121 H64        13.4572  -23.3652    2.6562 H         1 FK5         0.0524
    122 H65        12.5058  -22.4031    1.4747 H         1 FK5         0.0524
    123 H66        14.2995  -22.4221    1.3804 H         1 FK5         0.0524
    124 H67         4.2587  -17.3540   -2.9278 H         1 FK5         0.2100
    125 H68         8.9450  -25.8987   -5.6447 H         1 FK5         0.2100
    126 H69        15.8041  -23.5532   -1.1807 H         1 FK5         0.2099
@<TRIPOS>BOND
     1    2    1 1  
     2    1   46 1  
     3    1   47 2  
     4    2    3 1  
     5   45    2 1  
     6    3    4 1  
     7    5    4 1  
     8    6    5 1  
     9   45    6 1  
    10    7    8 1  
    11    7   45 am 
    12    7   48 2  
    13    8    9 1  
    14    8   49 2  
    15    9   10 1  
    16    9   50 1  
    17    9   51 1  
    18   10   11 1  
    19   10   34 1  
    20   11   12 1  
    21   12   13 1  
    22   12   52 1  
    23   13   14 1  
    24   13   50 1  
    25   14   15 1  
    26   14   53 1  
    27   15   16 1  
    28   16   17 1  
    29   16   35 1  
    30   17   18 1  
    31   18   19 2  
    32   18   36 1  
    33   19   20 1  
    34   20   21 1  
    35   20   37 1  
    36   21   22 1  
    37   21   54 2  
    38   22   23 1  
    39   23   24 1  
    40   23   55 1  
    41   24   25 1  
    42   24   40 1  
    43   25   26 1  
    44   25   46 1  
    45   26   27 2  
    46   26   41 1  
    47   27   28 1  
    48   28   29 1  
    49   28   33 1  
    50   29   30 1  
    51   30   31 1  
    52   30   56 1  
    53   31   32 1  
    54   31   57 1  
    55   32   33 1  
    56   37   38 1  
    57   38   39 2  
    58   52   42 1  
    59   53   43 1  
    60   56   44 1  
    61    2   58 1  
    62    3   59 1  
    63    3   60 1  
    64    4   61 1  
    65    4   62 1  
    66    5   63 1  
    67    5   64 1  
    68    6   65 1  
    69    6   66 1  
    70   10   67 1  
    71   11   68 1  
    72   11   69 1  
    73   12   70 1  
    74   13   71 1  
    75   14   72 1  
    76   15   73 1  
    77   15   74 1  
    78   16   75 1  
    79   17   76 1  
    80   17   77 1  
    81   19   78 1  
    82   20   79 1  
    83   22   80 1  
    84   22   81 1  
    85   23   82 1  
    86   24   83 1  
    87   25   84 1  
    88   27   85 1  
    89   28   86 1  
    90   29   87 1  
    91   29   88 1  
    92   30   89 1  
    93   31   90 1  
    94   32   91 1  
    95   32   92 1  
    96   33   93 1  
    97   33   94 1  
    98   34   95 1  
    99   34   96 1  
   100   34   97 1  
   101   35   98 1  
   102   35   99 1  
   103   35  100 1  
   104   36  101 1  
   105   36  102 1  
   106   36  103 1  
   107   37  104 1  
   108   37  105 1  
   109   38  106 1  
   110   39  107 1  
   111   39  108 1  
   112   40  109 1  
   113   40  110 1  
   114   40  111 1  
   115   41  112 1  
   116   41  113 1  
   117   41  114 1  
   118   42  115 1  
   119   42  116 1  
   120   42  117 1  
   121   43  118 1  
   122   43  119 1  
   123   43  120 1  
   124   44  121 1  
   125   44  122 1  
   126   44  123 1  
   127   51  124 1  
   128   55  125 1  
   129   57  126 1  
@<TRIPOS>SUBSTRUCTURE
     1 FK5         1

