### 
### Created by X-TOOL on Mon Sep 10 21:13:28 2018
### 

@<TRIPOS>MOLECULE
5d7a_ligand
   49    53     1     0     0
SMALL
GAST_HUCK


@<TRIPOS>ATOM
      1 C1        263.9690   -4.6090   10.1630 C.ar      1 58C         0.0152
      2 C2        264.2210   -5.9830   10.4620 C.ar      1 58C         0.0779
      3 C3        264.2730   -3.6900   11.2050 C.ar      1 58C         0.0292
      4 C4        265.0180   -5.3410   12.6490 C.ar      1 58C         0.2049
      5 C5        263.0660   -5.1410    8.0020 C.ar      1 58C        -0.0684
      6 C6        263.3640   -6.5250    8.2220 C.ar      1 58C        -0.0287
      7 C7        263.4370   -4.2060    8.9050 C.ar      1 58C        -0.0580
      8 C20       265.1490   -9.2630   14.8800 C.ar      1 58C         0.0233
      9 C21       265.0260  -11.4050   15.5720 C.2       1 58C         0.1009
     10 N2        264.7710   -3.9770   12.3950 N.ar      1 58C        -0.2421
     11 O1        264.5260   -8.2470    9.4670 O.3       1 58C        -0.3099
     12 N1        264.7470   -6.3240   11.7060 N.ar      1 58C        -0.2621
     13 C8        263.9180   -6.9940    9.4090 C.ar      1 58C         0.1174
     14 C9        262.2700   -9.4600    9.5620 C.3       1 58C        -0.0196
     15 C10       263.7800   -9.4860    9.1970 C.3       1 58C         0.0827
     16 C11       261.9720   -9.6480   11.0600 C.3       1 58C        -0.0241
     17 C12       262.6450  -10.8880   11.6740 C.3       1 58C         0.0554
     18 C13       264.1420  -10.8010   11.3730 C.3       1 58C        -0.0241
     19 C14       264.4150  -10.7220    9.8710 C.3       1 58C        -0.0196
     20 C15       266.4920   -7.1340   15.7610 C.ar      1 58C        -0.0481
     21 N3        265.5330   -5.6410   13.9250 N.pl3     1 58C        -0.2492
     22 C16       265.6550   -6.9330   14.6010 C.ar      1 58C         0.0512
     23 C17       266.6350   -8.3380   16.4240 C.ar      1 58C        -0.0453
     24 C18       265.9600   -9.5150   16.0240 C.ar      1 58C         0.0739
     25 C19       264.9750   -8.0730   14.1820 C.ar      1 58C        -0.0393
     26 N4        265.8660  -10.8770   16.4400 N.pl3     1 58C        -0.2556
     27 N5        264.5440  -10.5380   14.6080 N.2       1 58C        -0.3108
     28 O2        262.4330  -10.9220   13.0530 O.3       1 58C        -0.3918
     29 H1        264.0754   -2.6437   11.0016 H         1 58C         0.0982
     30 H2        262.5385   -4.8411    7.1037 H         1 58C         0.0587
     31 H3        263.1492   -7.2353    7.4318 H         1 58C         0.0554
     32 H4        263.3299   -3.1527    8.6723 H         1 58C         0.0548
     33 H5        264.7315  -12.4527   15.6112 H         1 58C         0.1344
     34 H6        261.7687  -10.2674    9.0081 H         1 58C         0.0295
     35 H7        261.8575   -8.4895    9.2489 H         1 58C         0.0295
     36 H8        263.8391   -9.6400    8.1094 H         1 58C         0.0653
     37 H9        260.8838   -9.7444   11.1881 H         1 58C         0.0291
     38 H10       262.3272   -8.7574   11.5991 H         1 58C         0.0291
     39 H11       262.2273  -11.7992   11.2210 H         1 58C         0.0593
     40 H12       264.6394  -11.6943   11.7788 H         1 58C         0.0291
     41 H13       264.5509   -9.9018   11.8570 H         1 58C         0.0291
     42 H14       265.5033  -10.6833    9.7159 H         1 58C         0.0295
     43 H15       264.0086  -11.6264    9.3946 H         1 58C         0.0295
     44 H16       267.0461   -6.2817   16.1373 H         1 58C         0.0489
     45 H17       265.8743   -4.8310   14.4619 H         1 58C         0.2150
     46 H18       267.2912   -8.3823   17.2857 H         1 58C         0.0533
     47 H19       264.3172   -8.0336   13.3213 H         1 58C         0.0452
     48 H20       266.3409  -11.3373   17.2296 H         1 58C         0.2321
     49 H21       261.5008  -10.9760   13.2277 H         1 58C         0.2098
@<TRIPOS>BOND
     1    2    1 ar 
     2    3    1 ar 
     3    1    7 ar 
     4   12    2 ar 
     5    2   13 ar 
     6   10    3 ar 
     7    4   10 ar 
     8    4   12 ar 
     9   21    4 1  
    10    6    5 ar 
    11    7    5 ar 
    12   13    6 ar 
    13    8   24 ar 
    14   25    8 ar 
    15    8   27 1  
    16    9   26 1  
    17   27    9 2  
    18   13   11 1  
    19   11   15 1  
    20   15   14 1  
    21   14   16 1  
    22   15   19 1  
    23   16   17 1  
    24   18   17 1  
    25   17   28 1  
    26   19   18 1  
    27   22   20 ar 
    28   20   23 ar 
    29   22   21 1  
    30   22   25 ar 
    31   23   24 ar 
    32   24   26 1  
    33    3   29 1  
    34    5   30 1  
    35    6   31 1  
    36    7   32 1  
    37    9   33 1  
    38   14   34 1  
    39   14   35 1  
    40   15   36 1  
    41   16   37 1  
    42   16   38 1  
    43   17   39 1  
    44   18   40 1  
    45   18   41 1  
    46   19   42 1  
    47   19   43 1  
    48   20   44 1  
    49   21   45 1  
    50   23   46 1  
    51   25   47 1  
    52   26   48 1  
    53   28   49 1  
@<TRIPOS>SUBSTRUCTURE
     1 58C         1

