### 
### Created by X-TOOL on Mon Sep 10 21:13:22 2018
### 

@<TRIPOS>MOLECULE
5d7c_ligand
   45    48     1     0     0
SMALL
GAST_HUCK


@<TRIPOS>ATOM
      1 O           7.8860    7.5210   -2.6730 O.2       1 57W        -0.3942
      2 C1         11.7710    8.2120   -1.5600 C.3       1 57W        -0.0451
      3 C8          5.8440    2.2110    0.1060 C.ar      1 57W         0.0015
      4 C7          5.9680    4.1810   -0.9080 C.ar      1 57W         0.0767
      5 C6          4.6230    4.0480   -1.4890 C.ar      1 57W         0.1078
      6 C5          5.4800    6.0590   -2.1760 C.2       1 57W         0.0589
      7 C4          6.4320    5.5240   -1.3770 C.2       1 57W         0.0851
      8 C3          8.3830    6.9030   -1.7600 C.2       1 57W         0.2781
      9 C2         10.3180    8.3900   -1.8710 C.3       1 57W         0.0287
     10 N1          9.6270    7.1960   -1.3370 N.am      1 57W        -0.2697
     11 C9          4.5840    1.9530   -0.4150 C.ar      1 57W         0.0034
     12 C10         3.9850    2.8750   -1.1590 C.ar      1 57W        -0.0119
     13 C14         2.0040   -0.6630    0.4070 C.ar      1 57W        -0.0346
     14 N2          7.7350    5.9110   -1.0440 N.am      1 57W        -0.2368
     15 C13         2.8340   -1.7710    0.5630 C.ar      1 57W         0.0101
     16 C12         4.6710   -0.4400    0.0940 C.ar      1 57W         0.0178
     17 C11         3.8850    0.6600   -0.0420 C.ar      1 57W         0.0091
     18 N4          6.5840    3.3070   -0.1160 N.ar      1 57W        -0.3131
     19 C15         2.5240    0.5830    0.1050 C.ar      1 57W        -0.0359
     20 N5          4.1350   -1.7150    0.3370 N.ar      1 57W        -0.2971
     21 N3          4.4400    5.1610   -2.2310 N.pl3     1 57W        -0.2158
     22 C16         3.3000    5.4340   -2.9270 C.ar      1 57W         0.1597
     23 N6          3.0910    6.6920   -3.4420 N.ar      1 57W        -0.2723
     24 C20         1.9930    7.1290   -4.1370 C.ar      1 57W         0.0018
     25 C19         1.0180    6.1850   -4.2910 C.ar      1 57W        -0.0437
     26 C18         1.1930    4.8780   -3.8830 C.ar      1 57W        -0.0490
     27 C17         2.3790    4.4610   -3.2310 C.ar      1 57W        -0.0027
     28 H1         12.3354    9.0774   -1.9376 H         1 57W         0.0249
     29 H2         12.1397    7.2949   -2.0427 H         1 57W         0.0249
     30 H3         11.9060    8.1330   -0.4712 H         1 57W         0.0249
     31 H4          6.2708    1.4543    0.7543 H         1 57W         0.0753
     32 H5          5.5284    7.0222   -2.6818 H         1 57W         0.0739
     33 H6         10.1677    8.4619   -2.9583 H         1 57W         0.0514
     34 H7          9.9340    9.3000   -1.3868 H         1 57W         0.0514
     35 H8         10.0812    6.6101   -0.6659 H         1 57W         0.1849
     36 H9          2.9753    2.7003   -1.5127 H         1 57W         0.0696
     37 H10         0.9326   -0.7791    0.5242 H         1 57W         0.0707
     38 H11         8.2031    5.4661   -0.2805 H         1 57W         0.2142
     39 H12         2.3979   -2.7112    0.8806 H         1 57W         0.0814
     40 H13         5.7463   -0.3298    0.0123 H         1 57W         0.0826
     41 H14         1.8882    1.4535   -0.0095 H         1 57W         0.0735
     42 H15         1.9063    8.1356   -4.5299 H         1 57W         0.0795
     43 H16         0.0775    6.4711   -4.7478 H         1 57W         0.0630
     44 H17         0.4059    4.1554   -4.0655 H         1 57W         0.0710
     45 H18         2.5524    3.4201   -2.9828 H         1 57W         0.0659
@<TRIPOS>BOND
     1    8    1 2  
     2    9    2 1  
     3   11    3 ar 
     4    3   18 ar 
     5    5    4 ar 
     6    4    7 1  
     7   18    4 ar 
     8   12    5 ar 
     9    5   21 1  
    10    6    7 2  
    11   21    6 1  
    12    7   14 1  
    13    8   10 am 
    14   14    8 am 
    15   10    9 1  
    16   11   12 ar 
    17   17   11 1  
    18   15   13 ar 
    19   13   19 ar 
    20   20   15 ar 
    21   16   17 ar 
    22   16   20 ar 
    23   17   19 ar 
    24   21   22 1  
    25   22   23 ar 
    26   22   27 ar 
    27   23   24 ar 
    28   24   25 ar 
    29   25   26 ar 
    30   26   27 ar 
    31    2   28 1  
    32    2   29 1  
    33    2   30 1  
    34    3   31 1  
    35    6   32 1  
    36    9   33 1  
    37    9   34 1  
    38   10   35 1  
    39   12   36 1  
    40   13   37 1  
    41   14   38 1  
    42   15   39 1  
    43   16   40 1  
    44   19   41 1  
    45   24   42 1  
    46   25   43 1  
    47   26   44 1  
    48   27   45 1  
@<TRIPOS>SUBSTRUCTURE
     1 57W         1

