### 
### Created by X-TOOL on Mon Sep 10 21:13:23 2018
### 

@<TRIPOS>MOLECULE
5d7r_ligand
   43    46     1     0     0
SMALL
GAST_HUCK


@<TRIPOS>ATOM
      1 C20         1.1560  -21.4950   22.1040 C.ar      1 57Y        -0.0646
      2 C21         1.5870  -20.3640   21.4140 C.ar      1 57Y        -0.0390
      3 C15        -2.2040  -27.8390   24.7220 C.ar      1 57Y         0.0019
      4 C18        -0.1020  -28.5010   25.3140 C.ar      1 57Y         0.0170
      5 C10        -0.3110  -24.1970   23.4470 C.2       1 57Y         0.0094
      6 C19         1.9040  -21.8990   23.2260 C.ar      1 57Y         0.0144
      7 C14        -0.8920  -27.5130   24.8270 C.ar      1 57Y         0.0388
      8 C4          3.5010  -19.9880   22.9640 C.ar      1 57Y        -0.0074
      9 C5          3.0460  -21.1520   23.5860 C.ar      1 57Y        -0.0034
     10 C22         2.7060  -19.6660   21.8450 C.ar      1 57Y         0.0896
     11 C16        -2.6150  -29.0920   25.1250 C.ar      1 57Y         0.1315
     12 C8          1.8400  -22.9610   24.1780 C.2       1 57Y         0.1381
     13 C9          0.8940  -24.1010   24.1580 C.2       1 57Y         0.0979
     14 CA         -1.7540  -30.0400   25.6000 C.ar      1 57Y         0.1113
     15 C12        -0.3950  -26.2090   24.4340 C.2       1 57Y         0.1180
     16 C          -2.1930  -31.3780   26.0730 C.2       1 57Y         0.0764
     17 C1          7.2860  -19.6820   23.5780 C.3       1 57Y        -0.0637
     18 C3          4.7360  -19.1480   23.3780 C.3       1 57Y        -0.0209
     19 C2          5.9120  -20.0480   23.0820 C.3       1 57Y        -0.0477
     20 N          -0.4680  -29.7290   25.7040 N.ar      1 57Y        -0.2893
     21 N11        -1.0150  -25.3830   23.6260 N.2       1 57Y        -0.2965
     22 N7          2.8480  -22.8670   25.0740 N.pl3     1 57Y        -0.2374
     23 N6          3.5480  -21.7630   24.7200 N.2       1 57Y        -0.3040
     24 OXT        -3.3610  -31.7540   26.1630 O.co2     1 57Y        -0.5608
     25 O23         3.0220  -18.5490   21.1070 O.3       1 57Y        -0.3369
     26 O17        -3.9190  -29.3250   24.9930 O.3       1 57Y        -0.3222
     27 O          -1.1040  -32.0810   26.4730 O.co2     1 57Y        -0.5608
     28 S13         1.1030  -25.5820   24.9940 S.3       1 57Y         0.0015
     29 H1          0.2763  -22.0441   21.7882 H         1 57Y         0.0540
     30 H2          1.0459  -20.0280   20.5369 H         1 57Y         0.0521
     31 H3         -2.9186  -27.1257   24.3274 H         1 57Y         0.0684
     32 H4          0.9536  -28.2693   25.3980 H         1 57Y         0.0775
     33 H5         -0.6705  -23.3984   22.7997 H         1 57Y         0.0700
     34 H6          8.0058  -20.4531   23.2661 H         1 57Y         0.0231
     35 H7          7.2737  -19.6146   24.6759 H         1 57Y         0.0231
     36 H8          7.5822  -18.7110   23.1543 H         1 57Y         0.0231
     37 H9          4.6963  -18.8972   24.4483 H         1 57Y         0.0403
     38 H10         4.7945  -18.2225   22.7864 H         1 57Y         0.0403
     39 H11         5.6727  -21.0332   23.5087 H         1 57Y         0.0282
     40 H12         5.9813  -20.1296   21.9872 H         1 57Y         0.0282
     41 H13         3.0428  -23.5021   25.8611 H         1 57Y         0.2827
     42 H14         2.4048  -18.4592   20.3904 H         1 57Y         0.2456
     43 H15        -4.0509  -30.0508   24.3943 H         1 57Y         0.2520
@<TRIPOS>BOND
     1    2    1 ar 
     2    6    1 ar 
     3   10    2 ar 
     4    7    3 ar 
     5    3   11 ar 
     6    7    4 ar 
     7    4   20 ar 
     8   13    5 2  
     9    5   21 1  
    10    9    6 ar 
    11    6   12 2  
    12   15    7 1  
    13    8    9 ar 
    14    8   10 ar 
    15   18    8 1  
    16    9   23 2  
    17   10   25 1  
    18   11   14 ar 
    19   11   26 1  
    20   12   13 1  
    21   12   22 1  
    22   13   28 1  
    23   14   16 1  
    24   20   14 ar 
    25   15   21 2  
    26   28   15 1  
    27   16   24 ar 
    28   16   27 ar 
    29   19   17 1  
    30   18   19 1  
    31   22   23 1  
    32    1   29 1  
    33    2   30 1  
    34    3   31 1  
    35    4   32 1  
    36    5   33 1  
    37   17   34 1  
    38   17   35 1  
    39   17   36 1  
    40   18   37 1  
    41   18   38 1  
    42   19   39 1  
    43   19   40 1  
    44   22   41 1  
    45   25   42 1  
    46   26   43 1  
@<TRIPOS>SUBSTRUCTURE
     1 57Y         1

