### 
### Created by X-TOOL on Mon Sep 10 21:13:26 2018
### 

@<TRIPOS>MOLECULE
5d7x_ligand
   30    32     1     0     0
SMALL
GAST_HUCK


@<TRIPOS>ATOM
      1 C01         9.3250  -13.9880    2.6650 C.3       1 XZ8         0.0438
      2 C02         8.0730  -13.1060    2.7690 C.2       1 XZ8         0.2506
      3 O03         7.2670  -13.0750    1.8240 O.2       1 XZ8        -0.3572
      4 N04         7.9060  -12.5080    3.9800 N.am      1 XZ8        -0.1635
      5 C05         8.7760  -12.5390    5.0140 C.2       1 XZ8         0.0816
      6 C06         8.2700  -11.8480    6.0500 C.2       1 XZ8         0.0069
      7 C07         8.8530  -11.6640    7.2910 C.2       1 XZ8         0.0584
      8 C08         9.4600  -12.5780    8.0640 C.2       1 XZ8         0.0584
      9 C09         9.6760  -14.0680    7.7800 C.3       1 XZ8        -0.0199
     10 N10         9.8770  -12.0220    9.2020 N.2       1 XZ8        -0.1922
     11 N11         9.5810  -10.8270    9.1870 N.2       1 XZ8        -0.1547
     12 C12         8.9460  -10.5510    8.0430 C.2       1 XZ8         0.2579
     13 O13         8.5360   -9.4190    7.7680 O.2       1 XZ8        -0.2961
     14 C14         7.0640  -11.3880    5.6670 C.ar      1 XZ8        -0.0063
     15 C15         6.1450  -10.6570    6.3090 C.ar      1 XZ8        -0.0725
     16 C16         4.9560  -10.2870    5.6870 C.ar      1 XZ8        -0.0778
     17 C17         4.7300  -10.7030    4.3810 C.ar      1 XZ8        -0.0748
     18 C18         5.7100  -11.4660    3.7540 C.ar      1 XZ8        -0.0350
     19 C19         6.8440  -11.7930    4.3950 C.ar      1 XZ8         0.1063
     20 H1          9.9189  -13.8917    3.5859 H         1 XZ8         0.0485
     21 H2          9.9293  -13.6668    1.8038 H         1 XZ8         0.0485
     22 H3          9.0241  -15.0375    2.5309 H         1 XZ8         0.0485
     23 H4          9.7396  -13.0463    5.0086 H         1 XZ8         0.1100
     24 H5         10.2097  -14.5286    8.6244 H         1 XZ8         0.0381
     25 H6         10.2718  -14.1838    6.8626 H         1 XZ8         0.0381
     26 H7          8.7016  -14.5614    7.6492 H         1 XZ8         0.0381
     27 H8          6.3298  -10.3476    7.3313 H         1 XZ8         0.0551
     28 H9          4.2213   -9.6864    6.2111 H         1 XZ8         0.0516
     29 H10         3.8142  -10.4401    3.8640 H         1 XZ8         0.0537
     30 H11         5.5562  -11.8010    2.7346 H         1 XZ8         0.0559
@<TRIPOS>BOND
     1    1    2 1  
     2    2    3 2  
     3    2    4 am 
     4    4    5 1  
     5    4   19 1  
     6    5    6 2  
     7    6    7 1  
     8    6   14 1  
     9    7    8 2  
    10    7   12 1  
    11    8    9 1  
    12    8   10 1  
    13   10   11 2  
    14   11   12 1  
    15   12   13 2  
    16   14   15 ar 
    17   14   19 ar 
    18   15   16 ar 
    19   16   17 ar 
    20   17   18 ar 
    21   18   19 ar 
    22    1   20 1  
    23    1   21 1  
    24    1   22 1  
    25    5   23 1  
    26    9   24 1  
    27    9   25 1  
    28    9   26 1  
    29   15   27 1  
    30   16   28 1  
    31   17   29 1  
    32   18   30 1  
@<TRIPOS>SUBSTRUCTURE
     1 XZ8         1

