### 
### Created by X-TOOL on Mon Sep 10 21:13:23 2018
### 

@<TRIPOS>MOLECULE
5d9k_ligand
   51    53     1     0     0
SMALL
GAST_HUCK


@<TRIPOS>ATOM
      1 C1         -3.3840   14.3050   29.9230 C.ar      1 584         0.1764
      2 C2         -4.9880   15.2660   28.5910 C.ar      1 584         0.1454
      3 C3         -4.8700   16.4910   29.3100 C.ar      1 584         0.1271
      4 O1         -7.4020   18.3950   27.6560 O.2       1 584        -0.3839
      5 O2         -2.8970    8.3100   27.7560 O.3       1 584        -0.3406
      6 C11        -9.0340   11.6080   26.8680 C.3       1 584        -0.0626
      7 C12        -7.0450   11.6000   25.3660 C.3       1 584        -0.0626
      8 C13        -5.9840   18.6060   29.9880 C.3       1 584         0.0422
      9 C14        -2.6040   11.9330   29.7140 C.ar      1 584         0.0480
     10 C15        -3.8240   11.2630   29.6850 C.ar      1 584        -0.0176
     11 C16        -3.8830   10.0230   29.1070 C.ar      1 584         0.1490
     12 C17        -2.7980    9.4260   28.5070 C.ar      1 584         0.1425
     13 C18        -1.5900   10.0900   28.5830 C.ar      1 584         0.1490
     14 C19        -1.4670   11.3250   29.1820 C.ar      1 584        -0.0176
     15 N1         -3.1520   15.4200   30.6280 N.ar      1 584        -0.2882
     16 N2         -4.2740   14.1740   28.9210 N.ar      1 584        -0.2516
     17 C4         -3.9000   16.4830   30.3050 C.ar      1 584         0.0197
     18 N3         -2.5960   13.2370   30.2490 N.pl3     1 584        -0.2602
     19 N4         -5.7690   15.2340   27.4440 N.pl3     1 584        -0.2721
     20 C5         -6.0460   13.9620   26.7770 C.3       1 584         0.0328
     21 C6         -7.4640   13.4670   27.0280 C.3       1 584        -0.0302
     22 C7         -7.5850   12.0020   26.7290 C.3       1 584        -0.0449
     23 C8         -6.3370   16.4530   26.8350 C.3       1 584         0.1326
     24 C9         -6.5520   17.5420   27.8650 C.2       1 584         0.2281
     25 N5         -5.7870   17.5270   29.0160 N.am      1 584        -0.2209
     26 C10        -5.4660   16.9920   25.7030 C.3       1 584        -0.0239
     27 F1         -5.0240    9.3120   29.1820 F         1 584        -0.1942
     28 F2         -0.5040    9.5090   28.0150 F         1 584        -0.1942
     29 H1         -2.0356    8.0662   27.4381 H         1 584         0.2417
     30 H2         -9.1445   10.5350   26.6524 H         1 584         0.0232
     31 H3         -9.6417   12.1890   26.1586 H         1 584         0.0232
     32 H4         -9.3728   11.8125   27.8943 H         1 584         0.0232
     33 H5         -5.9887   11.8970   25.2880 H         1 584         0.0232
     34 H6         -7.6262   12.1023   24.5786 H         1 584         0.0232
     35 H7         -7.1293   10.5099   25.2451 H         1 584         0.0232
     36 H8         -5.3087   18.4567   30.8434 H         1 584         0.0544
     37 H9         -7.0267   18.5982   30.3383 H         1 584         0.0544
     38 H10        -5.7643   19.5730   29.5120 H         1 584         0.0544
     39 H11        -4.7117   11.7150   30.1125 H         1 584         0.0460
     40 H12        -0.5022   11.8160   29.2388 H         1 584         0.0460
     41 H13        -3.7374   17.4009   30.8582 H         1 584         0.0703
     42 H14        -1.8996   13.4089   30.9882 H         1 584         0.2106
     43 H15        -5.3380   13.2071   27.1496 H         1 584         0.0523
     44 H16        -5.9052   14.0938   25.6941 H         1 584         0.0523
     45 H17        -8.1587   14.0241   26.3822 H         1 584         0.0287
     46 H18        -7.7240   13.6411   28.0825 H         1 584         0.0287
     47 H19        -7.0021   11.4560   27.4854 H         1 584         0.0296
     48 H20        -7.3163   16.1859   26.4113 H         1 584         0.0803
     49 H21        -5.9293   17.8969   25.2829 H         1 584         0.0277
     50 H22        -5.3732   16.2287   24.9164 H         1 584         0.0277
     51 H23        -4.4679   17.2388   26.0940 H         1 584         0.0277
@<TRIPOS>BOND
     1    1   15 ar 
     2   16    1 ar 
     3    1   18 1  
     4    2    3 ar 
     5    2   16 ar 
     6   19    2 1  
     7    3   17 ar 
     8    3   25 1  
     9   24    4 2  
    10   12    5 1  
    11   22    6 1  
    12   22    7 1  
    13   25    8 1  
    14    9   10 ar 
    15    9   14 ar 
    16   18    9 1  
    17   10   11 ar 
    18   11   12 ar 
    19   11   27 1  
    20   13   12 ar 
    21   14   13 ar 
    22   13   28 1  
    23   17   15 ar 
    24   19   20 1  
    25   23   19 1  
    26   20   21 1  
    27   21   22 1  
    28   23   24 1  
    29   23   26 1  
    30   24   25 am 
    31    5   29 1  
    32    6   30 1  
    33    6   31 1  
    34    6   32 1  
    35    7   33 1  
    36    7   34 1  
    37    7   35 1  
    38    8   36 1  
    39    8   37 1  
    40    8   38 1  
    41   10   39 1  
    42   14   40 1  
    43   17   41 1  
    44   18   42 1  
    45   20   43 1  
    46   20   44 1  
    47   21   45 1  
    48   21   46 1  
    49   22   47 1  
    50   23   48 1  
    51   26   49 1  
    52   26   50 1  
    53   26   51 1  
@<TRIPOS>SUBSTRUCTURE
     1 584         1

