### 
### Created by X-TOOL on Mon Sep 10 21:13:21 2018
### 

@<TRIPOS>MOLECULE
5d9l_ligand
   31    33     1     0     0
SMALL
GAST_HUCK


@<TRIPOS>ATOM
      1 C1         -1.5470   11.3340   27.6370 C.2       1 583         0.0005
      2 C2         -0.5350   10.4580   28.0250 C.2       1 583         0.0397
      3 C3         -2.7330   11.0800   26.7740 C.ar      1 583        -0.0446
      4 O1         -6.0880   10.3660   24.4160 O.3       1 583        -0.3352
      5 O2         -0.0490    5.0010   26.8070 O.3       1 583        -0.3324
      6 C11        -3.7460   10.0460   24.8370 C.ar      1 583        -0.0370
      7 C12         0.9940    7.1430   27.1030 C.ar      1 583        -0.0323
      8 C13        -1.3480    6.8210   27.5460 C.ar      1 583        -0.0323
      9 C14        -4.9740   10.6040   25.1740 C.ar      1 583         0.0841
     10 C15        -0.1210    6.3130   27.1480 C.ar      1 583         0.0886
     11 C4         -1.2430   12.5450   28.2810 C.2       1 583         0.0581
     12 C5         -0.3700    9.0130   27.7960 C.ar      1 583        -0.0232
     13 N1          0.3060   11.1520   28.8250 N.2       1 583        -0.2144
     14 C6         -3.9690   11.6460   27.0880 C.ar      1 583        -0.0696
     15 C7         -2.6350   10.2860   25.6300 C.ar      1 583        -0.0696
     16 N2         -0.1300   12.4300   28.9970 N.pl3     1 583        -0.2198
     17 C8          0.8710    8.4820   27.4340 C.ar      1 583        -0.0625
     18 C9         -1.4690    8.1610   27.8660 C.ar      1 583        -0.0625
     19 C10        -5.0830   11.4060   26.3020 C.ar      1 583        -0.0370
     20 H1         -6.8299   10.8243   24.7928 H         1 583         0.2473
     21 H2          0.2395    4.9247   25.9051 H         1 583         0.2487
     22 H3         -3.6575    9.4233   23.9541 H         1 583         0.0535
     23 H4          1.9576    6.7425   26.8094 H         1 583         0.0546
     24 H5         -2.2116    6.1686   27.6063 H         1 583         0.0546
     25 H6         -1.8383   13.4536   28.2038 H         1 583         0.1011
     26 H7         -4.0583   12.2832   27.9604 H         1 583         0.0552
     27 H8         -1.6792    9.8523   25.3589 H         1 583         0.0552
     28 H9          0.3147   13.1623   29.5687 H         1 583         0.2591
     29 H10         1.7445    9.1236   27.4121 H         1 583         0.0592
     30 H11        -2.4313    8.5528   28.1751 H         1 583         0.0592
     31 H12        -6.0388   11.8435   26.5668 H         1 583         0.0535
@<TRIPOS>BOND
     1    2    1 1  
     2    1    3 1  
     3    1   11 2  
     4   12    2 1  
     5    2   13 2  
     6    3   14 ar 
     7    3   15 ar 
     8    9    4 1  
     9   10    5 1  
    10    6    9 ar 
    11   15    6 ar 
    12    7   10 ar 
    13   17    7 ar 
    14   10    8 ar 
    15    8   18 ar 
    16    9   19 ar 
    17   11   16 1  
    18   12   17 ar 
    19   12   18 ar 
    20   13   16 1  
    21   14   19 ar 
    22    4   20 1  
    23    5   21 1  
    24    6   22 1  
    25    7   23 1  
    26    8   24 1  
    27   11   25 1  
    28   14   26 1  
    29   15   27 1  
    30   16   28 1  
    31   17   29 1  
    32   18   30 1  
    33   19   31 1  
@<TRIPOS>SUBSTRUCTURE
     1 583         1

