### 
### Created by X-TOOL on Mon Sep 10 21:13:21 2018
### 

@<TRIPOS>MOLECULE
5d9p_ligand
   30    30     1     0     0
SMALL
GAST_HUCK


@<TRIPOS>ATOM
      1 C1         -1.5690  -38.1620   -4.5370 C.3       1 NBG         0.1719
      2 C2         -0.5970  -38.0610   -3.3560 C.3       1 NBG         0.1308
      3 C3          0.4510  -39.1450   -3.3850 C.3       1 NBG         0.1138
      4 C4         -0.2820  -40.4910   -3.4730 C.3       1 NBG         0.1119
      5 C5         -0.9830  -40.4420   -4.8630 C.3       1 NBG         0.1127
      6 C6         -1.5920  -41.7730   -5.2880 C.3       1 NBG         0.0730
      7 C7         -3.3670  -36.6490   -5.2650 C.2       1 NBG         0.1749
      8 C8         -4.6180  -35.9080   -4.8180 C.3       1 NBG         0.0257
      9 N1         -2.7580  -37.3340   -4.2820 N.am      1 NBG        -0.2586
     10 O3          1.2460  -39.0290   -2.1850 O.3       1 NBG        -0.3864
     11 O2          0.0210  -36.7870   -3.4210 O.3       1 NBG        -0.3844
     12 O4          0.5760  -41.6160   -3.3730 O.3       1 NBG        -0.3865
     13 O5         -2.0520  -39.4990   -4.6840 O.3       1 NBG        -0.3436
     14 O6         -2.5420  -42.1580   -4.3050 O.3       1 NBG        -0.3924
     15 O7         -2.9680  -36.6000   -6.4410 O.2       1 NBG        -0.3973
     16 H1         -1.0628  -37.8355   -5.4574 H         1 NBG         0.0896
     17 H2         -1.1632  -38.1468   -2.4168 H         1 NBG         0.0668
     18 H3          1.1006  -39.0244   -4.2644 H         1 NBG         0.0647
     19 H4         -1.0320  -40.5574   -2.6711 H         1 NBG         0.0647
     20 H5         -0.2748  -40.1020   -5.6329 H         1 NBG         0.0647
     21 H6         -0.8037  -42.5364   -5.3636 H         1 NBG         0.0584
     22 H7         -2.0889  -41.6612   -6.2629 H         1 NBG         0.0584
     23 H8         -5.0548  -35.3755   -5.6757 H         1 NBG         0.0467
     24 H9         -4.3546  -35.1843   -4.0326 H         1 NBG         0.0467
     25 H10        -5.3493  -36.6283   -4.4226 H         1 NBG         0.0467
     26 H11        -3.1228  -37.2794   -3.3525 H         1 NBG         0.1877
     27 H12         1.6792  -38.1836   -2.1740 H         1 NBG         0.2100
     28 H13         0.5196  -36.7189   -4.2268 H         1 NBG         0.2101
     29 H14         0.9899  -41.6221   -2.5179 H         1 NBG         0.2100
     30 H15        -2.9337  -42.9874   -4.5524 H         1 NBG         0.2095
@<TRIPOS>BOND
     1    1    2 1  
     2    9    1 1  
     3    1   13 1  
     4    2    3 1  
     5    2   11 1  
     6    3    4 1  
     7    3   10 1  
     8    5    4 1  
     9    4   12 1  
    10    5    6 1  
    11   13    5 1  
    12    6   14 1  
    13    7    8 1  
    14    7    9 am 
    15    7   15 2  
    16    1   16 1  
    17    2   17 1  
    18    3   18 1  
    19    4   19 1  
    20    5   20 1  
    21    6   21 1  
    22    6   22 1  
    23    8   23 1  
    24    8   24 1  
    25    8   25 1  
    26    9   26 1  
    27   10   27 1  
    28   11   28 1  
    29   12   29 1  
    30   14   30 1  
@<TRIPOS>SUBSTRUCTURE
     1 NBG         1

