### 
### Created by X-TOOL on Mon Sep 10 21:13:26 2018
### 

@<TRIPOS>MOLECULE
5db0_ligand
   66    70     1     0     0
SMALL
GAST_HUCK


@<TRIPOS>ATOM
      1 C4        -11.0610   -7.7080  -12.5410 C.ar      1 58P         0.1043
      2 C5        -10.7680   -9.0390  -12.4180 C.ar      1 58P         0.0333
      3 C6        -11.8000   -9.8930  -12.0130 C.ar      1 58P         0.1217
      4 N1        -13.0430   -9.4200  -11.7240 N.ar      1 58P        -0.2688
      5 N3        -12.2740   -7.1770  -12.2910 N.ar      1 58P        -0.2823
      6 FAE        -6.8160   -6.4570  -11.7620 F         1 58P        -0.1681
      7 CBM        -6.4630   -7.6550  -12.1620 C.3       1 58P         0.4027
      8 FAF        -6.6380   -8.3880  -11.1300 F         1 58P        -0.1681
      9 FAG        -5.1610   -7.6490  -12.4370 F         1 58P        -0.1681
     10 CAU        -7.2980   -8.0460  -13.4110 C.3       1 58P         0.0918
     11 CBB        -8.7760   -8.1300  -13.0460 C.2       1 58P         0.0295
     12 SAZ        -9.7480   -6.7670  -13.0580 S.3       1 58P        -0.0086
     13 CAN        -9.4280   -9.2710  -12.7000 C.2       1 58P        -0.0561
     14 C2        -13.2440   -8.0440  -11.8820 C.ar      1 58P         0.0546
     15 NAY       -11.5990  -11.2080  -11.9090 N.pl3     1 58P        -0.2990
     16 CBI       -12.6760  -12.1890  -11.6520 C.3       1 58P         0.0502
     17 CAQ       -12.5340  -13.3840  -12.5720 C.3       1 58P         0.0110
     18 CAS       -13.5800  -14.4670  -12.3070 C.3       1 58P        -0.0285
     19 CAP       -12.5540  -12.6600  -10.2450 C.3       1 58P         0.0110
     20 CAR       -13.5370  -13.7850   -9.9770 C.3       1 58P        -0.0285
     21 NBJ       -13.3680  -14.8980  -10.9240 N.4       1 58P         0.2460
     22 CAT       -14.3860  -15.9510  -10.6390 C.3       1 58P        -0.0028
     23 CBA       -14.3070  -17.2000  -11.4320 C.ar      1 58P        -0.0096
     24 CAL       -15.4650  -17.7240  -12.0280 C.ar      1 58P        -0.0609
     25 CAJ       -13.1260  -17.9590  -11.5510 C.ar      1 58P        -0.0622
     26 CAK       -13.1350  -19.1610  -12.2740 C.ar      1 58P        -0.0403
     27 CBH       -14.2770  -19.6140  -12.8190 C.ar      1 58P         0.0708
     28 CBE       -15.4300  -18.9130  -12.6920 C.ar      1 58P        -0.0118
     29 CAM       -16.3970  -19.6220  -13.3310 C.2       1 58P        -0.0196
     30 CBC       -15.8200  -20.7380  -13.8060 C.2       1 58P         0.1767
     31 CAH       -16.4310  -21.8130  -14.5700 C.1       1 58P         0.1114
     32 NAA       -16.8830  -22.6500  -15.1500 N.1       1 58P        -0.3423
     33 NBK       -14.5190  -20.7580  -13.5130 N.pl3     1 58P        -0.2430
     34 CAV       -13.5530  -21.8260  -13.8180 C.3       1 58P         0.0797
     35 CBL       -13.5760  -22.8500  -12.6390 C.3       1 58P         0.1041
     36 OAD       -13.1680  -22.2490  -11.3850 O.3       1 58P        -0.3869
     37 CAO       -12.6160  -23.9950  -12.9790 C.3       1 58P         0.0726
     38 OAB       -12.4030  -24.7550  -11.7770 O.3       1 58P        -0.3924
     39 H1         -6.9590   -9.0237  -13.7841 H         1 58P         0.0558
     40 H2         -7.1591   -7.2863  -14.1943 H         1 58P         0.0558
     41 H3         -8.9558  -10.2510  -12.6498 H         1 58P         0.0290
     42 H4        -14.2282   -7.6440  -11.6667 H         1 58P         0.0981
     43 H5        -10.6370  -11.5609  -12.0139 H         1 58P         0.1854
     44 H6        -13.6559  -11.7145  -11.8088 H         1 58P         0.0564
     45 H7        -11.5341  -13.8197  -12.4296 H         1 58P         0.0340
     46 H8        -12.6398  -13.0409  -13.6117 H         1 58P         0.0340
     47 H9        -13.4395  -15.3120  -12.9971 H         1 58P         0.0815
     48 H10       -14.5938  -14.0582  -12.4294 H         1 58P         0.0815
     49 H11       -12.7658  -11.8234   -9.5630 H         1 58P         0.0340
     50 H12       -11.5305  -13.0240  -10.0720 H         1 58P         0.0340
     51 H13       -14.5605  -13.3924  -10.0686 H         1 58P         0.0815
     52 H14       -13.3782  -14.1602   -8.9552 H         1 58P         0.0815
     53 H15       -12.4395  -15.2778  -10.8256 H         1 58P         0.2046
     54 H16       -15.3778  -15.5091  -10.8152 H         1 58P         0.0960
     55 H17       -14.2902  -16.2257   -9.5782 H         1 58P         0.0960
     56 H18       -16.3978  -17.1762  -11.9591 H         1 58P         0.0505
     57 H19       -12.2106  -17.6142  -11.0839 H         1 58P         0.0537
     58 H20       -12.2179  -19.7264  -12.3936 H         1 58P         0.0548
     59 H21       -17.4431  -19.3387  -13.4379 H         1 58P         0.0528
     60 H22       -12.5447  -21.3987  -13.9214 H         1 58P         0.0623
     61 H23       -13.8360  -22.3289  -14.7545 H         1 58P         0.0623
     62 H24       -14.5967  -23.2447  -12.5280 H         1 58P         0.0643
     63 H25       -12.2830  -21.9140  -11.4688 H         1 58P         0.2100
     64 H26       -11.6598  -23.5882  -13.3399 H         1 58P         0.0584
     65 H27       -13.0578  -24.6370  -13.7553 H         1 58P         0.0584
     66 H28       -12.0257  -24.1926  -11.1108 H         1 58P         0.2095
@<TRIPOS>BOND
     1    1    2 ar 
     2    1    5 ar 
     3   12    1 1  
     4    2    3 ar 
     5    2   13 1  
     6    3    4 ar 
     7    3   15 1  
     8   14    4 ar 
     9    5   14 ar 
    10    7    6 1  
    11    7    8 1  
    12    7    9 1  
    13   10    7 1  
    14   11   10 1  
    15   11   12 1  
    16   11   13 2  
    17   15   16 1  
    18   16   17 1  
    19   16   19 1  
    20   17   18 1  
    21   18   21 1  
    22   19   20 1  
    23   20   21 1  
    24   21   22 1  
    25   22   23 1  
    26   23   24 ar 
    27   23   25 ar 
    28   24   28 ar 
    29   25   26 ar 
    30   26   27 ar 
    31   27   28 ar 
    32   27   33 1  
    33   28   29 1  
    34   29   30 2  
    35   30   31 1  
    36   30   33 1  
    37   31   32 3  
    38   33   34 1  
    39   34   35 1  
    40   35   36 1  
    41   35   37 1  
    42   37   38 1  
    43   10   39 1  
    44   10   40 1  
    45   13   41 1  
    46   14   42 1  
    47   15   43 1  
    48   16   44 1  
    49   17   45 1  
    50   17   46 1  
    51   18   47 1  
    52   18   48 1  
    53   19   49 1  
    54   19   50 1  
    55   20   51 1  
    56   20   52 1  
    57   21   53 1  
    58   22   54 1  
    59   22   55 1  
    60   24   56 1  
    61   25   57 1  
    62   26   58 1  
    63   29   59 1  
    64   34   60 1  
    65   34   61 1  
    66   35   62 1  
    67   36   63 1  
    68   37   64 1  
    69   37   65 1  
    70   38   66 1  
@<TRIPOS>SUBSTRUCTURE
     1 58P         1

