### 
### Created by X-TOOL on Mon Sep 10 21:13:26 2018
### 

@<TRIPOS>MOLECULE
5db1_ligand
   59    63     1     0     0
SMALL
GAST_HUCK


@<TRIPOS>ATOM
      1 C4        -11.0560    7.5850   12.4990 C.ar      1 58O         0.1043
      2 C5        -10.7730    8.9240   12.3490 C.ar      1 58O         0.0333
      3 C6        -11.8390    9.7490   11.9570 C.ar      1 58O         0.1217
      4 N1        -13.0520    9.2310   11.6890 N.ar      1 58O        -0.2688
      5 N3        -12.2850    7.0500   12.2540 N.ar      1 58O        -0.2823
      6 FAC        -5.1620    7.6510   12.4200 F         1 58O        -0.1681
      7 CBI        -6.4200    7.5840   12.1330 C.3       1 58O         0.4027
      8 FAD        -6.7240    6.3320   11.8590 F         1 58O        -0.1681
      9 FAE        -6.6530    8.2900   11.0720 F         1 58O        -0.1681
     10 CAQ        -7.2400    8.1210   13.3210 C.3       1 58O         0.0918
     11 CAY        -8.7000    8.0820   12.9820 C.2       1 58O         0.0295
     12 SAW        -9.6820    6.7540   13.0260 S.3       1 58O        -0.0086
     13 CAJ        -9.4580    9.1830   12.6310 C.2       1 58O        -0.0561
     14 C2        -13.3140    7.8750   11.8530 C.ar      1 58O         0.0546
     15 NAT       -11.6470   11.0810   11.7830 N.pl3     1 58O        -0.2990
     16 CBG       -12.7210   12.0440   11.3640 C.3       1 58O         0.0502
     17 CAM       -12.6230   13.1700   12.3530 C.3       1 58O         0.0110
     18 CAO       -13.6650   14.2520   12.0370 C.3       1 58O        -0.0286
     19 CAL       -12.4850   12.5190    9.9620 C.3       1 58O         0.0110
     20 CAN       -13.3510   13.7710    9.6600 C.3       1 58O        -0.0286
     21 NBH       -13.2310   14.8340   10.7030 N.4       1 58O         0.2449
     22 CAP       -14.1570   15.9620   10.2910 C.3       1 58O        -0.0025
     23 CAZ       -14.0480   17.1900   11.1200 C.ar      1 58O         0.0237
     24 CAI       -15.1600   17.7270   11.8210 C.ar      1 58O        -0.0643
     25 CBC       -15.1110   18.8470   12.5380 C.ar      1 58O        -0.0197
     26 CAH       -16.0700   19.5000   13.2720 C.2       1 58O        -0.0257
     27 CAX       -15.4740   20.5820   13.7900 C.2       1 58O         0.1683
     28 CAF       -16.0130   21.6600   14.6630 C.1       1 58O         0.1045
     29 NAB       -16.4220   22.4550   15.3080 N.1       1 58O        -0.3479
     30 NAU       -14.1930   20.6320   13.4090 N.pl3     1 58O        -0.2651
     31 CBD       -13.9550   19.5560   12.6400 C.ar      1 58O         0.0591
     32 CAK       -12.8430   19.1450   11.9930 C.ar      1 58O        -0.0128
     33 CBA       -12.8810   17.9540   11.2180 C.ar      1 58O         0.0929
     34 OAV       -11.8220   17.4420   10.5300 O.3       1 58O        -0.3253
     35 CAA       -10.5280   18.0420   10.6440 C.3       1 58O         0.0583
     36 H1         -6.9410    9.1580   13.5334 H         1 58O         0.0558
     37 H2         -7.0530    7.4966   14.2071 H         1 58O         0.0558
     38 H3         -9.0388   10.1869   12.5820 H         1 58O         0.0290
     39 H4        -14.3050    7.4759   11.6696 H         1 58O         0.0981
     40 H5        -10.7024   11.4565   11.9492 H         1 58O         0.1854
     41 H6        -13.7111   11.5683   11.4223 H         1 58O         0.0564
     42 H7        -11.6163   13.6105   12.3022 H         1 58O         0.0340
     43 H8        -12.8017   12.7795   13.3657 H         1 58O         0.0340
     44 H9        -13.6654   15.0284   12.8162 H         1 58O         0.0815
     45 H10       -14.6696   13.8108   11.9584 H         1 58O         0.0815
     46 H11       -12.7508   11.7165    9.2582 H         1 58O         0.0340
     47 H12       -11.4223   12.7760    9.8408 H         1 58O         0.0340
     48 H13       -14.4044   13.4607    9.5965 H         1 58O         0.0815
     49 H14       -13.0336   14.1912    8.6942 H         1 58O         0.0815
     50 H15       -12.2814   15.1663   10.7650 H         1 58O         0.2045
     51 H16       -15.1923   15.5961   10.3555 H         1 58O         0.0943
     52 H17       -13.9273   16.2306    9.2493 H         1 58O         0.0943
     53 H18       -16.1026   17.1942   11.7691 H         1 58O         0.0493
     54 H19       -17.1078   19.1986   13.4063 H         1 58O         0.0519
     55 H20       -13.5120   21.3630   13.6597 H         1 58O         0.2230
     56 H21       -11.9269   19.7200   12.0643 H         1 58O         0.0448
     57 H22        -9.8114   17.4898   10.0182 H         1 58O         0.0576
     58 H23       -10.1997   18.0091   11.6933 H         1 58O         0.0576
     59 H24       -10.5780   19.0882   10.3080 H         1 58O         0.0576
@<TRIPOS>BOND
     1    1    2 ar 
     2    1    5 ar 
     3   12    1 1  
     4    2    3 ar 
     5    2   13 1  
     6    3    4 ar 
     7    3   15 1  
     8   14    4 ar 
     9    5   14 ar 
    10    7    6 1  
    11    7    8 1  
    12    7    9 1  
    13   10    7 1  
    14   11   10 1  
    15   11   12 1  
    16   11   13 2  
    17   15   16 1  
    18   16   17 1  
    19   16   19 1  
    20   17   18 1  
    21   18   21 1  
    22   19   20 1  
    23   20   21 1  
    24   21   22 1  
    25   22   23 1  
    26   23   24 ar 
    27   23   33 ar 
    28   24   25 ar 
    29   25   26 1  
    30   25   31 ar 
    31   26   27 2  
    32   27   28 1  
    33   27   30 1  
    34   28   29 3  
    35   30   31 1  
    36   31   32 ar 
    37   32   33 ar 
    38   33   34 1  
    39   34   35 1  
    40   10   36 1  
    41   10   37 1  
    42   13   38 1  
    43   14   39 1  
    44   15   40 1  
    45   16   41 1  
    46   17   42 1  
    47   17   43 1  
    48   18   44 1  
    49   18   45 1  
    50   19   46 1  
    51   19   47 1  
    52   20   48 1  
    53   20   49 1  
    54   21   50 1  
    55   22   51 1  
    56   22   52 1  
    57   24   53 1  
    58   26   54 1  
    59   30   55 1  
    60   32   56 1  
    61   35   57 1  
    62   35   58 1  
    63   35   59 1  
@<TRIPOS>SUBSTRUCTURE
     1 58O         1

