### 
### Created by X-TOOL on Mon Sep 10 21:13:26 2018
### 

@<TRIPOS>MOLECULE
5db2_ligand
   62    66     1     0     0
SMALL
GAST_HUCK


@<TRIPOS>ATOM
      1 C4         13.4760    7.7840   12.5450 C.ar      1 58R         0.1043
      2 C5         13.7350    9.1350   12.4360 C.ar      1 58R         0.0333
      3 C6         12.6890    9.9450   12.0100 C.ar      1 58R         0.1217
      4 N1         11.4490    9.4460   11.7320 N.ar      1 58R        -0.2688
      5 N3         12.2690    7.2440   12.3040 N.ar      1 58R        -0.2823
      6 FAD        19.3390    7.7690   12.4220 F         1 58R        -0.1681
      7 CBK        18.0620    7.7100   12.1470 C.3       1 58R         0.4027
      8 FAE        17.7150    6.4670   11.8600 F         1 58R        -0.1681
      9 FAF        17.8350    8.3960   11.0710 F         1 58R        -0.1681
     10 CAT        17.2850    8.2120   13.3780 C.3       1 58R         0.0918
     11 CBA        15.7990    8.2310   13.0270 C.2       1 58R         0.0295
     12 SAX        14.7930    6.8820   13.0300 S.3       1 58R        -0.0086
     13 CAM        15.0680    9.3630   12.6860 C.2       1 58R        -0.0561
     14 C2         11.2700    8.0880   11.9020 C.ar      1 58R         0.0546
     15 NAW        12.8550   11.3020   11.9140 N.pl3     1 58R        -0.2990
     16 CBH        11.8030   12.2740   11.5800 C.3       1 58R         0.0502
     17 CAO        11.8940   13.4460   12.5560 C.3       1 58R         0.0110
     18 CAQ        10.8870   14.5270   12.2910 C.3       1 58R        -0.0285
     19 CAN        11.9830   12.8150   10.2120 C.3       1 58R         0.0110
     20 CAP        10.9260   13.8840    9.9810 C.3       1 58R        -0.0285
     21 NBI        11.1110   15.0480   10.9120 N.4       1 58R         0.2460
     22 CAS        10.0820   16.0880   10.5890 C.3       1 58R        -0.0028
     23 CAZ        10.1890   17.2990   11.4100 C.ar      1 58R        -0.0096
     24 CAK         9.0050   17.8200   11.9810 C.ar      1 58R        -0.0609
     25 CAI        11.3960   18.0030   11.5850 C.ar      1 58R        -0.0622
     26 CAJ        11.4180   19.1780   12.3820 C.ar      1 58R        -0.0402
     27 CBG        10.2400   19.6710   12.8620 C.ar      1 58R         0.0731
     28 CBD         9.0820   18.9830   12.6920 C.ar      1 58R        -0.0116
     29 CAL         8.0890   19.7150   13.3250 C.2       1 58R        -0.0195
     30 CBB         8.6810   20.7900   13.8550 C.2       1 58R         0.1787
     31 CAG         8.0900   21.9010   14.6470 C.1       1 58R         0.1115
     32 NAA         7.6670   22.7120   15.2100 N.1       1 58R        -0.3423
     33 N          10.0090   20.8010   13.6170 N.pl3     1 58R        -0.2273
     34 CA         11.0460   21.7990   14.0500 C.3       1 58R         0.1405
     35 C          11.1700   22.8940   13.0200 C.2       1 58R         0.2028
     36 O          10.1690   23.3460   12.4500 O.2       1 58R        -0.3943
     37 NAB        12.4150   23.3790   12.8760 N.am      1 58R        -0.2987
     38 H1         17.6187    9.2266   13.6411 H         1 58R         0.0558
     39 H2         17.4583    7.5368   14.2289 H         1 58R         0.0558
     40 H3         15.5160   10.3535   12.6218 H         1 58R         0.0290
     41 H4         10.2892    7.6694   11.7073 H         1 58R         0.0981
     42 H5         13.7991   11.6737   12.0913 H         1 58R         0.1854
     43 H6         10.8186   11.7896   11.6593 H         1 58R         0.0564
     44 H7         12.9008   13.8828   12.4823 H         1 58R         0.0340
     45 H8         11.7339   13.0636   13.5749 H         1 58R         0.0340
     46 H9         11.0135   15.3402   13.0209 H         1 58R         0.0815
     47 H10         9.8700   14.1160   12.3726 H         1 58R         0.0815
     48 H11        11.8641   12.0082    9.4738 H         1 58R         0.0340
     49 H12        12.9860   13.2560   10.1149 H         1 58R         0.0340
     50 H13         9.9312   13.4459   10.1492 H         1 58R         0.0815
     51 H14        10.9988   14.2409    8.9431 H         1 58R         0.0815
     52 H15        12.0375   15.4351   10.8241 H         1 58R         0.2046
     53 H16         9.0850   15.6501   10.7446 H         1 58R         0.0960
     54 H17        10.1964   16.3734    9.5329 H         1 58R         0.0960
     55 H18         8.0578   17.3077   11.8571 H         1 58R         0.0505
     56 H19        12.3053   17.6491   11.1128 H         1 58R         0.0537
     57 H20        12.3551   19.6750   12.6053 H         1 58R         0.0548
     58 H21         7.0310   19.4628   13.3798 H         1 58R         0.0528
     59 H22        12.0158   21.2918   14.1609 H         1 58R         0.0842
     60 H23        10.7492   22.2377   15.0141 H         1 58R         0.0842
     61 H24        12.5943   24.1081   12.2155 H         1 58R         0.1815
     62 H25        13.1622   23.0108   13.4293 H         1 58R         0.1815
@<TRIPOS>BOND
     1    1    2 ar 
     2    1    5 ar 
     3   12    1 1  
     4    2    3 ar 
     5    2   13 1  
     6    3    4 ar 
     7    3   15 1  
     8   14    4 ar 
     9    5   14 ar 
    10    7    6 1  
    11    7    8 1  
    12    7    9 1  
    13   10    7 1  
    14   11   10 1  
    15   11   12 1  
    16   11   13 2  
    17   15   16 1  
    18   16   17 1  
    19   16   19 1  
    20   17   18 1  
    21   18   21 1  
    22   19   20 1  
    23   20   21 1  
    24   21   22 1  
    25   22   23 1  
    26   23   24 ar 
    27   23   25 ar 
    28   24   28 ar 
    29   25   26 ar 
    30   26   27 ar 
    31   27   28 ar 
    32   27   33 1  
    33   28   29 1  
    34   29   30 2  
    35   30   31 1  
    36   30   33 1  
    37   31   32 3  
    38   33   34 1  
    39   34   35 1  
    40   35   36 2  
    41   35   37 am 
    42   10   38 1  
    43   10   39 1  
    44   13   40 1  
    45   14   41 1  
    46   15   42 1  
    47   16   43 1  
    48   17   44 1  
    49   17   45 1  
    50   18   46 1  
    51   18   47 1  
    52   19   48 1  
    53   19   49 1  
    54   20   50 1  
    55   20   51 1  
    56   21   52 1  
    57   22   53 1  
    58   22   54 1  
    59   24   55 1  
    60   25   56 1  
    61   26   57 1  
    62   29   58 1  
    63   34   59 1  
    64   34   60 1  
    65   37   61 1  
    66   37   62 1  
@<TRIPOS>SUBSTRUCTURE
     1 58R         1

