### 
### Created by X-TOOL on Mon Sep 10 21:13:26 2018
### 

@<TRIPOS>MOLECULE
5db3_ligand
   72    77     1     0     0
SMALL
GAST_HUCK


@<TRIPOS>ATOM
      1 C4         13.3110    7.7050   12.6690 C.ar      1 58Q         0.1043
      2 C5         13.6250    9.0580   12.5340 C.ar      1 58Q         0.0333
      3 C6         12.5940    9.9200   12.0920 C.ar      1 58Q         0.1217
      4 N1         11.3660    9.4530   11.7800 N.ar      1 58Q        -0.2688
      5 N3         12.0630    7.2540   12.3890 N.ar      1 58Q        -0.2823
      6 FAD        19.2530    7.7520   12.5990 F         1 58Q        -0.1681
      7 CBP        17.9960    7.8000   12.3360 C.3       1 58Q         0.4027
      8 FAE        17.6360    6.5090   11.9820 F         1 58Q        -0.1681
      9 FAF        17.7770    8.4870   11.2680 F         1 58Q        -0.1681
     10 CAT        17.1860    8.2480   13.5880 C.3       1 58Q         0.0918
     11 CBE        15.6750    8.2140   13.2340 C.2       1 58Q         0.0295
     12 SBA        14.6500    6.8540   13.1990 S.3       1 58Q        -0.0086
     13 CAL        14.9180    9.2940   12.8500 C.2       1 58Q        -0.0561
     14 C2         11.0680    8.0840   11.9410 C.ar      1 58Q         0.0546
     15 NAX        12.7980   11.2840   11.9600 N.pl3     1 58Q        -0.2990
     16 CBM        11.7320   12.2160   11.4920 C.3       1 58Q         0.0502
     17 CAO        11.5640   13.3250   12.5450 C.3       1 58Q         0.0110
     18 CAQ        10.7090   14.4620   12.0890 C.3       1 58Q        -0.0288
     19 CAN        12.2860   12.8700   10.2470 C.3       1 58Q         0.0110
     20 CAP        11.3690   14.0460    9.8600 C.3       1 58Q        -0.0288
     21 NBN        11.3770   15.0700   10.9100 N.4       1 58Q         0.2436
     22 CAR        10.5140   16.1820   10.4220 C.3       1 58Q        -0.0058
     23 CBH        10.4610   17.3810   11.3140 C.ar      1 58Q         0.0246
     24 CBC         9.2820   17.8140   11.9750 C.ar      1 58Q        -0.0449
     25 CAB         8.0880   17.0450   11.9320 C.3       1 58Q        -0.0365
     26 CBF        11.5690   18.2320   11.4050 C.ar      1 58Q         0.0851
     27 OAZ        12.6900   17.8110   10.7360 O.3       1 58Q        -0.3274
     28 CAA        13.9510   18.5150   10.8190 C.3       1 58Q         0.0581
     29 CAM        11.5110   19.4010   12.2040 C.ar      1 58Q        -0.0203
     30 CBL        10.3790   19.7640   12.8080 C.ar      1 58Q         0.0576
     31 CBI         9.2600   18.9880   12.6980 C.ar      1 58Q        -0.0139
     32 CAK         8.2680   19.6170   13.4170 C.2       1 58Q        -0.0270
     33 CBD         8.8010   20.7550   13.9440 C.2       1 58Q         0.1690
     34 CAG         8.1770   21.7730   14.7590 C.1       1 58Q         0.1013
     35 NAC         7.6990   22.5650   15.3790 N.1       1 58Q        -0.3508
     36 NBO        10.0870   20.8780   13.5700 N.pl3     1 58Q        -0.2478
     37 CAS        11.0400   21.9480   13.8920 C.3       1 58Q         0.0693
     38 CBB        10.8850   23.0800   12.8980 C.2       1 58Q        -0.0051
     39 CAI        11.8580   23.7500   12.3040 C.2       1 58Q        -0.0010
     40 NAU        11.2880   24.6880   11.5160 N.2       1 58Q        -0.2254
     41 NAY        10.0740   24.6180   11.6060 N.pl3     1 58Q        -0.2295
     42 CAJ         9.7670   23.6400   12.4850 C.2       1 58Q         0.0455
     43 H1         17.4776    9.2697   13.8727 H         1 58Q         0.0558
     44 H2         17.3867    7.5627   14.4247 H         1 58Q         0.0558
     45 H3         15.3409   10.2964   12.8022 H         1 58Q         0.0290
     46 H4         10.0799    7.6988   11.7168 H         1 58Q         0.0981
     47 H5         13.7236   11.6701   12.1947 H         1 58Q         0.1854
     48 H6         10.7839   11.6925   11.2997 H         1 58Q         0.0564
     49 H7         12.5598   13.7186   12.7966 H         1 58Q         0.0340
     50 H8         11.1061   12.8847   13.4430 H         1 58Q         0.0340
     51 H9         10.6125   15.2067   12.8928 H         1 58Q         0.0815
     52 H10         9.7111   14.0940   11.8083 H         1 58Q         0.0815
     53 H11        12.3165   12.1383    9.4263 H         1 58Q         0.0340
     54 H12        13.3022   13.2420   10.4446 H         1 58Q         0.0340
     55 H13        10.3424   13.6751    9.7238 H         1 58Q         0.0815
     56 H14        11.7265   14.4895    8.9190 H         1 58Q         0.0815
     57 H15        12.3094   15.3856   11.1269 H         1 58Q         0.2043
     58 H16         9.4904   15.7951   10.3097 H         1 58Q         0.0922
     59 H17        10.8942   16.5034    9.4411 H         1 58Q         0.0922
     60 H18         8.2541   16.1437   11.3237 H         1 58Q         0.0379
     61 H19         7.2813   17.6450   11.4856 H         1 58Q         0.0379
     62 H20         7.8042   16.7509   12.9533 H         1 58Q         0.0379
     63 H21        14.7013   17.9970   10.2036 H         1 58Q         0.0576
     64 H22        14.2889   18.5398   11.8655 H         1 58Q         0.0576
     65 H23        13.8217   19.5435   10.4509 H         1 58Q         0.0576
     66 H24        12.4001   20.0091   12.3260 H         1 58Q         0.0385
     67 H25         7.2439   19.2683   13.5417 H         1 58Q         0.0522
     68 H26        12.0654   21.5531   13.8406 H         1 58Q         0.0680
     69 H27        10.8416   22.3221   14.9072 H         1 58Q         0.0680
     70 H28        12.9260   23.5770   12.4276 H         1 58Q         0.0627
     71 H29         9.3974   25.2053   11.0978 H         1 58Q         0.2534
     72 H30         8.7625   23.3610   12.7998 H         1 58Q         0.0871
@<TRIPOS>BOND
     1    1    2 ar 
     2    1    5 ar 
     3   12    1 1  
     4    2    3 ar 
     5    2   13 1  
     6    3    4 ar 
     7    3   15 1  
     8   14    4 ar 
     9    5   14 ar 
    10    7    6 1  
    11    7    8 1  
    12    7    9 1  
    13   10    7 1  
    14   11   10 1  
    15   11   12 1  
    16   11   13 2  
    17   15   16 1  
    18   16   17 1  
    19   16   19 1  
    20   17   18 1  
    21   18   21 1  
    22   19   20 1  
    23   20   21 1  
    24   21   22 1  
    25   22   23 1  
    26   23   24 ar 
    27   23   26 ar 
    28   24   25 1  
    29   24   31 ar 
    30   26   27 1  
    31   26   29 ar 
    32   27   28 1  
    33   29   30 ar 
    34   30   31 ar 
    35   30   36 1  
    36   31   32 1  
    37   32   33 2  
    38   33   34 1  
    39   33   36 1  
    40   34   35 3  
    41   36   37 1  
    42   37   38 1  
    43   38   39 1  
    44   38   42 2  
    45   39   40 2  
    46   40   41 1  
    47   41   42 1  
    48   10   43 1  
    49   10   44 1  
    50   13   45 1  
    51   14   46 1  
    52   15   47 1  
    53   16   48 1  
    54   17   49 1  
    55   17   50 1  
    56   18   51 1  
    57   18   52 1  
    58   19   53 1  
    59   19   54 1  
    60   20   55 1  
    61   20   56 1  
    62   21   57 1  
    63   22   58 1  
    64   22   59 1  
    65   25   60 1  
    66   25   61 1  
    67   25   62 1  
    68   28   63 1  
    69   28   64 1  
    70   28   65 1  
    71   29   66 1  
    72   32   67 1  
    73   37   68 1  
    74   37   69 1  
    75   39   70 1  
    76   41   71 1  
    77   42   72 1  
@<TRIPOS>SUBSTRUCTURE
     1 58Q         1

