### 
### Created by X-TOOL on Mon Sep 10 21:13:27 2018
### 

@<TRIPOS>MOLECULE
5dbm_ligand
   44    46     1     0     0
SMALL
GAST_HUCK


@<TRIPOS>ATOM
      1 CAT         6.5070   52.2960   49.2220 C.3       1 58N        -0.0299
      2 CAS         6.7440   53.2690   48.0420 C.3       1 58N         0.0843
      3 CAU         6.0490   52.6640   46.8250 C.3       1 58N        -0.0299
      4 CAV         8.1850   53.3810   47.8110 C.3       1 58N        -0.0299
      5 NAQ         6.1300   54.6140   48.3470 N.pl3     1 58N        -0.2006
      6 CAR         5.3580   55.0030   49.3780 C.2       1 58N         0.0590
      7 NAP         6.1950   55.5960   47.3950 N.2       1 58N        -0.2148
      8 CAO         5.4670   56.6490   47.8780 C.2       1 58N         0.0028
      9 CAN         4.9810   56.3140   49.1170 C.2       1 58N        -0.0092
     10 CAJ         4.1580   57.0270   49.9200 C.ar      1 58N        -0.0281
     11 CAE         4.2460   58.4270   50.1800 C.ar      1 58N         0.0638
     12 NAD         5.3050   59.1040   49.5680 N.pl3     1 58N        -0.3245
     13 CAC         5.1550   60.2880   48.6930 C.3       1 58N         0.0470
     14 CAH         6.3970   61.1000   48.7930 C.3       1 58N        -0.0409
     15 CAB         3.8780   61.0300   48.9470 C.3       1 58N         0.0641
     16 CAA         3.8420   61.3580   50.3600 C.2       1 58N         0.2023
     17 OAI         4.1040   62.5230   50.8150 O.2       1 58N        -0.3865
     18 NAG         3.4370   60.4160   51.2700 N.am      1 58N        -0.2394
     19 CAF         3.3080   59.0410   50.9620 C.ar      1 58N         0.0820
     20 CAM         2.2770   58.3680   51.5940 C.ar      1 58N        -0.0561
     21 CAL         2.1500   56.9720   51.3460 C.ar      1 58N        -0.0927
     22 CAK         3.0960   56.3790   50.5380 C.ar      1 58N        -0.0877
     23 H1          6.9582   51.3202   48.9889 H         1 58N         0.0264
     24 H2          5.4260   52.1711   49.3828 H         1 58N         0.0264
     25 H3          6.9684   52.7051   50.1329 H         1 58N         0.0264
     26 H4          6.1905   53.3238   45.9563 H         1 58N         0.0264
     27 H5          4.9741   52.5564   47.0324 H         1 58N         0.0264
     28 H6          6.4816   51.6759   46.6092 H         1 58N         0.0264
     29 H7          8.6657   53.8184   48.6985 H         1 58N         0.0264
     30 H8          8.3676   54.0268   46.9394 H         1 58N         0.0264
     31 H9          8.6048   52.3820   47.6216 H         1 58N         0.0264
     32 H10         5.0827   54.4068   50.2468 H         1 58N         0.0995
     33 H11         5.3009   57.5951   47.3649 H         1 58N         0.0663
     34 H12         6.2584   58.7534   49.7384 H         1 58N         0.1718
     35 H13         5.0941   59.9258   47.6562 H         1 58N         0.0566
     36 H14         6.3077   61.9874   48.1492 H         1 58N         0.0253
     37 H15         7.2570   60.4962   48.4678 H         1 58N         0.0253
     38 H16         6.5449   61.4170   49.8359 H         1 58N         0.0253
     39 H17         3.0169   60.3974   48.6856 H         1 58N         0.0529
     40 H18         3.8522   61.9511   48.3462 H         1 58N         0.0529
     41 H19         3.2217   60.7161   52.1993 H         1 58N         0.2214
     42 H20         1.5906   58.8855   52.2544 H         1 58N         0.0428
     43 H21         1.3388   56.3964   51.7770 H         1 58N         0.0460
     44 H22         3.0031   55.3122   50.3698 H         1 58N         0.0416
@<TRIPOS>BOND
     1    1    2 1  
     2    2    3 1  
     3    2    4 1  
     4    2    5 1  
     5    5    6 1  
     6    5    7 1  
     7    6    9 2  
     8    7    8 2  
     9    8    9 1  
    10    9   10 1  
    11   10   11 ar 
    12   10   22 ar 
    13   11   12 1  
    14   11   19 ar 
    15   12   13 1  
    16   13   14 1  
    17   13   15 1  
    18   15   16 1  
    19   16   17 2  
    20   16   18 am 
    21   18   19 1  
    22   19   20 ar 
    23   20   21 ar 
    24   21   22 ar 
    25    1   23 1  
    26    1   24 1  
    27    1   25 1  
    28    3   26 1  
    29    3   27 1  
    30    3   28 1  
    31    4   29 1  
    32    4   30 1  
    33    4   31 1  
    34    6   32 1  
    35    8   33 1  
    36   12   34 1  
    37   13   35 1  
    38   14   36 1  
    39   14   37 1  
    40   14   38 1  
    41   15   39 1  
    42   15   40 1  
    43   18   41 1  
    44   20   42 1  
    45   21   43 1  
    46   22   44 1  
@<TRIPOS>SUBSTRUCTURE
     1 58N         1

