### 
### Created by X-TOOL on Mon Sep 10 21:13:27 2018
### 

@<TRIPOS>MOLECULE
5dcz_ligand
   45    49     1     0     0
SMALL
GAST_HUCK


@<TRIPOS>ATOM
      1 C20        -0.7860  -11.7880  -19.6090 C.ar      1 59B        -0.0316
      2 C11        -2.5110   -8.6770  -24.0280 C.3       1 59B         0.0680
      3 C14        -3.2150   -9.9200  -23.4530 C.3       1 59B         0.0566
      4 C22        -1.9650  -12.0020  -18.8810 C.ar      1 59B         0.0720
      5 C17        -1.9700  -12.0350  -21.6960 C.ar      1 59B         0.0382
      6 C18        -0.7810  -11.8060  -21.0060 C.ar      1 59B        -0.0511
      7 O01        -1.3910  -13.0300  -23.6990 O.2       1 59B        -0.3898
      8 C02        -1.9550  -12.0670  -23.1750 C.2       1 59B         0.1991
      9 N03        -2.5260  -11.1300  -23.9390 N.am      1 59B        -0.2697
     10 C04        -2.5060  -11.1700  -25.4180 C.3       1 59B         0.0566
     11 C07        -1.9110   -9.8750  -26.0080 C.3       1 59B         0.0680
     12 O10        -2.5370   -8.7060  -25.4610 O.3       1 59B        -0.3758
     13 N23        -1.8260  -11.9670  -17.4690 N.pl3     1 59B        -0.2395
     14 C25        -2.8080  -12.1390  -16.5190 C.2       1 59B         0.2096
     15 N26        -4.1030  -12.2070  -16.7740 N.2       1 59B        -0.2729
     16 C27        -5.0500  -12.3620  -15.7430 C.ar      1 59B         0.0629
     17 C28        -6.4130  -12.4280  -16.0550 C.ar      1 59B        -0.0498
     18 C30        -7.3680  -12.5920  -15.0370 C.ar      1 59B        -0.0693
     19 C32        -6.9490  -12.6800  -13.7000 C.ar      1 59B        -0.0669
     20 C34        -5.5840  -12.6080  -13.3830 C.ar      1 59B        -0.0223
     21 C36        -4.6400  -12.4500  -14.4040 C.ar      1 59B         0.1463
     22 N37        -3.2660  -12.3740  -14.1060 N.pl3     1 59B        -0.0817
     23 N38        -2.5010  -12.4270  -12.8820 N.2       1 59B        -0.0461
     24 N39        -1.2910  -12.3150  -13.1610 N.2       1 59B        -0.1344
     25 N40        -1.1570  -12.1780  -14.5860 N.2       1 59B        -0.1966
     26 C41        -2.3550  -12.2190  -15.1130 C.2       1 59B         0.2618
     27 C42        -3.1660  -12.2340  -19.5790 C.ar      1 59B        -0.0316
     28 C44        -3.1620  -12.2520  -20.9840 C.ar      1 59B        -0.0511
     29 H1          0.1406  -11.6048  -19.0771 H         1 59B         0.0553
     30 H2         -1.4661   -8.6610  -23.6848 H         1 59B         0.0580
     31 H3         -3.0270   -7.7722  -23.6744 H         1 59B         0.0580
     32 H4         -4.2642   -9.9354  -23.7831 H         1 59B         0.0544
     33 H5         -3.1768   -9.8902  -22.3541 H         1 59B         0.0544
     34 H6          0.1423  -11.6428  -21.5500 H         1 59B         0.0641
     35 H7         -3.5352  -11.2913  -25.7867 H         1 59B         0.0544
     36 H8         -1.8962  -12.0252  -25.7447 H         1 59B         0.0544
     37 H9         -2.0567   -9.8802  -27.0983 H         1 59B         0.0580
     38 H10        -0.8350   -9.8419  -25.7820 H         1 59B         0.0580
     39 H11        -0.8760  -11.7918  -17.1117 H         1 59B         0.2216
     40 H12        -6.7337  -12.3522  -17.0877 H         1 59B         0.0577
     41 H13        -8.4222  -12.6502  -15.2828 H         1 59B         0.0568
     42 H14        -7.6817  -12.8039  -12.9107 H         1 59B         0.0576
     43 H15        -5.2616  -12.6746  -12.3502 H         1 59B         0.0592
     44 H16        -4.0891  -12.3979  -19.0349 H         1 59B         0.0553
     45 H17        -4.0849  -12.4346  -21.5225 H         1 59B         0.0641
@<TRIPOS>BOND
     1    1    4 ar 
     2    6    1 ar 
     3    3    2 1  
     4    2   12 1  
     5    9    3 1  
     6    4   13 1  
     7    4   27 ar 
     8    5    6 ar 
     9    8    5 1  
    10    5   28 ar 
    11    8    7 2  
    12    8    9 am 
    13    9   10 1  
    14   10   11 1  
    15   11   12 1  
    16   13   14 1  
    17   14   15 2  
    18   14   26 1  
    19   15   16 1  
    20   16   17 ar 
    21   16   21 ar 
    22   17   18 ar 
    23   18   19 ar 
    24   19   20 ar 
    25   20   21 ar 
    26   21   22 1  
    27   22   23 1  
    28   22   26 1  
    29   23   24 2  
    30   24   25 1  
    31   25   26 2  
    32   27   28 ar 
    33    1   29 1  
    34    2   30 1  
    35    2   31 1  
    36    3   32 1  
    37    3   33 1  
    38    6   34 1  
    39   10   35 1  
    40   10   36 1  
    41   11   37 1  
    42   11   38 1  
    43   13   39 1  
    44   17   40 1  
    45   18   41 1  
    46   19   42 1  
    47   20   43 1  
    48   27   44 1  
    49   28   45 1  
@<TRIPOS>SUBSTRUCTURE
     1 59B         1

