### 
### Created by X-TOOL on Mon Sep 10 21:13:21 2018
### 

@<TRIPOS>MOLECULE
5dd9_ligand
   41    44     1     0     0
SMALL
GAST_HUCK


@<TRIPOS>ATOM
      1 C4        -13.3730    7.4140  -12.4190 C.ar      1 59K         0.1043
      2 C5        -13.5220    8.7410  -12.1300 C.ar      1 59K         0.0334
      3 C6        -12.4420    9.4020  -11.6040 C.ar      1 59K         0.1241
      4 N1        -11.2700    8.7570  -11.3860 N.ar      1 59K        -0.2686
      5 N3        -12.2240    6.7840  -12.2060 N.ar      1 59K        -0.2823
      6 FAB       -17.7500    6.4250  -12.0240 F         1 59K        -0.1681
      7 CAZ       -18.0090    7.7380  -12.1820 C.3       1 59K         0.4027
      8 FAC       -17.7500    8.3520  -11.0260 F         1 59K        -0.1681
      9 FAD       -19.2940    7.8810  -12.4770 F         1 59K        -0.1681
     10 CAK       -17.1340    8.3470  -13.3120 C.3       1 59K         0.0918
     11 CAS       -15.6600    8.2050  -12.9090 C.2       1 59K         0.0295
     12 SAQ       -14.7670    6.7170  -13.0870 S.3       1 59K        -0.0086
     13 CAF       -14.8070    9.1460  -12.4130 C.2       1 59K        -0.0561
     14 C2        -11.1110    7.4290  -11.7130 C.ar      1 59K         0.0547
     15 NAY       -12.4030   10.7270  -11.2920 N.pl3     1 59K        -0.2845
     16 CAJ       -11.2610   11.2880  -10.5140 C.3       1 59K         0.0533
     17 CAH       -11.4690   12.7780  -10.2500 C.3       1 59K         0.0559
     18 CAI       -13.2760   11.7410  -11.9410 C.3       1 59K         0.0533
     19 CAG       -12.4370   12.9320  -12.4970 C.3       1 59K         0.0559
     20 NAX       -11.5520   13.4780  -11.5120 N.pl3     1 59K        -0.2679
     21 CAT       -10.7330   14.4650  -11.8470 C.2       1 59K         0.1931
     22 SAP       -10.6380   15.0950  -13.4470 S.3       1 59K         0.0604
     23 NAO        -9.8860   15.0470  -10.9840 N.2       1 59K        -0.2736
     24 NAN        -9.1080   16.0570  -11.6150 N.2       1 59K        -0.2849
     25 CAR        -9.3940   16.1870  -12.9290 C.2       1 59K         0.0967
     26 CAA        -8.6960   17.1900  -13.8490 C.3       1 59K         0.0036
     27 H1        -17.3830    9.4104  -13.4432 H         1 59K         0.0558
     28 H2        -17.3156    7.8089  -14.2541 H         1 59K         0.0558
     29 H3        -15.1282   10.1734  -12.2479 H         1 59K         0.0290
     30 H4        -10.1624    6.9192  -11.5893 H         1 59K         0.0981
     31 H5        -10.3315   11.1487  -11.0854 H         1 59K         0.0548
     32 H6        -11.1836   10.7583   -9.5531 H         1 59K         0.0548
     33 H7        -10.6225   13.1699   -9.6671 H         1 59K         0.0549
     34 H8        -12.4019   12.9249   -9.6860 H         1 59K         0.0549
     35 H9        -13.9947   12.1227  -11.2009 H         1 59K         0.0548
     36 H10       -13.8209   11.2674  -12.7709 H         1 59K         0.0548
     37 H11       -13.1240   13.7227  -12.8329 H         1 59K         0.0549
     38 H12       -11.8409   12.5772  -13.3507 H         1 59K         0.0549
     39 H13        -7.9508   17.7586  -13.2733 H         1 59K         0.0469
     40 H14        -9.4407   17.8821  -14.2691 H         1 59K         0.0469
     41 H15        -8.1945   16.6507  -14.6661 H         1 59K         0.0469
@<TRIPOS>BOND
     1    1    2 ar 
     2    1    5 ar 
     3   12    1 1  
     4    2    3 ar 
     5    2   13 1  
     6    3    4 ar 
     7    3   15 1  
     8   14    4 ar 
     9    5   14 ar 
    10    7    6 1  
    11    7    8 1  
    12    7    9 1  
    13   10    7 1  
    14   11   10 1  
    15   11   12 1  
    16   11   13 2  
    17   15   16 1  
    18   15   18 1  
    19   16   17 1  
    20   17   20 1  
    21   18   19 1  
    22   19   20 1  
    23   20   21 1  
    24   21   22 1  
    25   21   23 2  
    26   22   25 1  
    27   23   24 1  
    28   24   25 2  
    29   25   26 1  
    30   10   27 1  
    31   10   28 1  
    32   13   29 1  
    33   14   30 1  
    34   16   31 1  
    35   16   32 1  
    36   17   33 1  
    37   17   34 1  
    38   18   35 1  
    39   18   36 1  
    40   19   37 1  
    41   19   38 1  
    42   26   39 1  
    43   26   40 1  
    44   26   41 1  
@<TRIPOS>SUBSTRUCTURE
     1 59K         1

