### 
### Created by X-TOOL on Mon Sep 10 21:13:21 2018
### 

@<TRIPOS>MOLECULE
5dda_ligand
   41    44     1     0     0
SMALL
GAST_HUCK


@<TRIPOS>ATOM
      1 C4         10.9890    7.5010  -12.2820 C.ar      1 59M         0.1043
      2 C5         10.8660    8.8130  -11.9760 C.ar      1 59M         0.0334
      3 C6         11.9440    9.4770  -11.4820 C.ar      1 59M         0.1241
      4 N1         13.0990    8.8350  -11.3070 N.ar      1 59M        -0.2686
      5 N3         12.1300    6.8510  -12.1090 N.ar      1 59M        -0.2823
      6 FAB         5.1330    7.9890  -12.3620 F         1 59M        -0.1681
      7 CBA         6.4100    7.8030  -12.0090 C.3       1 59M         0.4027
      8 FAC         6.6300    6.5000  -11.8600 F         1 59M        -0.1681
      9 FAD         6.6310    8.4220  -10.8530 F         1 59M        -0.1681
     10 CAL         7.3380    8.3750  -13.1010 C.3       1 59M         0.0918
     11 CAS         8.8060    8.2520  -12.7160 C.2       1 59M         0.0295
     12 SAR         9.5850    6.9100  -12.8750 S.3       1 59M        -0.0086
     13 CAF         9.6040    9.2240  -12.2360 C.2       1 59M        -0.0561
     14 C2         13.2470    7.4990  -11.6240 C.ar      1 59M         0.0547
     15 NAZ        11.9590   10.7940  -11.1600 N.pl3     1 59M        -0.2845
     16 CAK        12.9280   11.3860  -10.2070 C.3       1 59M         0.0533
     17 CAI        12.7920   12.9250  -10.1560 C.3       1 59M         0.0559
     18 CAJ        11.0280   11.7260  -11.8600 C.3       1 59M         0.0533
     19 CAH        11.7510   12.9480  -12.4740 C.3       1 59M         0.0559
     20 NAY        12.7080   13.5430  -11.5100 N.pl3     1 59M        -0.2679
     21 CAU        13.5440   14.5200  -11.7960 C.2       1 59M         0.1932
     22 SAQ        13.7100   15.2210  -13.1940 S.3       1 59M         0.0634
     23 NAP        14.3810   15.0190  -10.8880 N.2       1 59M        -0.2735
     24 NAO        15.0650   15.8860  -11.3300 N.2       1 59M        -0.2825
     25 CAT        14.8180   16.1300  -12.6160 C.2       1 59M         0.1312
     26 CAG        15.5730   17.1950  -13.4040 C.3       1 59M         0.1580
     27 FAA        14.7490   17.7950  -14.2070 F         1 59M        -0.2260
     28 H1          7.0973    9.4376  -13.2522 H         1 59M         0.0558
     29 H2          7.1681    7.8236  -14.0375 H         1 59M         0.0558
     30 H3          9.2651   10.2459  -12.0723 H         1 59M         0.0290
     31 H4         14.1933    6.9854  -11.4980 H         1 59M         0.0981
     32 H5         13.9485   11.1263  -10.5250 H         1 59M         0.0548
     33 H6         12.7409   10.9758   -9.2037 H         1 59M         0.0548
     34 H7         13.6682   13.3381   -9.6350 H         1 59M         0.0549
     35 H8         11.8794   13.1788   -9.5967 H         1 59M         0.0549
     36 H9         10.2819   12.0863  -11.1365 H         1 59M         0.0548
     37 H10        10.5210   11.1761  -12.6665 H         1 59M         0.0548
     38 H11        11.0033   13.7055  -12.7516 H         1 59M         0.0549
     39 H12        12.2989   12.6271  -13.3722 H         1 59M         0.0549
     40 H13        16.3760   16.7210  -13.9875 H         1 59M         0.0861
     41 H14        16.0085   17.9277  -12.7087 H         1 59M         0.0861
@<TRIPOS>BOND
     1    1    2 ar 
     2    1    5 ar 
     3   12    1 1  
     4    2    3 ar 
     5    2   13 1  
     6    3    4 ar 
     7    3   15 1  
     8   14    4 ar 
     9    5   14 ar 
    10    7    6 1  
    11    7    8 1  
    12    7    9 1  
    13   10    7 1  
    14   11   10 1  
    15   11   12 1  
    16   11   13 2  
    17   15   16 1  
    18   15   18 1  
    19   16   17 1  
    20   17   20 1  
    21   18   19 1  
    22   19   20 1  
    23   20   21 1  
    24   21   22 1  
    25   21   23 2  
    26   22   25 1  
    27   23   24 1  
    28   24   25 2  
    29   25   26 1  
    30   26   27 1  
    31   10   28 1  
    32   10   29 1  
    33   13   30 1  
    34   14   31 1  
    35   16   32 1  
    36   16   33 1  
    37   17   34 1  
    38   17   35 1  
    39   18   36 1  
    40   18   37 1  
    41   19   38 1  
    42   19   39 1  
    43   26   40 1  
    44   26   41 1  
@<TRIPOS>SUBSTRUCTURE
     1 59M         1

