### 
### Created by X-TOOL on Mon Sep 10 21:13:23 2018
### 

@<TRIPOS>MOLECULE
5ddb_ligand
   41    44     1     0     0
SMALL
GAST_HUCK


@<TRIPOS>ATOM
      1 C4         10.9450    7.5470  -12.3190 C.ar      1 59Q         0.1043
      2 C5         10.8170    8.8580  -12.0050 C.ar      1 59Q         0.0334
      3 C6         11.9100    9.5160  -11.5030 C.ar      1 59Q         0.1241
      4 N1         13.0510    8.8540  -11.3020 N.ar      1 59Q        -0.2686
      5 N3         12.0850    6.9210  -12.1380 N.ar      1 59Q        -0.2823
      6 FAC         5.1130    7.9790  -12.2780 F         1 59Q        -0.1681
      7 CBB         6.3660    7.8370  -12.0200 C.3       1 59Q         0.4027
      8 FAD         6.5840    6.6070  -11.8780 F         1 59Q        -0.1681
      9 FAE         6.5880    8.3780  -10.9570 F         1 59Q        -0.1681
     10 CAL         7.2570    8.4520  -13.1270 C.3       1 59Q         0.0918
     11 CAS         8.7440    8.2900  -12.7680 C.2       1 59Q         0.0295
     12 SAR         9.5700    6.8800  -12.9590 S.3       1 59Q        -0.0086
     13 CAG         9.5480    9.2570  -12.2720 C.2       1 59Q        -0.0561
     14 C2         13.2080    7.5390  -11.6530 C.ar      1 59Q         0.0547
     15 NBA        11.9980   10.8320  -11.1640 N.pl3     1 59Q        -0.2845
     16 CAK        11.0230   11.8070  -11.7160 C.3       1 59Q         0.0533
     17 CAI        11.7170   13.0560  -12.2880 C.3       1 59Q         0.0559
     18 CAJ        13.0760   11.3250  -10.2750 C.3       1 59Q         0.0533
     19 CAH        12.9950   12.8490  -10.0870 C.3       1 59Q         0.0559
     20 NAZ        12.7760   13.5520  -11.3770 N.pl3     1 59Q        -0.2679
     21 CAU        13.5640   14.5850  -11.7030 C.2       1 59Q         0.1933
     22 SAQ        13.6370   15.3290  -13.1610 S.3       1 59Q         0.0666
     23 NAP        14.4300   15.1570  -10.8610 N.2       1 59Q        -0.2734
     24 NAO        15.1040   16.1550  -11.4110 N.2       1 59Q        -0.2800
     25 CAT        14.7710   16.3700  -12.6860 C.2       1 59Q         0.1664
     26 CAY        15.3790   17.4440  -13.5740 C.3       1 59Q         0.3070
     27 FAA        14.4700   18.4520  -13.7790 F         1 59Q        -0.1855
     28 FAB        15.7470   16.8770  -14.7940 F         1 59Q        -0.1855
     29 H1          7.0229    9.5220  -13.2284 H         1 59Q         0.0558
     30 H2          7.0562    7.9408  -14.0800 H         1 59Q         0.0558
     31 H3          9.2042   10.2759  -12.1003 H         1 59Q         0.0290
     32 H4         14.1559    7.0225  -11.5539 H         1 59Q         0.0981
     33 H5         10.3382   12.1177  -10.9132 H         1 59Q         0.0548
     34 H6         10.4499   11.3203  -12.5189 H         1 59Q         0.0548
     35 H7         10.9674   13.8484  -12.4301 H         1 59Q         0.0549
     36 H8         12.1697   12.8013  -13.2576 H         1 59Q         0.0549
     37 H9         14.0500   11.0704  -10.7183 H         1 59Q         0.0548
     38 H10        12.9813   10.8378   -9.2934 H         1 59Q         0.0548
     39 H11        13.9370   13.2038   -9.6434 H         1 59Q         0.0549
     40 H12        12.1603   13.0805   -9.4090 H         1 59Q         0.0549
     41 H13        16.2717   17.8586  -13.0829 H         1 59Q         0.1272
@<TRIPOS>BOND
     1    1    2 ar 
     2    1    5 ar 
     3   12    1 1  
     4    2    3 ar 
     5    2   13 1  
     6    3    4 ar 
     7    3   15 1  
     8   14    4 ar 
     9    5   14 ar 
    10    7    6 1  
    11    7    8 1  
    12    7    9 1  
    13   10    7 1  
    14   11   10 1  
    15   11   12 1  
    16   11   13 2  
    17   15   16 1  
    18   15   18 1  
    19   16   17 1  
    20   17   20 1  
    21   18   19 1  
    22   19   20 1  
    23   20   21 1  
    24   21   22 1  
    25   21   23 2  
    26   22   25 1  
    27   23   24 1  
    28   24   25 2  
    29   25   26 1  
    30   26   27 1  
    31   26   28 1  
    32   10   29 1  
    33   10   30 1  
    34   13   31 1  
    35   14   32 1  
    36   16   33 1  
    37   16   34 1  
    38   17   35 1  
    39   17   36 1  
    40   18   37 1  
    41   18   38 1  
    42   19   39 1  
    43   19   40 1  
    44   26   41 1  
@<TRIPOS>SUBSTRUCTURE
     1 59Q         1

