### 
### Created by X-TOOL on Mon Sep 10 21:13:26 2018
### 

@<TRIPOS>MOLECULE
5ddc_ligand
   41    44     1     0     0
SMALL
GAST_HUCK


@<TRIPOS>ATOM
      1 C4        -13.6180    7.5880  -12.3510 C.ar      1 59V         0.1043
      2 C5        -13.7750    8.9060  -12.0650 C.ar      1 59V         0.0334
      3 C6        -12.6990    9.5760  -11.5810 C.ar      1 59V         0.1241
      4 N1        -11.5630    8.8970  -11.3880 N.ar      1 59V        -0.2686
      5 N3        -12.4620    6.9560  -12.1700 N.ar      1 59V        -0.2823
      6 FAA       -18.0170    8.4380  -10.8670 F         1 59V        -0.1681
      7 CBB       -18.2420    7.8590  -12.0420 C.3       1 59V         0.4027
      8 FAB       -19.5230    8.0010  -12.3670 F         1 59V        -0.1681
      9 FAC       -17.9450    6.5660  -11.9630 F         1 59V        -0.1681
     10 CAM       -17.3430    8.5010  -13.1680 C.3       1 59V         0.0918
     11 CAT       -15.8480    8.3410  -12.8050 C.2       1 59V         0.0295
     12 SAS       -14.9940    6.9430  -12.9530 S.3       1 59V        -0.0086
     13 CAH       -15.0430    9.3100  -12.3300 C.2       1 59V        -0.0561
     14 C2        -11.3580    7.5860  -11.6980 C.ar      1 59V         0.0547
     15 NBA       -12.6150   10.9040  -11.2610 N.pl3     1 59V        -0.2841
     16 CAL       -13.4880   11.9350  -11.8540 C.3       1 59V         0.0552
     17 CAJ       -12.6740   13.0630  -12.4360 C.3       1 59V         0.0654
     18 CAK       -11.5030   11.3900  -10.4520 C.3       1 59V         0.0552
     19 CAI       -11.6150   12.8760  -10.2320 C.3       1 59V         0.0654
     20 NAZ       -11.8390   13.6150  -11.4360 N.pl3     1 59V        -0.2428
     21 CAU       -11.0880   14.6550  -11.8080 C.2       1 59V         0.2479
     22 SAR       -11.0350   15.2770  -13.3840 S.3       1 59V         0.0828
     23 NAP       -10.2500   15.3270  -11.0190 N.2       1 59V        -0.1625
     24 NAQ        -9.6210   16.2950  -11.6610 N.2       1 59V        -0.1749
     25 CAV        -9.9440   16.3850  -12.9570 C.2       1 59V         0.2005
     26 CBC        -9.3650   17.4080  -13.9100 C.3       1 59V         0.3929
     27 FAE       -10.2770   18.3530  -14.1260 F         1 59V        -0.2363
     28 FAF        -8.2790   17.9550  -13.3690 F         1 59V        -0.2363
     29 FAD        -9.0440   16.8300  -15.0630 F         1 59V        -0.2363
     30 H1        -17.5831    9.5705  -13.2606 H         1 59V         0.0558
     31 H2        -17.5417    7.9964  -14.1250 H         1 59V         0.0558
     32 H3        -15.3813   10.3329  -12.1716 H         1 59V         0.0290
     33 H4        -10.4005    7.0922  -11.5783 H         1 59V         0.0981
     34 H5        -14.1522   12.3359  -11.0742 H         1 59V         0.0549
     35 H6        -14.0926   11.4789  -12.6518 H         1 59V         0.0549
     36 H7        -13.3499   13.8419  -12.8186 H         1 59V         0.0573
     37 H8        -12.0536   12.6791  -13.2592 H         1 59V         0.0573
     38 H9        -10.5573   11.1718  -10.9696 H         1 59V         0.0549
     39 H10       -11.5144   10.8788   -9.4781 H         1 59V         0.0549
     40 H11       -10.6804   13.2317   -9.7738 H         1 59V         0.0573
     41 H12       -12.4544   13.0644   -9.5465 H         1 59V         0.0573
@<TRIPOS>BOND
     1    1    2 ar 
     2    1    5 ar 
     3   12    1 1  
     4    2    3 ar 
     5    2   13 1  
     6    3    4 ar 
     7    3   15 1  
     8   14    4 ar 
     9    5   14 ar 
    10    7    6 1  
    11    7    8 1  
    12    7    9 1  
    13   10    7 1  
    14   11   10 1  
    15   11   12 1  
    16   11   13 2  
    17   15   16 1  
    18   15   18 1  
    19   16   17 1  
    20   17   20 1  
    21   18   19 1  
    22   19   20 1  
    23   20   21 1  
    24   21   22 1  
    25   21   23 2  
    26   22   25 1  
    27   23   24 1  
    28   24   25 2  
    29   25   26 1  
    30   26   27 1  
    31   26   28 1  
    32   26   29 1  
    33   10   30 1  
    34   10   31 1  
    35   13   32 1  
    36   14   33 1  
    37   16   34 1  
    38   16   35 1  
    39   17   36 1  
    40   17   37 1  
    41   18   38 1  
    42   18   39 1  
    43   19   40 1  
    44   19   41 1  
@<TRIPOS>SUBSTRUCTURE
     1 59V         1

