### 
### Created by X-TOOL on Mon Sep 10 21:13:24 2018
### 

@<TRIPOS>MOLECULE
5ddd_ligand
   48    51     1     0     0
SMALL
GAST_HUCK


@<TRIPOS>ATOM
      1 C4         13.1900    7.4520   12.2150 C.ar      1 59X         0.1043
      2 C5         13.3750    8.7680   11.9540 C.ar      1 59X         0.0334
      3 C6         12.2990    9.4800   11.4380 C.ar      1 59X         0.1241
      4 N1         11.1320    8.8540   11.2110 N.ar      1 59X        -0.2686
      5 N3         12.0290    6.8390   12.0160 N.ar      1 59X        -0.2823
      6 FAC        17.6150    6.6850   11.8440 F         1 59X        -0.2463
      7 CAF        17.8090    8.0020   11.9790 C.3       1 59X         0.1025
      8 CAG        16.9300    8.4480   13.1720 C.3       1 59X         0.0244
      9 CAS        15.4580    8.2200   12.7450 C.2       1 59X         0.0234
     10 SAQ        14.5360    6.7780   12.8910 S.3       1 59X        -0.0088
     11 CAE        14.6560    9.1660   12.2470 C.2       1 59X        -0.0563
     12 C2         10.9770    7.5210   11.4980 C.ar      1 59X         0.0547
     13 NAX        12.2550   10.7980   11.1230 N.pl3     1 59X        -0.2833
     14 CAK        11.0860   11.3100   10.3490 C.3       1 59X         0.0596
     15 CAI        11.1260   12.7840   10.1360 C.3       1 59X         0.0843
     16 CAJ        13.1880   11.8490   11.7270 C.3       1 59X         0.0596
     17 CAH        12.2230   12.7520   12.5080 C.3       1 59X         0.0843
     18 NAW        11.3640   13.4340   11.5230 N.2       1 59X        -0.2453
     19 CAR        10.7670   14.6020   11.8210 C.2       1 59X         0.3266
     20 SAP        10.8700   15.3580   13.3100 S.3       1 59X         0.0617
     21 CAY         9.9130   16.8010   12.9010 C.3       1 59X         0.0814
     22 CAA         8.8140   17.0670   13.9700 C.3       1 59X        -0.0422
     23 CAB        10.8370   18.0210   12.7740 C.3       1 59X        -0.0422
     24 CAL         9.3570   16.5830   11.5630 C.3       1 59X         0.0886
     25 NAM         9.9880   15.3160   10.9780 N.pl3     1 59X        -0.2055
     26 H1         17.5036    8.5283   11.0627 H         1 59X         0.0643
     27 H2         18.8686    8.2120   12.1867 H         1 59X         0.0643
     28 H3         17.1009    9.5120   13.3928 H         1 59X         0.0495
     29 H4         17.1646    7.8464   14.0625 H         1 59X         0.0495
     30 H5         14.9968   10.1874   12.0840 H         1 59X         0.0290
     31 H6         10.0320    7.0226   11.3143 H         1 59X         0.0981
     32 H7         10.1662   11.0606   10.8983 H         1 59X         0.0554
     33 H8         11.0724   10.8147    9.3669 H         1 59X         0.0554
     34 H9         10.1711   13.1312    9.7146 H         1 59X         0.0628
     35 H10        11.9458   13.0449    9.4505 H         1 59X         0.0628
     36 H11        13.7104   12.4138   10.9408 H         1 59X         0.0554
     37 H12        13.9264   11.3849   12.3973 H         1 59X         0.0554
     38 H13        12.7897   13.4936   13.0901 H         1 59X         0.0628
     39 H14        11.6070   12.1451   13.1879 H         1 59X         0.0628
     40 H15         8.2402   17.9630   13.6908 H         1 59X         0.0248
     41 H16         9.2868   17.2253   14.9505 H         1 59X         0.0248
     42 H17         8.1381   16.2009   14.0244 H         1 59X         0.0248
     43 H18        10.2391   18.9090   12.5212 H         1 59X         0.0248
     44 H19        11.5772   17.8394   11.9808 H         1 59X         0.0248
     45 H20        11.3565   18.1885   13.7290 H         1 59X         0.0248
     46 H21         9.5886   17.4445   10.9195 H         1 59X         0.0661
     47 H22         8.2662   16.4580   11.6298 H         1 59X         0.0661
     48 H23         9.8287   15.0259   10.0026 H         1 59X         0.2597
@<TRIPOS>BOND
     1    1    2 ar 
     2    1    5 ar 
     3   10    1 1  
     4    2    3 ar 
     5    2   11 1  
     6    3    4 ar 
     7    3   13 1  
     8   12    4 ar 
     9    5   12 ar 
    10    7    6 1  
    11    8    7 1  
    12    9    8 1  
    13    9   10 1  
    14    9   11 2  
    15   13   14 1  
    16   13   16 1  
    17   14   15 1  
    18   15   18 1  
    19   16   17 1  
    20   17   18 1  
    21   18   19 2  
    22   19   20 1  
    23   19   25 1  
    24   20   21 1  
    25   21   22 1  
    26   21   23 1  
    27   21   24 1  
    28   24   25 1  
    29    7   26 1  
    30    7   27 1  
    31    8   28 1  
    32    8   29 1  
    33   11   30 1  
    34   12   31 1  
    35   14   32 1  
    36   14   33 1  
    37   15   34 1  
    38   15   35 1  
    39   16   36 1  
    40   16   37 1  
    41   17   38 1  
    42   17   39 1  
    43   22   40 1  
    44   22   41 1  
    45   22   42 1  
    46   23   43 1  
    47   23   44 1  
    48   23   45 1  
    49   24   46 1  
    50   24   47 1  
    51   25   48 1  
@<TRIPOS>SUBSTRUCTURE
     1 59X         1

