### 
### Created by X-TOOL on Mon Sep 10 21:13:22 2018
### 

@<TRIPOS>MOLECULE
5dde_ligand
   48    51     1     0     0
SMALL
GAST_HUCK


@<TRIPOS>ATOM
      1 C4        -13.2520    7.4600  -12.2020 C.ar      1 5A0         0.1043
      2 C5        -13.3970    8.7780  -11.9270 C.ar      1 5A0         0.0334
      3 C6        -12.3190    9.4840  -11.4370 C.ar      1 5A0         0.1241
      4 N1        -11.1570    8.8430  -11.2460 N.ar      1 5A0        -0.2686
      5 N3        -12.1030    6.8520  -12.0180 N.ar      1 5A0        -0.2823
      6 FAC       -17.5310    6.2240  -11.8250 F         1 5A0        -0.2063
      7 CAW       -17.7680    7.5810  -11.9130 C.3       1 5A0         0.2513
      8 FAD       -19.1010    7.8030  -12.1910 F         1 5A0        -0.2063
      9 CAL       -16.8750    8.2040  -13.0580 C.3       1 5A0         0.0568
     10 CAS       -15.4210    8.0730  -12.6820 C.2       1 5A0         0.0263
     11 SAQ       -14.6530    6.7680  -12.7940 S.3       1 5A0        -0.0087
     12 CAF       -14.6860    9.0950  -12.1990 C.2       1 5A0        -0.0562
     13 C2        -10.9940    7.5090  -11.5400 C.ar      1 5A0         0.0547
     14 NAY       -12.2540   10.8230  -11.1400 N.pl3     1 5A0        -0.2833
     15 CAJ       -13.1310   11.7750  -11.7850 C.3       1 5A0         0.0596
     16 CAH       -12.3300   12.9030  -12.4800 C.3       1 5A0         0.0843
     17 CAI       -11.1550   11.4480  -10.3760 C.3       1 5A0         0.0596
     18 CAG       -11.3750   12.9430  -10.1980 C.3       1 5A0         0.0843
     19 NAX       -11.5170   13.5910  -11.5120 N.2       1 5A0        -0.2453
     20 CAR       -10.8700   14.7040  -11.8200 C.2       1 5A0         0.3266
     21 SAP       -10.9450   15.3970  -13.2810 S.3       1 5A0         0.0617
     22 CAZ       -10.0490   16.8270  -12.8590 C.3       1 5A0         0.0814
     23 CAA        -8.9700   17.1010  -13.9130 C.3       1 5A0        -0.0422
     24 CAB       -10.9960   18.0300  -12.7630 C.3       1 5A0        -0.0422
     25 CAK        -9.4340   16.5520  -11.5530 C.3       1 5A0         0.0886
     26 NAM       -10.0710   15.3710  -10.9720 N.pl3     1 5A0        -0.2055
     27 H1        -17.5131    8.0568  -10.9546 H         1 5A0         0.1047
     28 H2        -17.1277    9.2671  -13.1839 H         1 5A0         0.0525
     29 H3        -17.0604    7.6689  -14.0010 H         1 5A0         0.0525
     30 H4        -15.0943   10.0921  -12.0407 H         1 5A0         0.0290
     31 H5        -10.0446    7.0043  -11.4025 H         1 5A0         0.0981
     32 H6        -13.7932   12.2208  -11.0283 H         1 5A0         0.0554
     33 H7        -13.7364   11.2500  -12.5385 H         1 5A0         0.0554
     34 H8        -13.0288   13.6156  -12.9425 H         1 5A0         0.0628
     35 H9        -11.6836   12.4672  -13.2560 H         1 5A0         0.0628
     36 H10       -10.2096   11.2882  -10.9152 H         1 5A0         0.0554
     37 H11       -11.0960   10.9755   -9.3844 H         1 5A0         0.0554
     38 H12       -10.5141   13.3774   -9.6688 H         1 5A0         0.0628
     39 H13       -12.2892   13.1091   -9.6093 H         1 5A0         0.0628
     40 H14        -8.4096   18.0064  -13.6372 H         1 5A0         0.0248
     41 H15        -9.4449   17.2484  -14.8942 H         1 5A0         0.0248
     42 H16        -8.2813   16.2448  -13.9639 H         1 5A0         0.0248
     43 H17       -10.4210   18.9289  -12.4959 H         1 5A0         0.0248
     44 H18       -11.7557   17.8380  -11.9910 H         1 5A0         0.0248
     45 H19       -11.4904   18.1859  -13.7332 H         1 5A0         0.0248
     46 H20        -9.5786   17.4154  -10.8870 H         1 5A0         0.0661
     47 H21        -8.3578   16.3653  -11.6830 H         1 5A0         0.0661
     48 H22        -9.9198   15.0764   -9.9967 H         1 5A0         0.2597
@<TRIPOS>BOND
     1    1    2 ar 
     2    1    5 ar 
     3   11    1 1  
     4    2    3 ar 
     5    2   12 1  
     6    3    4 ar 
     7    3   14 1  
     8   13    4 ar 
     9    5   13 ar 
    10    7    6 1  
    11    7    8 1  
    12    9    7 1  
    13   10    9 1  
    14   10   11 1  
    15   10   12 2  
    16   14   15 1  
    17   14   17 1  
    18   15   16 1  
    19   16   19 1  
    20   17   18 1  
    21   18   19 1  
    22   19   20 2  
    23   20   21 1  
    24   20   26 1  
    25   21   22 1  
    26   22   23 1  
    27   22   24 1  
    28   22   25 1  
    29   25   26 1  
    30    7   27 1  
    31    9   28 1  
    32    9   29 1  
    33   12   30 1  
    34   13   31 1  
    35   15   32 1  
    36   15   33 1  
    37   16   34 1  
    38   16   35 1  
    39   17   36 1  
    40   17   37 1  
    41   18   38 1  
    42   18   39 1  
    43   23   40 1  
    44   23   41 1  
    45   23   42 1  
    46   24   43 1  
    47   24   44 1  
    48   24   45 1  
    49   25   46 1  
    50   25   47 1  
    51   26   48 1  
@<TRIPOS>SUBSTRUCTURE
     1 5A0         1

