### 
### Created by X-TOOL on Mon Sep 10 21:13:21 2018
### 

@<TRIPOS>MOLECULE
5ddf_ligand
   47    50     1     0     0
SMALL
GAST_HUCK


@<TRIPOS>ATOM
      1 C4         13.2240    7.6090   12.1510 C.ar      1 5A1         0.1420
      2 C5         13.3430    8.9250   11.8640 C.ar      1 5A1         0.1119
      3 C6         12.2620    9.6000   11.3850 C.ar      1 5A1         0.1650
      4 N1         11.1220    8.9230   11.2000 N.ar      1 5A1        -0.2376
      5 N3         12.0980    6.9530   11.9880 N.ar      1 5A1        -0.2493
      6 FAC        19.0430    8.0670   12.3930 F         1 5A1        -0.1795
      7 CBB        17.8120    7.8980   11.9210 C.3       1 5A1         0.4053
      8 FAD        17.6350    6.6230   11.5900 F         1 5A1        -0.1795
      9 FAE        17.6410    8.6620   10.8480 F         1 5A1        -0.1795
     10 CBC        16.8080    8.2870   12.9820 C.3       1 5A1         0.2966
     11 FAF        16.9490    7.4600   14.0030 F         1 5A1        -0.2798
     12 FAG        17.1010    9.5060   13.3960 F         1 5A1        -0.2798
     13 CAU        15.3630    8.2740   12.5740 C.2       1 5A1         0.0698
     14 SAS        14.5790    7.0060   12.7310 S.3       1 5A1        -0.0013
     15 CAI        14.6120    9.3000   12.1320 C.2       1 5A1         0.0084
     16 C2         10.9750    7.5900   11.5180 C.ar      1 5A1         0.0804
     17 NAZ        12.2300   10.9370   11.0920 N.pl3     1 5A1        -0.2687
     18 CAM        11.1980   11.5550   10.2250 C.3       1 5A1         0.0599
     19 CAK        11.3030   13.0990   10.2280 C.3       1 5A1         0.0606
     20 CAL        13.1920   11.8440   11.7640 C.3       1 5A1         0.0599
     21 CAJ        12.4590   12.9790   12.5010 C.3       1 5A1         0.0606
     22 NAY        11.5290   13.6840   11.5850 N.pl3     1 5A1        -0.2621
     23 CAT        10.8980   14.8000   11.9410 C.2       1 5A1         0.1597
     24 SAR        11.0440   15.5500   13.3950 S.3       1 5A1        -0.0250
     25 CBA         9.9940   16.8870   13.0510 C.3       1 5A1         0.0389
     26 CAA         8.8560   16.9320   14.0800 C.3       1 5A1        -0.0472
     27 CAB        10.7880   18.1980   13.1040 C.3       1 5A1        -0.0472
     28 CAN         9.4430   16.6650   11.6710 C.3       1 5A1        -0.0071
     29 NAO        10.0710   15.4380   11.1250 N.2       1 5A1        -0.3634
     30 H1         14.9850   10.3153   12.0052 H         1 5A1         0.1110
     31 H2         10.0284    7.0742   11.4039 H         1 5A1         0.1180
     32 H3         10.2026   11.2641   10.5916 H         1 5A1         0.0563
     33 H4         11.3308   11.1900    9.1959 H         1 5A1         0.0563
     34 H5         10.3668   13.5114    9.8238 H         1 5A1         0.0558
     35 H6         12.1424   13.3911    9.5799 H         1 5A1         0.0558
     36 H7         13.8627   12.2800   11.0090 H         1 5A1         0.0563
     37 H8         13.7832   11.2668   12.4902 H         1 5A1         0.0563
     38 H9         13.1987   13.6960   12.8866 H         1 5A1         0.0558
     39 H10        11.8874   12.5550   13.3397 H         1 5A1         0.0558
     40 H11         8.1935   17.7814   13.8571 H         1 5A1         0.0245
     41 H12         9.2782   17.0512   15.0887 H         1 5A1         0.0245
     42 H13         8.2806   15.9958   14.0316 H         1 5A1         0.0245
     43 H14        10.1173   19.0420   12.8852 H         1 5A1         0.0245
     44 H15        11.5953   18.1682   12.3575 H         1 5A1         0.0245
     45 H16        11.2208   18.3243   14.1074 H         1 5A1         0.0245
     46 H17         9.6829   17.5256   11.0292 H         1 5A1         0.0316
     47 H18         8.3516   16.5369   11.7198 H         1 5A1         0.0316
@<TRIPOS>BOND
     1    1    2 ar 
     2    1    5 ar 
     3   14    1 1  
     4    2    3 ar 
     5    2   15 1  
     6    3    4 ar 
     7    3   17 1  
     8   16    4 ar 
     9    5   16 ar 
    10    7    6 1  
    11    7    8 1  
    12    7    9 1  
    13   10    7 1  
    14   10   11 1  
    15   10   12 1  
    16   13   10 1  
    17   13   14 1  
    18   13   15 2  
    19   17   18 1  
    20   17   20 1  
    21   18   19 1  
    22   19   22 1  
    23   20   21 1  
    24   21   22 1  
    25   22   23 1  
    26   23   24 1  
    27   23   29 2  
    28   24   25 1  
    29   25   26 1  
    30   25   27 1  
    31   25   28 1  
    32   28   29 1  
    33   15   30 1  
    34   16   31 1  
    35   18   32 1  
    36   18   33 1  
    37   19   34 1  
    38   19   35 1  
    39   20   36 1  
    40   20   37 1  
    41   21   38 1  
    42   21   39 1  
    43   26   40 1  
    44   26   41 1  
    45   26   42 1  
    46   27   43 1  
    47   27   44 1  
    48   27   45 1  
    49   28   46 1  
    50   28   47 1  
@<TRIPOS>SUBSTRUCTURE
     1 5A1         1

