### 
### Created by X-TOOL on Mon Sep 10 21:13:29 2018
### 

@<TRIPOS>MOLECULE
5dex_ligand
   37    38     1     0     0
SMALL
GAST_HUCK


@<TRIPOS>ATOM
      1 C10       -17.3660   20.7340  -13.0230 C.ar      1 5E0        -0.0397
      2 C13       -18.0480   19.1720  -15.5100 C.ar      1 5E0        -0.0735
      3 C14       -19.0500   19.2940  -14.4280 C.ar      1 5E0        -0.0397
      4 C15       -20.5260   21.6920   -8.9320 C.2       1 5E0         0.0853
      5 N01       -20.9680   15.9530  -12.1100 N.4       1 5E0         0.2327
      6 C02       -20.5690   16.7220  -10.9900 C.3       1 5E0         0.0306
      7 C03       -19.7590   17.9100  -11.4290 C.3       1 5E0         0.0298
      8 C04       -20.5900   19.0620  -11.6250 C.3       1 5E0         0.0890
      9 C05       -21.1260   19.6420  -10.2870 C.3       1 5E0         0.0306
     10 C06       -20.2660   20.6690  -10.0470 C.3       1 5E0         0.0558
     11 N07       -19.8730   21.2050  -11.3300 N.4       1 5E0         0.3729
     12 N08       -19.6710   20.1720  -12.1110 N.pl3     1 5E0        -0.2754
     13 C09       -18.6970   20.0700  -13.1920 C.ar      1 5E0         0.0802
     14 C11       -16.3570   20.6030  -14.1260 C.ar      1 5E0        -0.0735
     15 C12       -16.6800   19.8020  -15.3430 C.ar      1 5E0        -0.0751
     16 O16       -19.8010   22.7220   -8.8470 O.co2     1 5E0        -0.5642
     17 O17       -21.4750   21.5070   -8.1170 O.co2     1 5E0        -0.5642
     18 C18       -19.5410   15.9470  -10.1700 C.2       1 5E0         0.0845
     19 O19       -19.2380   14.7490  -10.4240 O.co2     1 5E0        -0.5643
     20 O20       -18.9850   16.5740   -9.2400 O.co2     1 5E0        -0.5643
     21 H1        -17.1365   21.2962  -12.1250 H         1 5E0         0.0517
     22 H2        -18.2917   18.6339  -16.4189 H         1 5E0         0.0583
     23 H3        -20.0247   18.8299  -14.5263 H         1 5E0         0.0517
     24 H4        -21.6465   16.4694  -12.6476 H         1 5E0         0.2010
     25 H5        -21.3774   15.0875  -11.7947 H         1 5E0         0.2010
     26 H6        -20.1642   15.7547  -12.6850 H         1 5E0         0.2010
     27 H7        -21.4449   17.0147  -10.3925 H         1 5E0         0.1025
     28 H8        -19.2520   17.6686  -12.3749 H         1 5E0         0.0363
     29 H9        -19.0080   18.1367  -10.6579 H         1 5E0         0.0363
     30 H10       -21.4065   18.8415  -12.3283 H         1 5E0         0.0606
     31 H11       -21.0841   18.8921   -9.4833 H         1 5E0         0.0363
     32 H12       -22.1585   20.0052  -10.3962 H         1 5E0         0.0363
     33 H13       -19.3635   20.1616   -9.6754 H         1 5E0         0.1033
     34 H14       -19.0267   21.7450  -11.2388 H         1 5E0         0.2289
     35 H15       -20.6050   21.7882  -11.7042 H         1 5E0         0.2289
     36 H16       -15.3928   21.0906  -14.0387 H         1 5E0         0.0583
     37 H17       -15.9297   19.6697  -16.1141 H         1 5E0         0.0505
@<TRIPOS>BOND
     1   13    1 ar 
     2    1   14 ar 
     3    3    2 ar 
     4    2   15 ar 
     5   13    3 ar 
     6   10    4 1  
     7    4   16 ar 
     8    4   17 ar 
     9    6    5 1  
    10    7    6 1  
    11    6   18 1  
    12    8    7 1  
    13    8    9 1  
    14   12    8 1  
    15   10    9 1  
    16   11   10 1  
    17   12   11 1  
    18   12   13 1  
    19   14   15 ar 
    20   18   19 ar 
    21   18   20 ar 
    22    1   21 1  
    23    2   22 1  
    24    3   23 1  
    25    5   24 1  
    26    5   25 1  
    27    5   26 1  
    28    6   27 1  
    29    7   28 1  
    30    7   29 1  
    31    8   30 1  
    32    9   31 1  
    33    9   32 1  
    34   10   33 1  
    35   11   34 1  
    36   11   35 1  
    37   14   36 1  
    38   15   37 1  
@<TRIPOS>SUBSTRUCTURE
     1 5E0         1

