### 
### Created by X-TOOL on Mon Sep 10 21:13:28 2018
### 

@<TRIPOS>MOLECULE
5dey_ligand
   61    65     1     0     0
SMALL
GAST_HUCK


@<TRIPOS>ATOM
      1 N3         22.4320  -16.2580    8.2570 N.ar      1 59T        -0.2957
      2 C4         22.7610  -16.3180    9.5410 C.ar      1 59T         0.0412
      3 C5         24.0950  -16.4680    9.9130 C.ar      1 59T        -0.0355
      4 C6         25.0570  -16.5460    8.9170 C.ar      1 59T        -0.0497
      5 C7         24.6650  -16.4710    7.5850 C.ar      1 59T        -0.0342
      6 C8         21.6770  -16.2440   10.5610 C.ar      1 59T        -0.0053
      7 C10        19.5310  -17.0470   11.3180 C.ar      1 59T         0.0466
      8 C13        21.7440  -15.3890   11.6650 C.ar      1 59T        -0.0535
      9 C15        17.2680  -15.3910   13.0540 C.2       1 59T         0.2289
     10 C20        15.3890  -16.2040   17.2400 C.ar      1 59T         0.1773
     11 C22        17.4710  -17.1270   16.8580 C.ar      1 59T         0.0167
     12 C24        18.5470  -16.7160   14.6680 C.2       1 59T        -0.0297
     13 C26        13.1930  -15.1990   17.5500 C.3       1 59T         0.0204
     14 C28        15.4620  -12.9890   13.4140 C.3       1 59T         0.1875
     15 C1         22.8740  -16.2400    5.8640 C.3       1 59T        -0.0159
     16 C2         23.3260  -16.3240    7.2950 C.ar      1 59T         0.0224
     17 C9         20.5650  -17.0670   10.4020 C.ar      1 59T        -0.0396
     18 C11        19.5940  -16.2010   12.4270 C.ar      1 59T        -0.0020
     19 C12        20.7100  -15.3700   12.5820 C.ar      1 59T        -0.0551
     20 C14        18.4760  -16.1370   13.4210 C.2       1 59T         0.0563
     21 O16        17.1930  -14.9090   11.9400 O.2       1 59T        -0.3926
     22 N17        16.2580  -15.2210   13.9390 N.am      1 59T        -0.1888
     23 C18        16.3330  -15.7910   15.1850 C.ar      1 59T         0.1655
     24 N19        15.3290  -15.6550   16.0430 N.ar      1 59T        -0.2341
     25 N21        16.4280  -16.9250   17.6550 N.ar      1 59T        -0.2648
     26 C23        17.4590  -16.5610   15.5670 C.ar      1 59T         0.0519
     27 N25        14.3090  -15.9980   18.0660 N.pl3     1 59T        -0.2930
     28 C27        15.0620  -14.4640   13.5630 C.3       1 59T         0.1166
     29 O30        14.3410  -12.1720   13.0750 O.3       1 59T        -0.3430
     30 C31        14.6870  -10.8090   12.8210 C.3       1 59T         0.0954
     31 C32        15.3720  -10.2260   14.0570 C.3       1 59T         0.0236
     32 C34        16.5280  -11.1520   14.4650 C.3       1 59T         0.0954
     33 O35        16.0380  -12.4920   14.6240 O.3       1 59T        -0.3430
     34 N36        15.8880   -8.8890   13.7360 N.4       1 59T         0.2240
     35 CL1        18.1700  -18.0890   11.0760 Cl        1 59T        -0.0717
     36 H1         24.3752  -16.5226   10.9587 H         1 59T         0.0652
     37 H2         26.1034  -16.6642    9.1742 H         1 59T         0.0712
     38 H3         25.3992  -16.5271    6.7895 H         1 59T         0.0640
     39 H4         22.6039  -14.7432   11.8014 H         1 59T         0.0633
     40 H5         18.3163  -17.7165   17.1942 H         1 59T         0.0901
     41 H6         19.4272  -17.2861   14.9614 H         1 59T         0.0737
     42 H7         12.4103  -15.1227   18.3191 H         1 59T         0.0491
     43 H8         12.7795  -15.6829   16.6529 H         1 59T         0.0491
     44 H9         13.5519  -14.1920   17.2910 H         1 59T         0.0491
     45 H10        16.2082  -12.9147   12.6093 H         1 59T         0.0939
     46 H11        23.7472  -16.3117    5.1989 H         1 59T         0.0420
     47 H12        22.3634  -15.2802    5.6965 H         1 59T         0.0420
     48 H13        22.1807  -17.0666    5.6493 H         1 59T         0.0420
     49 H14        20.5100  -17.7323    9.5480 H         1 59T         0.0638
     50 H15        20.7640  -14.7018   13.4338 H         1 59T         0.0602
     51 H16        14.2848  -16.3925   19.0171 H         1 59T         0.1879
     52 H17        14.6658  -14.8417   12.6089 H         1 59T         0.0671
     53 H18        14.2947  -14.5657   14.3446 H         1 59T         0.0671
     54 H19        13.7763  -10.2333   12.5991 H         1 59T         0.0618
     55 H20        15.3720  -10.7572   11.9619 H         1 59T         0.0618
     56 H21        14.6493  -10.1524   14.8830 H         1 59T         0.0896
     57 H22        16.9577  -10.8041   15.4159 H         1 59T         0.0618
     58 H23        17.3031  -11.1358   13.6846 H         1 59T         0.0618
     59 H24        15.1233   -8.2888   13.4696 H         1 59T         0.1998
     60 H25        16.5438   -8.9561   12.9734 H         1 59T         0.1998
     61 H26        16.3510   -8.5045   14.5446 H         1 59T         0.1998
@<TRIPOS>BOND
     1    2    1 ar 
     2    1   16 ar 
     3    2    3 ar 
     4    6    2 1  
     5    3    4 ar 
     6    4    5 ar 
     7   16    5 ar 
     8    8    6 ar 
     9   17    6 ar 
    10    7   17 ar 
    11   18    7 ar 
    12    7   35 1  
    13   19    8 ar 
    14    9   20 1  
    15    9   21 2  
    16   22    9 am 
    17   10   24 ar 
    18   25   10 ar 
    19   10   27 1  
    20   11   25 ar 
    21   26   11 ar 
    22   20   12 2  
    23   12   26 1  
    24   27   13 1  
    25   28   14 1  
    26   14   29 1  
    27   14   33 1  
    28   16   15 1  
    29   18   19 ar 
    30   20   18 1  
    31   22   23 1  
    32   22   28 1  
    33   23   24 ar 
    34   23   26 ar 
    35   29   30 1  
    36   30   31 1  
    37   31   32 1  
    38   31   34 1  
    39   32   33 1  
    40    3   36 1  
    41    4   37 1  
    42    5   38 1  
    43    8   39 1  
    44   11   40 1  
    45   12   41 1  
    46   13   42 1  
    47   13   43 1  
    48   13   44 1  
    49   14   45 1  
    50   15   46 1  
    51   15   47 1  
    52   15   48 1  
    53   17   49 1  
    54   19   50 1  
    55   27   51 1  
    56   28   52 1  
    57   28   53 1  
    58   30   54 1  
    59   30   55 1  
    60   31   56 1  
    61   32   57 1  
    62   32   58 1  
    63   34   59 1  
    64   34   60 1  
    65   34   61 1  
@<TRIPOS>SUBSTRUCTURE
     1 59T         1

