### 
### Created by X-TOOL on Mon Sep 10 21:13:28 2018
### 

@<TRIPOS>MOLECULE
5dfp_ligand
   72    76     1     0     0
SMALL
GAST_HUCK


@<TRIPOS>ATOM
      1 C10        10.4200   34.9290  -12.9240 C.ar      1 59U        -0.0386
      2 C13         7.7880   34.9030  -12.0230 C.ar      1 59U        -0.0097
      3 C15         9.6470   36.1000  -12.9530 C.ar      1 59U         0.0301
      4 C17         6.1120   34.2150  -10.3140 C.ar      1 59U         0.0353
      5 C20         3.0120   35.7450  -12.6460 C.3       1 59U        -0.0101
      6 C21        18.5200   33.8240  -15.7520 C.3       1 59U         0.0295
      7 C22        17.7840   33.9990  -17.0800 C.3       1 59U        -0.0295
      8 C24        19.5760   34.3020  -18.7560 C.3       1 59U        -0.0094
      9 C26        17.9440   32.9780  -20.6350 C.3       1 59U        -0.0319
     10 N01        18.1600   34.8390  -14.7490 N.pl3     1 59U        -0.2958
     11 N02        16.8040   34.6660  -12.7100 N.ar      1 59U        -0.2836
     12 C01        16.8660   34.8020  -14.0730 C.ar      1 59U         0.1669
     13 N03        15.8220   34.9500  -14.9210 N.ar      1 59U        -0.2423
     14 C02        14.6060   34.9420  -14.3590 C.ar      1 59U         0.1501
     15 C03        14.3810   34.7800  -12.9580 C.ar      1 59U         0.0213
     16 C04        15.5400   34.6520  -12.1730 C.ar      1 59U         0.0004
     17 N04        13.4750   35.0930  -15.3190 N.pl3     1 59U        -0.2056
     18 C05        12.1200   35.0790  -14.8400 C.2       1 59U         0.2066
     19 C06        11.8480   34.9450  -13.4300 C.2       1 59U         0.0070
     20 C07        12.9350   34.7900  -12.4880 C.3       1 59U        -0.0025
     21 C08        13.7030   35.2320  -16.7530 C.3       1 59U         0.0538
     22 C09        13.9350   33.8630  -17.3550 C.3       1 59U        -0.0396
     23 O          11.0650   35.2140  -15.6830 O.3       1 59U        -0.2943
     24 C11         9.8680   33.7370  -12.4570 C.ar      1 59U        -0.0706
     25 C12         8.5420   33.7250  -12.0070 C.ar      1 59U        -0.0640
     26 C14         8.3280   36.0950  -12.5060 C.ar      1 59U        -0.0504
     27 CL         10.3330   37.5570  -13.5480 Cl        1 59U        -0.0824
     28 C16         6.3710   34.8360  -11.5350 C.ar      1 59U         0.0616
     29 N05         4.8540   34.0920   -9.8340 N.ar      1 59U        -0.2840
     30 C18         3.8890   34.6030  -10.6160 C.ar      1 59U         0.0376
     31 C19         4.1530   35.2070  -11.8360 C.ar      1 59U         0.0484
     32 N06         5.4060   35.3420  -12.3190 N.ar      1 59U        -0.2771
     33 C23        18.5780   33.3010  -18.1700 C.3       1 59U        -0.0296
     34 C25        20.1420   33.9330  -20.1070 C.3       1 59U        -0.0319
     35 N          19.3650   33.0170  -20.9250 N.4       1 59U         0.2331
     36 C27        17.6730   32.6360  -19.1920 C.3       1 59U        -0.0094
     37 C          19.7460   32.8520  -22.3340 C.3       1 59U        -0.0431
     38 H1          6.9396   33.8211   -9.7352 H         1 59U         0.0842
     39 H2          2.0660   35.5563  -12.1173 H         1 59U         0.0435
     40 H3          2.9903   35.2456  -13.6258 H         1 59U         0.0435
     41 H4          3.1424   36.8278  -12.7891 H         1 59U         0.0435
     42 H5         19.6017   33.8883  -15.9411 H         1 59U         0.0521
     43 H6         18.2771   32.8308  -15.3464 H         1 59U         0.0521
     44 H7         17.6937   35.0697  -17.3153 H         1 59U         0.0288
     45 H8         16.7809   33.5533  -17.0092 H         1 59U         0.0288
     46 H9         20.4148   34.3982  -18.0509 H         1 59U         0.0319
     47 H10        19.0666   35.2719  -18.8544 H         1 59U         0.0319
     48 H11        17.4713   32.2185  -21.2751 H         1 59U         0.0814
     49 H12        17.5093   33.9644  -20.8542 H         1 59U         0.0814
     50 H13        18.8306   35.5866  -14.5204 H         1 59U         0.1839
     51 H14        15.4318   34.5376  -11.1005 H         1 59U         0.0751
     52 H15        12.8455   35.6168  -11.7680 H         1 59U         0.0438
     53 H16        12.7672   33.8337  -11.9710 H         1 59U         0.0438
     54 H17        14.5865   35.8642  -16.9255 H         1 59U         0.0583
     55 H18        12.8229   35.6958  -17.2222 H         1 59U         0.0583
     56 H19        14.1075   33.9626  -18.4368 H         1 59U         0.0254
     57 H20        13.0513   33.2315  -17.1813 H         1 59U         0.0254
     58 H21        14.8149   33.3999  -16.8846 H         1 59U         0.0254
     59 H22        11.0765   34.5079  -16.3185 H         1 59U         0.2619
     60 H23        10.4593   32.8286  -12.4424 H         1 59U         0.0505
     61 H24         8.1001   32.8032  -11.6464 H         1 59U         0.0610
     62 H25         7.7323   37.0003  -12.5329 H         1 59U         0.0615
     63 H26         2.8605   34.5406  -10.2793 H         1 59U         0.0826
     64 H27        19.1618   32.4969  -17.6982 H         1 59U         0.0305
     65 H28        21.1266   33.4724  -19.9387 H         1 59U         0.0814
     66 H29        20.2658   34.8641  -20.6795 H         1 59U         0.0814
     67 H30        19.6636   32.1308  -20.5487 H         1 59U         0.2030
     68 H31        17.7797   31.5471  -19.0782 H         1 59U         0.0319
     69 H32        16.6371   32.9286  -18.9654 H         1 59U         0.0319
     70 H33        19.0681   32.1317  -22.8152 H         1 59U         0.0777
     71 H34        20.7792   32.4791  -22.3932 H         1 59U         0.0777
     72 H35        19.6760   33.8216  -22.8488 H         1 59U         0.0777
@<TRIPOS>BOND
     1    1    3 ar 
     2   19    1 1  
     3    1   24 ar 
     4   25    2 ar 
     5   26    2 ar 
     6    2   28 1  
     7    3   26 ar 
     8    3   27 1  
     9   28    4 ar 
    10    4   29 ar 
    11   31    5 1  
    12    7    6 1  
    13    6   10 1  
    14   33    7 1  
    15   33    8 1  
    16    8   34 1  
    17    9   35 1  
    18   36    9 1  
    19   10   12 1  
    20   12   11 ar 
    21   11   16 ar 
    22   12   13 ar 
    23   13   14 ar 
    24   14   15 ar 
    25   14   17 1  
    26   16   15 ar 
    27   15   20 1  
    28   17   18 1  
    29   17   21 1  
    30   18   19 2  
    31   18   23 1  
    32   20   19 1  
    33   21   22 1  
    34   24   25 ar 
    35   28   32 ar 
    36   29   30 ar 
    37   31   30 ar 
    38   32   31 ar 
    39   33   36 1  
    40   34   35 1  
    41   35   37 1  
    42    4   38 1  
    43    5   39 1  
    44    5   40 1  
    45    5   41 1  
    46    6   42 1  
    47    6   43 1  
    48    7   44 1  
    49    7   45 1  
    50    8   46 1  
    51    8   47 1  
    52    9   48 1  
    53    9   49 1  
    54   10   50 1  
    55   16   51 1  
    56   20   52 1  
    57   20   53 1  
    58   21   54 1  
    59   21   55 1  
    60   22   56 1  
    61   22   57 1  
    62   22   58 1  
    63   23   59 1  
    64   24   60 1  
    65   25   61 1  
    66   26   62 1  
    67   30   63 1  
    68   33   64 1  
    69   34   65 1  
    70   34   66 1  
    71   35   67 1  
    72   36   68 1  
    73   36   69 1  
    74   37   70 1  
    75   37   71 1  
    76   37   72 1  
@<TRIPOS>SUBSTRUCTURE
     1 59U         1

