### 
### Created by X-TOOL on Mon Sep 10 21:13:29 2018
### 

@<TRIPOS>MOLECULE
5dg6_ligand
   93    95     1     0     0
SMALL
GAST_HUCK


@<TRIPOS>ATOM
      1 O43        -2.9330    3.9170   10.8880 O.2       1 V66        -0.3774
      2 C37        -2.8220    3.0710   10.0010 C.2       1 V66         0.3223
      3 O38        -2.6610    1.6690   10.3320 O.3       1 V66        -0.2580
      4 C39        -2.0790    1.2460   11.5590 C.3       1 V66         0.0905
      5 C40        -0.9420    2.1760   11.9760 C.3       1 V66        -0.0320
      6 C41        -1.5180   -0.1590   11.3550 C.3       1 V66        -0.0320
      7 C42        -3.1980    1.2560   12.5950 C.3       1 V66        -0.0320
      8 O01        -4.2940    3.7060    6.3640 O.2       1 V66        -0.3944
      9 C02        -4.2140    4.6100    7.1880 C.2       1 V66         0.2040
     10 N18        -1.3880    3.2950    1.5680 N.am      1 V66        -0.2870
     11 C19        -0.4070    4.1690    2.1700 C.3       1 V66         0.0309
     12 C20         0.9980    3.5970    1.9580 C.3       1 V66        -0.0326
     13 C21         1.7750    3.4280    3.2550 C.3       1 V66        -0.0488
     14 C22         2.6190    4.6680    3.4880 C.3       1 V66        -0.0355
     15 C23         3.1990    4.6320    4.8830 C.3       1 V66         0.0377
     16 C28        -3.0700    4.6470    8.1560 C.3       1 V66         0.1352
     17 C29        -1.8380    5.1770    7.4410 C.3       1 V66         0.0050
     18 C30        -0.5630    5.0300    8.2530 C.3       1 V66         0.0419
     19 C31         0.5550    5.3800    7.3100 C.2       1 V66         0.1938
     20 N32         0.9740    6.6290    7.0320 N.2       1 V66        -0.2664
     21 N33         2.0130    6.5260    6.1020 N.2       1 V66        -0.2664
     22 C34         2.1920    5.2150    5.8380 C.2       1 V66         0.1936
     23 O35         1.2950    4.4950    6.5720 O.3       1 V66        -0.1913
     24 N36        -2.8550    3.3230    8.6940 N.am      1 V66        -0.2410
     25 N13        -6.2090    5.4810    3.9370 N.am      1 V66        -0.2797
     26 C14        -5.7980    5.7130    2.5700 C.3       1 V66         0.0672
     27 C15        -4.9970    4.5190    1.9910 C.3       1 V66        -0.0108
     28 C16        -3.4530    4.5950    2.1900 C.3       1 V66         0.0394
     29 C17        -2.7170    3.4200    1.5580 C.2       1 V66         0.1760
     30 O24        -3.3090    2.5190    1.0070 O.2       1 V66        -0.3971
     31 C25        -7.0720    6.1310    1.7850 C.3       1 V66         0.0673
     32 O26        -7.6220    7.3220    2.3620 O.3       1 V66        -0.3927
     33 N03        -5.0930    5.5980    7.2570 N.am      1 V66        -0.2637
     34 C04        -6.1970    5.6870    6.3320 C.3       1 V66         0.1311
     35 C12        -5.6360    6.0600    4.9880 C.2       1 V66         0.2020
     36 O27        -4.7020    6.8360    4.9000 O.2       1 V66        -0.3945
     37 C05        -7.2590    6.6990    6.7870 C.3       1 V66        -0.0096
     38 C06        -8.1380    6.3010    7.9800 C.3       1 V66        -0.0368
     39 C07        -9.2110    7.3750    8.1140 C.3       1 V66        -0.0500
     40 C08       -10.3130    6.9930    9.0900 C.3       1 V66        -0.0528
     41 C09       -10.9200    5.6530    8.7360 C.3       1 V66        -0.0530
     42 C10        -9.8080    4.6300    8.8330 C.3       1 V66        -0.0528
     43 C11        -8.7580    4.9260    7.7760 C.3       1 V66        -0.0500
     44 H1         -0.5115    1.8258   12.9257 H         1 V66         0.0260
     45 H2         -1.3315    3.1967   12.1043 H         1 V66         0.0260
     46 H3         -0.1639    2.1755   11.1985 H         1 V66         0.0260
     47 H4         -1.0608   -0.5108   12.2916 H         1 V66         0.0260
     48 H5         -0.7572   -0.1383   10.5608 H         1 V66         0.0260
     49 H6         -2.3317   -0.8403   11.0657 H         1 V66         0.0260
     50 H7         -2.7992    0.9347   13.5685 H         1 V66         0.0260
     51 H8         -3.9955    0.5669   12.2800 H         1 V66         0.0260
     52 H9         -3.6064    2.2735   12.6838 H         1 V66         0.0260
     53 H10        -1.0235    2.4915    1.0974 H         1 V66         0.1850
     54 H11        -0.6073    4.2549    3.2482 H         1 V66         0.0520
     55 H12        -0.4701    5.1638    1.7049 H         1 V66         0.0520
     56 H13         1.5580    4.2784    1.3006 H         1 V66         0.0285
     57 H14         0.9063    2.6134    1.4741 H         1 V66         0.0285
     58 H15         2.4277    2.5456    3.1821 H         1 V66         0.0268
     59 H16         1.0729    3.2968    4.0916 H         1 V66         0.0268
     60 H17         1.9914    5.5644    3.3756 H         1 V66         0.0294
     61 H18         3.4364    4.6980    2.7525 H         1 V66         0.0294
     62 H19         4.1254    5.2243    4.9144 H         1 V66         0.0522
     63 H20         3.4189    3.5920    5.1660 H         1 V66         0.0522
     64 H21        -3.3176    5.3270    8.9844 H         1 V66         0.0801
     65 H22        -1.9924    6.2442    7.2236 H         1 V66         0.0341
     66 H23        -1.7169    4.6244    6.4977 H         1 V66         0.0341
     67 H24        -0.4532    3.9964    8.6129 H         1 V66         0.0524
     68 H25        -0.5720    5.7181    9.1111 H         1 V66         0.0524
     69 H26        -2.7254    2.5631    8.0570 H         1 V66         0.1899
     70 H27        -6.9668    4.8495    4.1011 H         1 V66         0.1855
     71 H28        -5.1136    6.5741    2.5614 H         1 V66         0.0580
     72 H29        -5.1984    4.4662    0.9109 H         1 V66         0.0313
     73 H30        -5.3576    3.6002    2.4766 H         1 V66         0.0313
     74 H31        -3.2378    4.6051    3.2687 H         1 V66         0.0503
     75 H32        -3.0854    5.5261    1.7340 H         1 V66         0.0503
     76 H33        -7.8157    5.3221    1.8362 H         1 V66         0.0580
     77 H34        -6.8087    6.3211    0.7340 H         1 V66         0.0580
     78 H35        -7.8493    7.1571    3.2695 H         1 V66         0.2095
     79 H36        -4.9896    6.2969    7.9647 H         1 V66         0.1883
     80 H37        -6.6764    4.6997    6.2582 H         1 V66         0.0800
     81 H38        -7.9256    6.8867    5.9324 H         1 V66         0.0315
     82 H39        -6.7368    7.6290    7.0559 H         1 V66         0.0315
     83 H40        -7.5264    6.2776    8.8940 H         1 V66         0.0303
     84 H41        -9.6618    7.5459    7.1253 H         1 V66         0.0268
     85 H42        -8.7367    8.3029    8.4661 H         1 V66         0.0268
     86 H43       -11.0995    7.7615    9.0613 H         1 V66         0.0265
     87 H44        -9.8905    6.9384   10.1042 H         1 V66         0.0265
     88 H45       -11.3231    5.6782    7.7129 H         1 V66         0.0265
     89 H46       -11.7262    5.4041    9.4418 H         1 V66         0.0265
     90 H47       -10.2199    3.6232    8.6695 H         1 V66         0.0265
     91 H48        -9.3486    4.6806    9.8312 H         1 V66         0.0265
     92 H49        -7.9667    4.1642    7.8343 H         1 V66         0.0268
     93 H50        -9.2296    4.8896    6.7829 H         1 V66         0.0268
@<TRIPOS>BOND
     1    2    1 2  
     2    2    3 1  
     3   24    2 am 
     4    3    4 1  
     5    4    5 1  
     6    4    6 1  
     7    4    7 1  
     8    9    8 2  
     9   16    9 1  
    10    9   33 am 
    11   10   11 1  
    12   29   10 am 
    13   11   12 1  
    14   12   13 1  
    15   13   14 1  
    16   14   15 1  
    17   15   22 1  
    18   17   16 1  
    19   16   24 1  
    20   18   17 1  
    21   19   18 1  
    22   19   20 2  
    23   23   19 1  
    24   21   20 1  
    25   22   21 2  
    26   22   23 1  
    27   26   25 1  
    28   25   35 am 
    29   27   26 1  
    30   26   31 1  
    31   28   27 1  
    32   28   29 1  
    33   29   30 2  
    34   31   32 1  
    35   33   34 1  
    36   34   35 1  
    37   34   37 1  
    38   35   36 2  
    39   37   38 1  
    40   38   39 1  
    41   38   43 1  
    42   39   40 1  
    43   40   41 1  
    44   41   42 1  
    45   42   43 1  
    46    5   44 1  
    47    5   45 1  
    48    5   46 1  
    49    6   47 1  
    50    6   48 1  
    51    6   49 1  
    52    7   50 1  
    53    7   51 1  
    54    7   52 1  
    55   10   53 1  
    56   11   54 1  
    57   11   55 1  
    58   12   56 1  
    59   12   57 1  
    60   13   58 1  
    61   13   59 1  
    62   14   60 1  
    63   14   61 1  
    64   15   62 1  
    65   15   63 1  
    66   16   64 1  
    67   17   65 1  
    68   17   66 1  
    69   18   67 1  
    70   18   68 1  
    71   24   69 1  
    72   25   70 1  
    73   26   71 1  
    74   27   72 1  
    75   27   73 1  
    76   28   74 1  
    77   28   75 1  
    78   31   76 1  
    79   31   77 1  
    80   32   78 1  
    81   33   79 1  
    82   34   80 1  
    83   37   81 1  
    84   37   82 1  
    85   38   83 1  
    86   39   84 1  
    87   39   85 1  
    88   40   86 1  
    89   40   87 1  
    90   41   88 1  
    91   41   89 1  
    92   42   90 1  
    93   42   91 1  
    94   43   92 1  
    95   43   93 1  
@<TRIPOS>SUBSTRUCTURE
     1 V66         1

