### 
### Created by X-TOOL on Mon Sep 10 21:13:26 2018
### 

@<TRIPOS>MOLECULE
5dgj_ligand
   78    78     1     0     0
SMALL
GAST_HUCK


@<TRIPOS>ATOM
      1 O42        17.2770  -57.2450  140.4980 O.2       1 V64        -0.3774
      2 C36        16.5900  -56.5160  139.8540 C.2       1 V64         0.3223
      3 O37        16.2640  -55.1990  140.2540 O.3       1 V64        -0.2580
      4 C38        16.6270  -54.7600  141.5610 C.3       1 V64         0.0905
      5 C39        15.9100  -55.6000  142.6460 C.3       1 V64        -0.0320
      6 C40        18.1660  -54.8410  141.7290 C.3       1 V64        -0.0320
      7 C41        16.2000  -53.2740  141.6730 C.3       1 V64        -0.0320
      8 O01        17.5320  -56.3410  136.4060 O.2       1 V64        -0.3944
      9 C02        17.6300  -57.4470  136.8430 C.2       1 V64         0.2038
     10 N18        14.2840  -54.1290  132.9170 N.am      1 V64        -0.2900
     11 C27        16.6380  -58.0230  137.8330 C.3       1 V64         0.1326
     12 C28        15.5630  -58.7790  137.0480 C.3       1 V64        -0.0153
     13 C29        14.7240  -59.6820  137.9840 C.3       1 V64        -0.0611
     14 N35        16.0180  -56.9560  138.5750 N.am      1 V64        -0.2412
     15 C5         13.2810  -53.0700  132.7480 C.3       1 V64         0.0195
     16 N13        19.4390  -56.2520  133.5510 N.am      1 V64        -0.2797
     17 C14        18.9000  -55.7820  132.2850 C.3       1 V64         0.0672
     18 C15        18.0310  -54.5440  132.5410 C.3       1 V64        -0.0108
     19 C16        16.6770  -54.9400  133.1440 C.3       1 V64         0.0394
     20 C17        15.6910  -53.7780  132.9570 C.2       1 V64         0.1758
     21 O23        16.0500  -52.6430  132.8400 O.2       1 V64        -0.3971
     22 C24        20.0580  -55.4750  131.3480 C.3       1 V64         0.0673
     23 O25        20.6860  -56.5880  130.9790 O.3       1 V64        -0.3927
     24 N03        18.7250  -58.3310  136.4410 N.am      1 V64        -0.2637
     25 C04        19.6740  -57.8110  135.4910 C.3       1 V64         0.1311
     26 C12        18.9440  -57.4530  134.1970 C.2       1 V64         0.2020
     27 O26        18.0560  -58.1030  133.7190 O.2       1 V64        -0.3945
     28 C05        20.7420  -58.8510  135.1140 C.3       1 V64        -0.0096
     29 C06        21.7480  -59.1920  136.2640 C.3       1 V64        -0.0368
     30 C07        22.4800  -57.9160  136.7110 C.3       1 V64        -0.0500
     31 C08        23.6330  -58.2330  137.6650 C.3       1 V64        -0.0528
     32 C09        24.6330  -59.2000  137.0270 C.3       1 V64        -0.0530
     33 C10        23.9600  -60.5080  136.5840 C.3       1 V64        -0.0528
     34 C11        22.7010  -60.2790  135.7240 C.3       1 V64        -0.0500
     35 H1         16.2068  -55.2416  143.6427 H         1 V64         0.0260
     36 H2         16.1928  -56.6575  142.5374 H         1 V64         0.0260
     37 H3         14.8211  -55.4977  142.5288 H         1 V64         0.0260
     38 H4         18.4430  -54.5018  142.7381 H         1 V64         0.0260
     39 H5         18.6510  -54.1978  140.9800 H         1 V64         0.0260
     40 H6         18.4960  -55.8808  141.5883 H         1 V64         0.0260
     41 H7         16.4620  -52.8914  142.6705 H         1 V64         0.0260
     42 H8         15.1134  -53.1924  141.5228 H         1 V64         0.0260
     43 H9         16.7217  -52.6837  140.9053 H         1 V64         0.0260
     44 H10        13.9997  -55.0838  133.0038 H         1 V64         0.1847
     45 H11        17.1518  -58.7072  138.5243 H         1 V64         0.0799
     46 H12        16.0484  -59.4049  136.2847 H         1 V64         0.0310
     47 H13        14.8979  -58.0527  136.5580 H         1 V64         0.0310
     48 H14        13.9611  -60.2121  137.3950 H         1 V64         0.0232
     49 H15        14.2320  -59.0618  138.7477 H         1 V64         0.0232
     50 H16        15.3825  -60.4140  138.4745 H         1 V64         0.0232
     51 H17        15.1954  -56.5132  138.2183 H         1 V64         0.1899
     52 H18        12.2753  -53.5154  132.7403 H         1 V64         0.0484
     53 H19        13.4573  -52.5463  131.7969 H         1 V64         0.0484
     54 H20        13.3589  -52.3550  133.5802 H         1 V64         0.0484
     55 H21        20.1723  -55.7322  133.9892 H         1 V64         0.1855
     56 H22        18.2759  -56.5688  131.8362 H         1 V64         0.0580
     57 H23        17.8616  -54.0199  131.5889 H         1 V64         0.0313
     58 H24        18.5544  -53.8749  133.2398 H         1 V64         0.0313
     59 H25        16.7982  -55.1525  134.2164 H         1 V64         0.0503
     60 H26        16.2932  -55.8357  132.6338 H         1 V64         0.0503
     61 H27        20.7711  -54.8146  131.8632 H         1 V64         0.0580
     62 H28        19.6701  -54.9681  130.4522 H         1 V64         0.0580
     63 H29        21.0268  -57.0281  131.7489 H         1 V64         0.2095
     64 H30        18.8105  -59.2564  136.8102 H         1 V64         0.1883
     65 H31        20.1582  -56.9191  135.9153 H         1 V64         0.0800
     66 H32        21.3153  -58.4612  134.2600 H         1 V64         0.0315
     67 H33        20.2297  -59.7786  134.8190 H         1 V64         0.0315
     68 H34        21.1983  -59.5966  137.1266 H         1 V64         0.0303
     69 H35        21.7650  -57.2549  137.2226 H         1 V64         0.0268
     70 H36        22.8814  -57.4052  135.8233 H         1 V64         0.0268
     71 H37        23.2263  -58.6898  138.5793 H         1 V64         0.0265
     72 H38        24.1527  -57.2982  137.9221 H         1 V64         0.0265
     73 H39        25.4186  -59.4346  137.7603 H         1 V64         0.0265
     74 H40        25.0843  -58.7166  136.1480 H         1 V64         0.0265
     75 H41        23.6725  -61.0753  137.4815 H         1 V64         0.0265
     76 H42        24.6835  -61.0926  135.9968 H         1 V64         0.0265
     77 H43        23.0232  -59.9833  134.7147 H         1 V64         0.0268
     78 H44        22.1454  -61.2268  135.6686 H         1 V64         0.0268
@<TRIPOS>BOND
     1    2    1 2  
     2    2    3 1  
     3   14    2 am 
     4    3    4 1  
     5    4    5 1  
     6    4    6 1  
     7    4    7 1  
     8    9    8 2  
     9    9   11 1  
    10   24    9 am 
    11   10   15 1  
    12   20   10 am 
    13   11   12 1  
    14   11   14 1  
    15   12   13 1  
    16   16   17 1  
    17   26   16 am 
    18   17   18 1  
    19   17   22 1  
    20   18   19 1  
    21   19   20 1  
    22   20   21 2  
    23   22   23 1  
    24   25   24 1  
    25   25   26 1  
    26   25   28 1  
    27   26   27 2  
    28   28   29 1  
    29   29   30 1  
    30   29   34 1  
    31   30   31 1  
    32   31   32 1  
    33   32   33 1  
    34   33   34 1  
    35    5   35 1  
    36    5   36 1  
    37    5   37 1  
    38    6   38 1  
    39    6   39 1  
    40    6   40 1  
    41    7   41 1  
    42    7   42 1  
    43    7   43 1  
    44   10   44 1  
    45   11   45 1  
    46   12   46 1  
    47   12   47 1  
    48   13   48 1  
    49   13   49 1  
    50   13   50 1  
    51   14   51 1  
    52   15   52 1  
    53   15   53 1  
    54   15   54 1  
    55   16   55 1  
    56   17   56 1  
    57   18   57 1  
    58   18   58 1  
    59   19   59 1  
    60   19   60 1  
    61   22   61 1  
    62   22   62 1  
    63   23   63 1  
    64   24   64 1  
    65   25   65 1  
    66   28   66 1  
    67   28   67 1  
    68   29   68 1  
    69   30   69 1  
    70   30   70 1  
    71   31   71 1  
    72   31   72 1  
    73   32   73 1  
    74   32   74 1  
    75   33   75 1  
    76   33   76 1  
    77   34   77 1  
    78   34   78 1  
@<TRIPOS>SUBSTRUCTURE
     1 V64         1

