### 
### Created by X-TOOL on Mon Sep 10 21:13:21 2018
### 

@<TRIPOS>MOLECULE
5dgu_ligand
   84    87     1     0     0
SMALL
GAST_HUCK


@<TRIPOS>ATOM
      1 C2         21.0870   27.7320   14.9240 C.ar      1 5B7         0.0908
      2 C3         19.7070   27.7450   14.6640 C.ar      1 5B7        -0.0313
      3 C4         18.9320   26.6070   14.9660 C.ar      1 5B7        -0.0440
      4 C5         19.5170   25.4800   15.5180 C.ar      1 5B7         0.0971
      5 C6         20.8850   25.4560   15.7790 C.ar      1 5B7        -0.0440
      6 C7         21.6820   26.5810   15.4840 C.ar      1 5B7        -0.0313
      7 S8         18.5240   24.0650   15.8910 S.o2      1 5B7         0.0657
      8 O9         17.4480   24.0070   14.8840 O.2       1 5B7        -0.1515
      9 O10        19.4510   22.9130   16.0770 O.2       1 5B7        -0.1515
     10 N11        17.8140   24.3110   17.3700 N.am      1 5B7        -0.2325
     11 C12        18.6980   24.6170   18.4740 C.3       1 5B7         0.0319
     12 C13        18.3800   23.8620   19.7750 C.3       1 5B7        -0.0296
     13 C14        18.4680   22.3390   19.6070 C.3       1 5B7        -0.0612
     14 C15        19.3680   24.2860   20.8840 C.3       1 5B7        -0.0612
     15 C16        16.5420   25.0170   17.3990 C.3       1 5B7         0.0578
     16 C17        15.4480   24.0820   17.9260 C.3       1 5B7         0.0967
     17 O18        14.2740   24.8400   18.2620 O.3       1 5B7        -0.3877
     18 C19        15.0590   22.9940   16.9270 C.3       1 5B7         0.0807
     19 N20        14.1890   22.0000   17.5610 N.am      1 5B7        -0.2550
     20 C21        14.4580   20.7030   17.7020 C.2       1 5B7         0.3202
     21 O22        15.5710   20.1940   17.4960 O.2       1 5B7        -0.3775
     22 O23        13.3670   19.9680   18.0730 O.3       1 5B7        -0.2600
     23 C24        13.6300   18.5770   18.2790 C.3       1 5B7         0.1001
     24 C25        13.8690   18.4070   19.7820 C.3       1 5B7         0.0019
     25 O26        11.4290   18.0130   20.1880 O.3       1 5B7        -0.3507
     26 C27        11.1900   17.9780   18.7800 C.3       1 5B7         0.1671
     27 O28        10.6250   19.2310   18.3840 O.3       1 5B7        -0.3483
     28 C29        10.8520   19.4230   16.9840 C.3       1 5B7         0.0773
     29 C30        11.8050   18.3120   16.5290 C.3       1 5B7         0.0918
     30 C31        12.3780   17.7920   17.8760 C.3       1 5B7         0.0689
     31 C32        14.3360   23.5560   15.6800 C.3       1 5B7         0.0064
     32 C33        12.7860   21.9140   14.5710 C.ar      1 5B7        -0.0603
     33 C34        12.4990   20.8520   13.7360 C.ar      1 5B7        -0.0686
     34 C35        13.5220   20.1560   13.0710 C.ar      1 5B7        -0.0687
     35 C36        14.7970   20.6790   13.1340 C.ar      1 5B7        -0.0686
     36 C37        15.0940   21.7790   13.9810 C.ar      1 5B7        -0.0603
     37 C38        14.0840   22.3860   14.7020 C.ar      1 5B7        -0.0408
     38 O39        21.7730   28.8690   14.6040 O.3       1 5B7        -0.3212
     39 C40        23.1060   28.8440   15.0580 C.3       1 5B7         0.0594
     40 O41        10.9720   17.2700   15.9700 O.3       1 5B7        -0.3770
     41 C42        10.7600   17.4680   14.5710 C.3       1 5B7         0.0369
     42 C44        12.6050   18.7500   20.5460 C.3       1 5B7         0.0533
     43 H1         19.2410   28.6242   14.2340 H         1 5B7         0.0542
     44 H2         17.8670   26.6143   14.7640 H         1 5B7         0.0608
     45 H3         21.3379   24.5704   16.2099 H         1 5B7         0.0608
     46 H4         22.7468   26.5621   15.6863 H         1 5B7         0.0542
     47 H5         18.6317   25.6958   18.6782 H         1 5B7         0.0480
     48 H6         19.7249   24.3634   18.1721 H         1 5B7         0.0480
     49 H7         17.3571   24.1226   20.0845 H         1 5B7         0.0311
     50 H8         18.2322   21.8504   20.5639 H         1 5B7         0.0233
     51 H9         19.4861   22.0627   19.2953 H         1 5B7         0.0233
     52 H10        17.7488   22.0124   18.8415 H         1 5B7         0.0233
     53 H11        19.3202   25.3765   21.0203 H         1 5B7         0.0233
     54 H12        20.3893   23.9970   20.5953 H         1 5B7         0.0233
     55 H13        19.0980   23.7866   21.8262 H         1 5B7         0.0233
     56 H14        16.2830   25.3471   16.3822 H         1 5B7         0.0504
     57 H15        16.6243   25.8930   18.0591 H         1 5B7         0.0504
     58 H16        15.8279   23.5938   18.8356 H         1 5B7         0.0634
     59 H17        13.9560   25.2890   17.4876 H         1 5B7         0.2100
     60 H18        15.9815   22.4951   16.5950 H         1 5B7         0.0604
     61 H19        13.3141   22.3247   17.9204 H         1 5B7         0.1873
     62 H20        14.5027   18.2437   17.6983 H         1 5B7         0.0653
     63 H21        14.6812   19.0770   20.1006 H         1 5B7         0.0316
     64 H22        14.1504   17.3644   19.9913 H         1 5B7         0.0316
     65 H23        10.4776   17.1629   18.5848 H         1 5B7         0.0914
     66 H24        11.3080   20.4082   16.8067 H         1 5B7         0.0587
     67 H25         9.9018   19.3545   16.4341 H         1 5B7         0.0587
     68 H26        12.5807   18.6542   15.8282 H         1 5B7         0.0624
     69 H27        12.6437   16.7266   17.8096 H         1 5B7         0.0405
     70 H28        14.9652   24.3174   15.1959 H         1 5B7         0.0449
     71 H29        13.3775   24.0069   15.9765 H         1 5B7         0.0449
     72 H30        11.9865   22.3850   15.1314 H         1 5B7         0.0557
     73 H31        11.4678   20.5507   13.5915 H         1 5B7         0.0599
     74 H32        13.3169   19.2407   12.5277 H         1 5B7         0.0559
     75 H33        15.5834   20.2438   12.5280 H         1 5B7         0.0599
     76 H34        16.1122   22.1422   14.0619 H         1 5B7         0.0557
     77 H35        23.6079   29.7806   14.7734 H         1 5B7         0.0577
     78 H36        23.6327   27.9927   14.6022 H         1 5B7         0.0577
     79 H37        23.1186   28.7393   16.1529 H         1 5B7         0.0577
     80 H38        10.1245   16.6605   14.1786 H         1 5B7         0.0524
     81 H39        11.7280   17.4595   14.0486 H         1 5B7         0.0524
     82 H40        10.2642   18.4364   14.4087 H         1 5B7         0.0524
     83 H41        12.3942   19.8174   20.3840 H         1 5B7         0.0562
     84 H42        12.7999   18.5727   21.6140 H         1 5B7         0.0562
@<TRIPOS>BOND
     1    2    1 ar 
     2    6    1 ar 
     3    1   38 1  
     4    3    2 ar 
     5    4    3 ar 
     6    4    5 ar 
     7    7    4 1  
     8    5    6 ar 
     9    7    8 2  
    10    7    9 2  
    11   10    7 am 
    12   10   11 1  
    13   15   10 1  
    14   11   12 1  
    15   12   13 1  
    16   12   14 1  
    17   16   15 1  
    18   16   17 1  
    19   18   16 1  
    20   18   19 1  
    21   31   18 1  
    22   19   20 am 
    23   20   21 2  
    24   20   22 1  
    25   22   23 1  
    26   23   24 1  
    27   23   30 1  
    28   24   42 1  
    29   26   25 1  
    30   42   25 1  
    31   26   27 1  
    32   30   26 1  
    33   28   27 1  
    34   29   28 1  
    35   30   29 1  
    36   29   40 1  
    37   37   31 1  
    38   32   33 ar 
    39   32   37 ar 
    40   33   34 ar 
    41   34   35 ar 
    42   35   36 ar 
    43   36   37 ar 
    44   38   39 1  
    45   40   41 1  
    46    2   43 1  
    47    3   44 1  
    48    5   45 1  
    49    6   46 1  
    50   11   47 1  
    51   11   48 1  
    52   12   49 1  
    53   13   50 1  
    54   13   51 1  
    55   13   52 1  
    56   14   53 1  
    57   14   54 1  
    58   14   55 1  
    59   15   56 1  
    60   15   57 1  
    61   16   58 1  
    62   17   59 1  
    63   18   60 1  
    64   19   61 1  
    65   23   62 1  
    66   24   63 1  
    67   24   64 1  
    68   26   65 1  
    69   28   66 1  
    70   28   67 1  
    71   29   68 1  
    72   30   69 1  
    73   31   70 1  
    74   31   71 1  
    75   32   72 1  
    76   33   73 1  
    77   34   74 1  
    78   35   75 1  
    79   36   76 1  
    80   39   77 1  
    81   39   78 1  
    82   39   79 1  
    83   41   80 1  
    84   41   81 1  
    85   41   82 1  
    86   42   83 1  
    87   42   84 1  
@<TRIPOS>SUBSTRUCTURE
     1 5B7         1

