### 
### Created by X-TOOL on Mon Sep 10 21:13:24 2018
### 

@<TRIPOS>MOLECULE
5dgw_ligand
   89    92     1     0     0
SMALL
GAST_HUCK


@<TRIPOS>ATOM
      1 C2         20.9280   27.6140   14.7050 C.ar      1 5B5         0.0908
      2 C3         21.5240   26.5320   15.3590 C.ar      1 5B5        -0.0313
      3 C4         20.7380   25.4540   15.7580 C.ar      1 5B5        -0.0440
      4 C5         19.3680   25.4620   15.5400 C.ar      1 5B5         0.0971
      5 C6         18.8000   26.4980   14.8020 C.ar      1 5B5        -0.0440
      6 C7         19.5710   27.5970   14.4110 C.ar      1 5B5        -0.0313
      7 S8         18.3750   24.0780   15.9550 S.o2      1 5B5         0.0657
      8 O9         17.3050   23.9720   14.9120 O.2       1 5B5        -0.1515
      9 O10        19.2360   22.8470   15.9650 O.2       1 5B5        -0.1515
     10 N11        17.6930   24.1800   17.4330 N.am      1 5B5        -0.2325
     11 C12        18.6360   24.5200   18.4830 C.3       1 5B5         0.0319
     12 C13        18.3490   23.7730   19.7910 C.3       1 5B5        -0.0296
     13 C14        18.3490   22.2520   19.6120 C.3       1 5B5        -0.0612
     14 C15        19.3910   24.1550   20.8530 C.3       1 5B5        -0.0612
     15 C16        16.4560   24.9320   17.4660 C.3       1 5B5         0.0578
     16 C17        15.2790   24.0520   17.8690 C.3       1 5B5         0.0967
     17 O18        14.1090   24.8320   18.1130 O.3       1 5B5        -0.3877
     18 C19        14.9900   22.9080   16.8920 C.3       1 5B5         0.0807
     19 N20        14.1310   21.9330   17.5780 N.am      1 5B5        -0.2550
     20 C21        14.3320   20.6190   17.6930 C.2       1 5B5         0.3202
     21 O22        15.3780   20.0800   17.3370 O.2       1 5B5        -0.3775
     22 O23        13.2950   19.9090   18.2250 O.3       1 5B5        -0.2599
     23 C24        13.5390   18.5040   18.3270 C.3       1 5B5         0.1029
     24 C25        12.5550   18.6510   20.5990 C.3       1 5B5         0.0533
     25 O26        11.3610   17.9840   20.1980 O.3       1 5B5        -0.3506
     26 C27        11.1220   17.9720   18.8050 C.3       1 5B5         0.1701
     27 O28        10.5530   19.2020   18.3460 O.3       1 5B5        -0.3452
     28 C29        10.6170   19.1660   16.9270 C.3       1 5B5         0.0938
     29 C30        11.7640   18.2380   16.5490 C.3       1 5B5         0.0117
     30 C31        12.2990   17.7440   17.8970 C.3       1 5B5         0.0854
     31 C32        14.2160   23.3950   15.6580 C.3       1 5B5         0.0064
     32 C33        12.5090   21.8900   14.5450 C.ar      1 5B5        -0.0603
     33 C34        12.1530   20.8070   13.7400 C.ar      1 5B5        -0.0686
     34 C35        13.1440   20.0650   13.1060 C.ar      1 5B5        -0.0687
     35 C36        14.4860   20.3860   13.2990 C.ar      1 5B5        -0.0686
     36 C37        14.8350   21.4620   14.1190 C.ar      1 5B5        -0.0603
     37 C38        13.8480   22.2120   14.7440 C.ar      1 5B5        -0.0408
     38 O39        21.6950   28.6950   14.3930 O.3       1 5B5        -0.3212
     39 C40        22.9410   28.6240   15.0930 C.3       1 5B5         0.0594
     40 C51        13.7800   18.2000   19.8080 C.3       1 5B5         0.0020
     41 N52        11.1580   17.0920   15.8420 N.4       1 5B5         0.2310
     42 C53        10.7470   17.4690   14.4830 C.3       1 5B5        -0.0362
     43 C54        10.7310   16.2140   13.5920 C.3       1 5B5        -0.0245
     44 H1         22.5903   26.5320   15.5542 H         1 5B5         0.0542
     45 H2         21.2003   24.6018   16.2428 H         1 5B5         0.0608
     46 H3         17.7520   26.4518   14.5287 H         1 5B5         0.0608
     47 H4         19.1142   28.4269   13.8840 H         1 5B5         0.0542
     48 H5         18.5773   25.6017   18.6739 H         1 5B5         0.0480
     49 H6         19.6502   24.2619   18.1441 H         1 5B5         0.0480
     50 H7         17.3536   24.0777   20.1466 H         1 5B5         0.0311
     51 H8         18.1388   21.7692   20.5778 H         1 5B5         0.0233
     52 H9         19.3336   21.9259   19.2457 H         1 5B5         0.0233
     53 H10        17.5746   21.9684   18.8841 H         1 5B5         0.0233
     54 H11        19.3956   25.2469   20.9860 H         1 5B5         0.0233
     55 H12        20.3869   23.8213   20.5263 H         1 5B5         0.0233
     56 H13        19.1366   23.6705   21.8072 H         1 5B5         0.0233
     57 H14        16.2645   25.3495   16.4665 H         1 5B5         0.0504
     58 H15        16.5550   25.7516   18.1929 H         1 5B5         0.0504
     59 H16        15.5558   23.5818   18.8241 H         1 5B5         0.0634
     60 H17        13.8761   25.3069   17.3238 H         1 5B5         0.2100
     61 H18        15.9353   22.4401   16.5797 H         1 5B5         0.0604
     62 H19        13.3031   22.2948   18.0066 H         1 5B5         0.1873
     63 H20        14.4052   18.2120   17.7152 H         1 5B5         0.0655
     64 H21        12.7306   18.4461   21.6654 H         1 5B5         0.0562
     65 H22        12.4199   19.7325   20.4508 H         1 5B5         0.0562
     66 H23        10.4015   17.1605   18.6254 H         1 5B5         0.0915
     67 H24        10.8042   20.1757   16.5328 H         1 5B5         0.0617
     68 H25         9.6713   18.7818   16.5171 H         1 5B5         0.0617
     69 H26        12.5369   18.7350   15.9444 H         1 5B5         0.0879
     70 H27        12.5449   16.6729   17.8485 H         1 5B5         0.0435
     71 H28        14.8416   24.1042   15.0962 H         1 5B5         0.0449
     72 H29        13.2944   23.8985   15.9854 H         1 5B5         0.0449
     73 H30        11.7365   22.4849   15.0188 H         1 5B5         0.0557
     74 H31        11.1092   20.5453   13.6095 H         1 5B5         0.0599
     75 H32        12.8722   19.2368   12.4616 H         1 5B5         0.0559
     76 H33        15.2588   19.8013   12.8133 H         1 5B5         0.0599
     77 H34        15.8793   21.7119   14.2676 H         1 5B5         0.0557
     78 H35        23.5558   29.4995   14.8370 H         1 5B5         0.0577
     79 H36        23.4725   27.7055   14.8034 H         1 5B5         0.0577
     80 H37        22.7527   28.6125   16.1767 H         1 5B5         0.0577
     81 H38        14.6694   18.7440   20.1588 H         1 5B5         0.0316
     82 H39        13.9333   17.1194   19.9451 H         1 5B5         0.0316
     83 H40        10.3495   16.7780   16.3556 H         1 5B5         0.2017
     84 H41        11.8322   16.3447   15.7870 H         1 5B5         0.2017
     85 H42        11.4581   18.2016   14.0736 H         1 5B5         0.0811
     86 H43         9.7405   17.9118   14.5126 H         1 5B5         0.0811
     87 H44        10.4237   16.4917   12.5730 H         1 5B5         0.0281
     88 H45        10.0202   15.4818   14.0026 H         1 5B5         0.0281
     89 H46        11.7377   15.7716   13.5636 H         1 5B5         0.0281
@<TRIPOS>BOND
     1    2    1 ar 
     2    6    1 ar 
     3    1   38 1  
     4    3    2 ar 
     5    4    3 ar 
     6    4    5 ar 
     7    7    4 1  
     8    5    6 ar 
     9    7    8 2  
    10    7    9 2  
    11   10    7 am 
    12   10   11 1  
    13   15   10 1  
    14   11   12 1  
    15   12   13 1  
    16   12   14 1  
    17   16   15 1  
    18   16   17 1  
    19   18   16 1  
    20   18   19 1  
    21   31   18 1  
    22   19   20 am 
    23   20   21 2  
    24   20   22 1  
    25   22   23 1  
    26   23   30 1  
    27   23   40 1  
    28   24   25 1  
    29   40   24 1  
    30   26   25 1  
    31   26   27 1  
    32   30   26 1  
    33   28   27 1  
    34   29   28 1  
    35   30   29 1  
    36   29   41 1  
    37   37   31 1  
    38   32   33 ar 
    39   32   37 ar 
    40   33   34 ar 
    41   34   35 ar 
    42   35   36 ar 
    43   36   37 ar 
    44   38   39 1  
    45   41   42 1  
    46   42   43 1  
    47    2   44 1  
    48    3   45 1  
    49    5   46 1  
    50    6   47 1  
    51   11   48 1  
    52   11   49 1  
    53   12   50 1  
    54   13   51 1  
    55   13   52 1  
    56   13   53 1  
    57   14   54 1  
    58   14   55 1  
    59   14   56 1  
    60   15   57 1  
    61   15   58 1  
    62   16   59 1  
    63   17   60 1  
    64   18   61 1  
    65   19   62 1  
    66   23   63 1  
    67   24   64 1  
    68   24   65 1  
    69   26   66 1  
    70   28   67 1  
    71   28   68 1  
    72   29   69 1  
    73   30   70 1  
    74   31   71 1  
    75   31   72 1  
    76   32   73 1  
    77   33   74 1  
    78   34   75 1  
    79   35   76 1  
    80   36   77 1  
    81   39   78 1  
    82   39   79 1  
    83   39   80 1  
    84   40   81 1  
    85   40   82 1  
    86   41   83 1  
    87   41   84 1  
    88   42   85 1  
    89   42   86 1  
    90   43   87 1  
    91   43   88 1  
    92   43   89 1  
@<TRIPOS>SUBSTRUCTURE
     1 5B5         1

