### 
### Created by X-TOOL on Mon Sep 10 21:13:23 2018
### 

@<TRIPOS>MOLECULE
5dgz_ligand
   54    58     1     0     0
SMALL
GAST_HUCK


@<TRIPOS>ATOM
      1 C1         44.5980   -1.1100   -1.0340 C.3       1 L20         0.0342
      2 C2         44.2710   -1.4510    0.3770 C.2       1 L20         0.1388
      3 N3         45.1010   -1.4100    1.3310 N.pl3     1 L20        -0.2570
      4 N4         44.4870   -1.7880    2.4830 N.2       1 L20        -0.3955
      5 C6         43.2040   -2.0890    2.2410 C.ar      1 L20        -0.0369
      6 C7         42.1870   -2.5110    3.0400 C.ar      1 L20        -0.0618
      7 C8         40.9870   -2.7370    2.5060 C.ar      1 L20        -0.0528
      8 C9         40.7520   -2.5460    1.1570 C.ar      1 L20        -0.0121
      9 C10        41.7660   -2.1290    0.3480 C.ar      1 L20        -0.0331
     10 C11        43.0070   -1.8950    0.8920 C.ar      1 L20         0.0502
     11 C12        39.4120   -2.8310    0.6340 C.ar      1 L20         0.0004
     12 C13        38.3270   -2.5870    1.4250 C.ar      1 L20         0.0072
     13 N14        37.1450   -2.8360    1.0090 N.ar      1 L20        -0.3066
     14 C15        36.9430   -3.3410   -0.1620 C.ar      1 L20         0.0391
     15 C16        37.9510   -3.6360   -1.0290 C.ar      1 L20         0.1190
     16 O17        37.6480   -4.1490   -2.2180 O.3       1 L20        -0.3048
     17 C18        38.5510   -4.9950   -2.8760 C.3       1 L20         0.1156
     18 C19        37.9050   -5.5470   -4.1290 C.3       1 L20         0.0083
     19 N21        36.7350   -6.2860   -3.7140 N.4       1 L20         0.2236
     20 C25        37.5000   -4.4230   -5.0860 C.3       1 L20         0.0094
     21 C26        38.6930   -3.6890   -5.6200 C.2       1 L20        -0.0409
     22 C27        39.3650   -3.9440   -6.7250 C.2       1 L20         0.0166
     23 N28        40.3870   -3.0870   -6.8580 N.pl3     1 L20        -0.2891
     24 C30        40.4060   -2.2310   -5.8220 C.ar      1 L20         0.0603
     25 C31        41.2270   -1.1850   -5.4960 C.ar      1 L20        -0.0443
     26 C32        40.9810   -0.5000   -4.3550 C.ar      1 L20        -0.0768
     27 C33        39.9240   -0.8300   -3.5510 C.ar      1 L20        -0.0792
     28 C34        39.1120   -1.8580   -3.8570 C.ar      1 L20        -0.0747
     29 C35        39.3440   -2.5680   -5.0020 C.ar      1 L20        -0.0214
     30 C36        39.2280   -3.3800   -0.6210 C.ar      1 L20        -0.0068
     31 H1         43.6996   -1.2287   -1.6575 H         1 L20         0.0591
     32 H2         45.3893   -1.7810   -1.3995 H         1 L20         0.0591
     33 H3         44.9467   -0.0682   -1.0881 H         1 L20         0.0591
     34 H4         46.0895   -1.1329    1.2475 H         1 L20         0.2720
     35 H5         42.3511   -2.6620    4.1008 H         1 L20         0.0617
     36 H6         40.1784   -3.0776    3.1426 H         1 L20         0.0632
     37 H7         41.5963   -1.9833   -0.7127 H         1 L20         0.0647
     38 H8         38.4698   -2.1770    2.4182 H         1 L20         0.0736
     39 H9         35.9227   -3.5396   -0.4696 H         1 L20         0.0746
     40 H10        38.8273   -5.8255   -2.2098 H         1 L20         0.0675
     41 H11        39.4531   -4.4276   -3.1483 H         1 L20         0.0675
     42 H12        38.6090   -6.2187   -4.6419 H         1 L20         0.0892
     43 H13        36.2756   -6.6707   -4.5246 H         1 L20         0.1999
     44 H14        36.1017   -5.6687   -3.2303 H         1 L20         0.1999
     45 H15        37.0113   -7.0342   -3.0977 H         1 L20         0.1999
     46 H16        36.8562   -3.7119   -4.5477 H         1 L20         0.0405
     47 H17        36.9424   -4.8569   -5.9291 H         1 L20         0.0405
     48 H18        39.1240   -4.7383   -7.4299 H         1 L20         0.0795
     49 H19        41.0586   -3.0848   -7.6389 H         1 L20         0.2216
     50 H20        42.0564   -0.9113   -6.1381 H         1 L20         0.0541
     51 H21        41.6302    0.3214   -4.0741 H         1 L20         0.0530
     52 H22        39.7378   -0.2533   -2.6522 H         1 L20         0.0510
     53 H23        38.2861   -2.1195   -3.2054 H         1 L20         0.0540
     54 H24        40.0734   -3.6008   -1.2626 H         1 L20         0.0660
@<TRIPOS>BOND
     1    1    2 1  
     2    2    3 1  
     3    2   10 2  
     4    3    4 1  
     5    4    5 2  
     6    5    6 ar 
     7    5   10 ar 
     8    6    7 ar 
     9    7    8 ar 
    10    8    9 ar 
    11    8   11 1  
    12    9   10 ar 
    13   11   12 ar 
    14   11   30 ar 
    15   12   13 ar 
    16   13   14 ar 
    17   14   15 ar 
    18   15   16 1  
    19   15   30 ar 
    20   16   17 1  
    21   17   18 1  
    22   18   19 1  
    23   18   20 1  
    24   20   21 1  
    25   21   22 2  
    26   21   29 1  
    27   22   23 1  
    28   23   24 1  
    29   24   25 ar 
    30   24   29 ar 
    31   25   26 ar 
    32   26   27 ar 
    33   27   28 ar 
    34   28   29 ar 
    35    1   31 1  
    36    1   32 1  
    37    1   33 1  
    38    3   34 1  
    39    6   35 1  
    40    7   36 1  
    41    9   37 1  
    42   12   38 1  
    43   14   39 1  
    44   17   40 1  
    45   17   41 1  
    46   18   42 1  
    47   19   43 1  
    48   19   44 1  
    49   19   45 1  
    50   20   46 1  
    51   20   47 1  
    52   22   48 1  
    53   23   49 1  
    54   25   50 1  
    55   26   51 1  
    56   27   52 1  
    57   28   53 1  
    58   30   54 1  
@<TRIPOS>SUBSTRUCTURE
     1 L20         1

