### 
### Created by X-TOOL on Mon Sep 10 21:13:29 2018
### 

@<TRIPOS>MOLECULE
5dh3_ligand
   44    47     1     0     0
SMALL
GAST_HUCK


@<TRIPOS>ATOM
      1 C4         28.7940   18.8670   41.7040 C.ar      1 5BS         0.1613
      2 C5         27.7320   18.3350   41.0140 C.ar      1 5BS         0.1287
      3 C6         26.4990   18.9310   41.1210 C.ar      1 5BS         0.0195
      4 N1         26.3920   20.0490   41.9280 N.ar      1 5BS        -0.2883
      5 N3         28.6430   19.9470   42.4770 N.ar      1 5BS        -0.2479
      6 CAA        26.5950   17.1930   39.2370 C.3       1 5BS         0.0402
      7 NAZ        27.6990   17.2690   40.2180 N.am      1 5BS        -0.2271
      8 CAU        28.5600   16.2500   40.2560 C.2       1 5BS         0.2187
      9 OAD        28.3500   15.3540   39.4530 O.2       1 5BS        -0.3895
     10 CAY        29.6040   16.1360   41.0680 C.2       1 5BS         0.1163
     11 SAQ        30.2750   14.7170   41.4070 S.3       1 5BS        -0.0430
     12 CAG        31.4320   15.2720   42.3930 C.2       1 5BS        -0.0011
     13 CAL        31.2880   16.5950   42.4560 C.2       1 5BS        -0.0347
     14 CAW        30.2820   17.0800   41.7160 C.2       1 5BS         0.0696
     15 NBA        30.0270   18.3910   41.7100 N.pl3     1 5BS        -0.2545
     16 CAB        31.1400   19.3510   41.7280 C.3       1 5BS         0.0346
     17 C2         27.4470   20.5310   42.5830 C.ar      1 5BS         0.1791
     18 NAP        27.2320   21.6040   43.3290 N.pl3     1 5BS        -0.2527
     19 CAR        28.1750   22.1400   44.0930 C.ar      1 5BS         0.0622
     20 CAH        27.8040   23.2080   44.8880 C.ar      1 5BS        -0.0372
     21 CAJ        28.7210   23.8310   45.7100 C.ar      1 5BS        -0.0453
     22 CAT        30.0280   23.3920   45.7510 C.ar      1 5BS         0.0958
     23 SBB        31.1480   24.2040   46.8090 S.o2      1 5BS         0.0606
     24 OAE        32.4490   24.5010   46.0610 O.2       1 5BS        -0.1520
     25 OAF        30.5200   25.5170   47.2820 O.2       1 5BS        -0.1520
     26 NAC        31.4670   23.2580   48.0980 N.am      1 5BS        -0.2622
     27 CAK        30.4080   22.3180   44.9540 C.ar      1 5BS        -0.0453
     28 CAI        29.4840   21.6920   44.1220 C.ar      1 5BS        -0.0372
     29 H1         25.6389   18.5383   40.5908 H         1 5BS         0.0692
     30 H2         25.9697   18.0943   39.3182 H         1 5BS         0.0540
     31 H3         25.9828   16.3024   39.4421 H         1 5BS         0.0540
     32 H4         27.0112   17.1258   38.2210 H         1 5BS         0.0540
     33 H5         32.1853   14.6770   42.9074 H         1 5BS         0.0813
     34 H6         31.9349   17.2300   43.0595 H         1 5BS         0.0440
     35 H7         30.7404   20.3758   41.7199 H         1 5BS         0.0530
     36 H8         31.7717   19.1967   40.8408 H         1 5BS         0.0530
     37 H9         31.7407   19.1989   42.6368 H         1 5BS         0.0530
     38 H10        26.2982   22.0384   43.3155 H         1 5BS         0.2135
     39 H11        26.7793   23.5609   44.8656 H         1 5BS         0.0533
     40 H12        28.4130   24.6684   46.3256 H         1 5BS         0.0606
     41 H13        32.0957   23.5755   48.8079 H         1 5BS         0.1633
     42 H14        31.0340   22.3602   48.1787 H         1 5BS         0.1633
     43 H15        31.4326   21.9651   44.9807 H         1 5BS         0.0606
     44 H16        29.7883   20.8579   43.5001 H         1 5BS         0.0533
@<TRIPOS>BOND
     1    1    2 ar 
     2    1    5 ar 
     3    1   15 1  
     4    2    3 ar 
     5    2    7 1  
     6    3    4 ar 
     7    4   17 ar 
     8    5   17 ar 
     9    7    6 1  
    10    7    8 am 
    11    8    9 2  
    12    8   10 1  
    13   10   11 1  
    14   10   14 2  
    15   11   12 1  
    16   12   13 2  
    17   13   14 1  
    18   14   15 1  
    19   15   16 1  
    20   17   18 1  
    21   18   19 1  
    22   19   20 ar 
    23   19   28 ar 
    24   20   21 ar 
    25   21   22 ar 
    26   22   23 1  
    27   22   27 ar 
    28   23   24 2  
    29   23   25 2  
    30   23   26 am 
    31   27   28 ar 
    32    3   29 1  
    33    6   30 1  
    34    6   31 1  
    35    6   32 1  
    36   12   33 1  
    37   13   34 1  
    38   16   35 1  
    39   16   36 1  
    40   16   37 1  
    41   18   38 1  
    42   20   39 1  
    43   21   40 1  
    44   26   41 1  
    45   26   42 1  
    46   27   43 1  
    47   28   44 1  
@<TRIPOS>SUBSTRUCTURE
     1 5BS         1

