### 
### Created by X-TOOL on Mon Sep 10 21:13:29 2018
### 

@<TRIPOS>MOLECULE
5dh4_ligand
   31    33     1     0     0
SMALL
GAST_HUCK


@<TRIPOS>ATOM
      1 C2          4.8640   12.3770   43.8640 C.2       1 5AV         0.2245
      2 C3          3.5630   14.4910   44.2520 C.2       1 5AV         0.1475
      3 N4          3.5280   14.7620   42.9310 N.2       1 5AV        -0.2816
      4 C7          3.0510   15.1990   45.3710 C.2       1 5AV        -0.0451
      5 C9          6.3170   10.4710   43.6680 C.3       1 5AV         0.0714
      6 C10         7.6740   10.9470   43.3510 C.2       1 5AV         0.0392
      7 C11         9.7870   12.1090   43.1580 C.2       1 5AV         0.0778
      8 C13         8.5890   10.3840   42.4850 C.2       1 5AV        -0.0192
      9 C15        10.9190   13.0420   43.2850 C.3       1 5AV         0.0016
     10 C           4.1390   13.8570   42.1440 C.2       1 5AV         0.0939
     11 N           4.1860   13.3640   44.7140 N.pl3     1 5AV        -0.1131
     12 S           8.3420   12.3640   44.0560 S.3       1 5AV        -0.0119
     13 CL          4.0680   14.2600   40.4640 Cl        1 5AV        -0.0402
     14 C1          4.8020   12.7000   42.5200 C.2       1 5AV         0.0332
     15 N5          4.0610   13.3420   46.1480 N.2       1 5AV        -0.2153
     16 C6          3.3780   14.4690   46.5130 C.2       1 5AV        -0.0233
     17 N8          5.4650   11.2790   44.5110 N.pl3     1 5AV        -0.2604
     18 N12         9.7870   11.0480   42.3860 N.2       1 5AV        -0.3328
     19 C14         8.4010    9.1590   41.6850 C.3       1 5AV        -0.0413
     20 H1          2.5033   16.1398   45.3426 H         1 5AV         0.0192
     21 H2          6.4264    9.4949   44.1632 H         1 5AV         0.0671
     22 H3          5.7907   10.3398   42.7110 H         1 5AV         0.0671
     23 H4         11.7426   12.7096   42.6360 H         1 5AV         0.0468
     24 H5         11.2614   13.0631   44.3301 H         1 5AV         0.0468
     25 H6         10.5988   14.0503   42.9836 H         1 5AV         0.0468
     26 H7          5.2651   12.0575   41.7726 H         1 5AV         0.0429
     27 H8          3.1287   14.7518   47.5347 H         1 5AV         0.0629
     28 H9          5.3093   11.0685   45.5072 H         1 5AV         0.1973
     29 H10         9.3074    8.9653   41.0926 H         1 5AV         0.0328
     30 H11         7.5427    9.2902   41.0096 H         1 5AV         0.0328
     31 H12         8.2128    8.3080   42.3561 H         1 5AV         0.0328
@<TRIPOS>BOND
     1    1   11 1  
     2    1   14 2  
     3   17    1 1  
     4    2    3 1  
     5    2    4 2  
     6   11    2 1  
     7    3   10 2  
     8    4   16 1  
     9    6    5 1  
    10    5   17 1  
    11    6    8 2  
    12   12    6 1  
    13    7    9 1  
    14    7   12 1  
    15    7   18 2  
    16    8   18 1  
    17    8   19 1  
    18   10   13 1  
    19   10   14 1  
    20   11   15 1  
    21   15   16 2  
    22    4   20 1  
    23    5   21 1  
    24    5   22 1  
    25    9   23 1  
    26    9   24 1  
    27    9   25 1  
    28   14   26 1  
    29   16   27 1  
    30   17   28 1  
    31   19   29 1  
    32   19   30 1  
    33   19   31 1  
@<TRIPOS>SUBSTRUCTURE
     1 5AV         1

