### 
### Created by X-TOOL on Mon Sep 10 21:13:29 2018
### 

@<TRIPOS>MOLECULE
5dh5_ligand
   49    53     1     0     0
SMALL
GAST_HUCK


@<TRIPOS>ATOM
      1 C2          4.7900   12.9520   43.8720 C.2       1 5AY         0.0508
      2 C3          4.7240   12.6380   45.2190 C.2       1 5AY         0.2206
      3 N4          3.9060   13.5800   45.9560 N.pl3     1 5AY        -0.1202
      4 C7          7.3980   11.0830   44.7530 C.2       1 5AY        -0.0097
      5 C9          3.4910   15.3500   41.5520 C.3       1 5AY         0.0821
      6 C10         3.7600   15.5460   40.1120 C.3       1 5AY         0.0047
      7 C11         2.9480   14.6960   39.1720 C.3       1 5AY        -0.0303
      8 C12         2.7050   16.1810   39.2520 C.3       1 5AY         0.0142
      9 C13         3.0510   17.1630   38.1800 C.ar      1 5AY         0.0315
     10 C15         3.0620   17.8480   35.8870 C.ar      1 5AY        -0.0489
     11 N19         3.6190   13.5660   47.3620 N.2       1 5AY        -0.2211
     12 C20         2.8320   14.6480   47.6440 C.2       1 5AY        -0.0280
     13 C21         2.6270   15.3580   46.4560 C.2       1 5AY        -0.0517
     14 N23         9.4660   11.0610   43.8170 N.2       1 5AY        -0.2232
     15 C           3.3050   14.6840   45.4140 C.2       1 5AY         0.1338
     16 N           3.3990   14.9460   44.1000 N.2       1 5AY        -0.2799
     17 O           4.2550   14.2500   42.0200 O.3       1 5AY        -0.2964
     18 C1          4.1210   14.0630   43.3900 C.2       1 5AY         0.1444
     19 N5          5.2960   11.5840   45.9620 N.pl3     1 5AY        -0.2657
     20 C6          6.0380   10.6530   45.1300 C.3       1 5AY         0.0555
     21 C8          8.0430   12.2540   45.0990 C.2       1 5AY         0.0477
     22 C14         2.7460   16.9130   36.8540 C.ar      1 5AY        -0.0321
     23 C16         3.6770   19.0340   36.2240 C.ar      1 5AY        -0.0410
     24 C17         3.9520   19.2260   37.5620 C.ar      1 5AY         0.0028
     25 N18         3.6420   18.3260   38.5110 N.ar      1 5AY        -0.2978
     26 N22         9.2680   12.1870   44.5070 N.pl3     1 5AY        -0.2187
     27 C24         8.3270   10.3720   43.9560 C.2       1 5AY        -0.0013
     28 C25        10.3090   13.1980   44.5680 C.3       1 5AY         0.0572
     29 H1          5.3673   12.3258   43.1934 H         1 5AY         0.0398
     30 H2          2.4206   15.1460   41.7026 H         1 5AY         0.0629
     31 H3          3.7730   16.2572   42.1065 H         1 5AY         0.0629
     32 H4          4.8264   15.7488   39.9342 H         1 5AY         0.0357
     33 H5          2.2011   13.9937   39.5707 H         1 5AY         0.0298
     34 H6          3.4177   14.2625   38.2768 H         1 5AY         0.0298
     35 H7          1.7723   16.5239   39.7237 H         1 5AY         0.0494
     36 H8          2.8228   17.6457   34.8492 H         1 5AY         0.0719
     37 H9          2.4340   14.9113   48.6229 H         1 5AY         0.0617
     38 H10         2.0452   16.2726   46.3517 H         1 5AY         0.0159
     39 H11         5.1982   11.4855   46.9826 H         1 5AY         0.1959
     40 H12         6.1226    9.7026   45.6774 H         1 5AY         0.0622
     41 H13         5.4643   10.4937   44.2051 H         1 5AY         0.0622
     42 H14         7.6536   13.0623   45.7163 H         1 5AY         0.0872
     43 H15         2.2600   15.9853   36.5741 H         1 5AY         0.0651
     44 H16         3.9314   19.7771   35.4769 H         1 5AY         0.0652
     45 H17         4.4410   20.1457   37.8622 H         1 5AY         0.0803
     46 H18         8.1398    9.3942   43.5146 H         1 5AY         0.0627
     47 H19         9.9620   14.0452   45.1779 H         1 5AY         0.0599
     48 H20        10.5398   13.5485   43.5512 H         1 5AY         0.0599
     49 H21        11.2135   12.7661   45.0212 H         1 5AY         0.0599
@<TRIPOS>BOND
     1    2    1 2  
     2    1   18 1  
     3    2    3 1  
     4   19    2 1  
     5    3   11 1  
     6    3   15 1  
     7   20    4 1  
     8    4   21 2  
     9    4   27 1  
    10    5    6 1  
    11   17    5 1  
    12    6    7 1  
    13    6    8 1  
    14    8    7 1  
    15    8    9 1  
    16    9   22 ar 
    17    9   25 ar 
    18   22   10 ar 
    19   10   23 ar 
    20   11   12 2  
    21   13   12 1  
    22   15   13 2  
    23   14   26 1  
    24   27   14 2  
    25   15   16 1  
    26   18   16 2  
    27   18   17 1  
    28   19   20 1  
    29   21   26 1  
    30   23   24 ar 
    31   24   25 ar 
    32   26   28 1  
    33    1   29 1  
    34    5   30 1  
    35    5   31 1  
    36    6   32 1  
    37    7   33 1  
    38    7   34 1  
    39    8   35 1  
    40   10   36 1  
    41   12   37 1  
    42   13   38 1  
    43   19   39 1  
    44   20   40 1  
    45   20   41 1  
    46   21   42 1  
    47   22   43 1  
    48   23   44 1  
    49   24   45 1  
    50   27   46 1  
    51   28   47 1  
    52   28   48 1  
    53   28   49 1  
@<TRIPOS>SUBSTRUCTURE
     1 5AY         1

