### 
### Created by X-TOOL on Mon Sep 10 21:13:25 2018
### 

@<TRIPOS>MOLECULE
5dhg_ligand
   67    70     1     0     0
SMALL
GAST_HUCK


@<TRIPOS>ATOM
      1 CLAY      -12.0180   32.7290    3.3000 Cl        1 DGV        -0.0772
      2 CBA       -10.3440   33.3070    3.4120 C.ar      1 DGV         0.0421
      3 CBB        -9.8840   33.8500    4.6000 C.ar      1 DGV        -0.0544
      4 CBF        -8.6200   34.3010    4.6970 C.ar      1 DGV        -0.0677
      5 CBE        -7.7650   34.2240    3.6500 C.ar      1 DGV        -0.0544
      6 CBD        -8.1820   33.6840    2.4340 C.ar      1 DGV         0.0421
      7 CLBC       -7.0060   33.6270    1.0980 Cl        1 DGV        -0.0772
      8 CAZ        -9.4940   33.2010    2.2840 C.ar      1 DGV        -0.0114
      9 CAX       -10.1130   32.5650    0.9720 C.3       1 DGV         0.0034
     10 CAU        -9.2790   31.5720    0.2530 C.3       1 DGV         0.0004
     11 CAT        -9.9750   31.1040   -0.9830 C.3       1 DGV        -0.0298
     12 CAW       -10.5160   33.6640   -0.0010 C.3       1 DGV         0.0004
     13 CAV       -11.1240   32.9590   -1.2750 C.3       1 DGV        -0.0298
     14 NAS       -10.2910   32.0440   -1.8210 N.4       1 DGV         0.2355
     15 CAR       -11.0160   31.4930   -2.7390 C.3       1 DGV        -0.0300
     16 CAQ       -10.1140   31.1220   -3.9360 C.3       1 DGV         0.0077
     17 CAP       -10.9820   30.3410   -4.9590 C.3       1 DGV         0.0359
     18 NAO       -10.0660   29.7830   -6.0130 N.am      1 DGV        -0.2822
     19 C         -10.1460   28.3360   -6.4240 C.2       1 DGV         0.2246
     20 O         -10.9670   27.7340   -5.8450 O.2       1 DGV        -0.3909
     21 CD         -7.2130   27.1270   -8.4110 C.3       1 DGV        -0.0280
     22 CG         -8.1210   27.7230   -9.5460 C.3       1 DGV        -0.0052
     23 CB         -9.4850   27.9960   -8.8590 C.3       1 DGV         0.0128
     24 CA         -9.3390   27.4270   -7.4640 C.3       1 DGV         0.0701
     25 N          -7.9230   27.4210   -7.1930 N.4       1 DGV         0.2658
     26 CAG        -7.4770   28.6510   -6.6010 C.3       1 DGV         0.0041
     27 CAF        -7.2390   28.7260   -5.0850 C.ar      1 DGV         0.0014
     28 CAE        -7.2950   27.6570   -4.3340 C.ar      1 DGV        -0.0553
     29 CAD        -7.0410   27.7850   -2.8240 C.ar      1 DGV        -0.0684
     30 CAA        -6.7710   28.9510   -2.2990 C.ar      1 DGV        -0.0687
     31 CAB        -6.7040   30.1940   -3.1850 C.ar      1 DGV        -0.0684
     32 CAC        -6.9190   30.0910   -4.4810 C.ar      1 DGV        -0.0553
     33 H1        -10.5458   33.9120    5.4563 H         1 DGV         0.0607
     34 H2         -8.2799   34.7340    5.6308 H         1 DGV         0.0560
     35 H3         -6.7486   34.5849    3.7579 H         1 DGV         0.0607
     36 H4        -11.0268   32.0388    1.2851 H         1 DGV         0.0469
     37 H5         -9.0921   30.7110    0.9116 H         1 DGV         0.0342
     38 H6         -8.3211   32.0362   -0.0244 H         1 DGV         0.0342
     39 H7        -10.8996   30.5904   -0.6810 H         1 DGV         0.0816
     40 H8         -9.3130   30.3937   -1.4999 H         1 DGV         0.0816
     41 H9         -9.6349   34.2587   -0.2838 H         1 DGV         0.0342
     42 H10       -11.2681   34.3199    0.4617 H         1 DGV         0.0342
     43 H11       -11.3431   33.7282   -2.0302 H         1 DGV         0.0816
     44 H12       -12.0571   32.4541   -0.9844 H         1 DGV         0.0816
     45 H13        -9.4625   32.4802   -2.1944 H         1 DGV         0.2033
     46 H14       -11.7936   32.1981   -3.0677 H         1 DGV         0.0815
     47 H15       -11.4901   30.5846   -2.3390 H         1 DGV         0.0815
     48 H16        -9.2796   30.4917   -3.5948 H         1 DGV         0.0336
     49 H17        -9.7166   32.0354   -4.4026 H         1 DGV         0.0336
     50 H18       -11.7147   31.0186   -5.4216 H         1 DGV         0.0522
     51 H19       -11.5106   29.5208   -4.4512 H         1 DGV         0.0522
     52 H20        -9.3934   30.3818   -6.4478 H         1 DGV         0.1852
     53 H21        -6.2239   27.6083   -8.4108 H         1 DGV         0.0815
     54 H22        -7.0925   26.0411   -8.5388 H         1 DGV         0.0815
     55 H23        -8.2385   27.0011  -10.3676 H         1 DGV         0.0320
     56 H24        -7.6902   28.6566   -9.9369 H         1 DGV         0.0320
     57 H25       -10.2988   27.4908   -9.3998 H         1 DGV         0.0347
     58 H26        -9.6879   29.0763   -8.8170 H         1 DGV         0.0347
     59 H27        -9.7320   26.4003   -7.4257 H         1 DGV         0.1100
     60 H28        -7.7347   26.6819   -6.5340 H         1 DGV         0.2071
     61 H29        -8.2322   29.4133   -6.8430 H         1 DGV         0.0981
     62 H30        -6.5247   28.9112   -7.0862 H         1 DGV         0.0981
     63 H31        -7.5182   26.6909   -4.7720 H         1 DGV         0.0558
     64 H32        -7.0859   26.9053   -2.1921 H         1 DGV         0.0599
     65 H33        -6.5943   29.0364   -1.2329 H         1 DGV         0.0559
     66 H34        -6.4797   31.1602   -2.7477 H         1 DGV         0.0599
     67 H35        -6.8690   30.9696   -5.1139 H         1 DGV         0.0558
@<TRIPOS>BOND
     1    2    1 1  
     2    2    3 ar 
     3    8    2 ar 
     4    3    4 ar 
     5    5    4 ar 
     6    6    5 ar 
     7    6    7 1  
     8    8    6 ar 
     9    9    8 1  
    10   10    9 1  
    11   12    9 1  
    12   11   10 1  
    13   14   11 1  
    14   13   12 1  
    15   14   13 1  
    16   15   14 1  
    17   16   15 1  
    18   17   16 1  
    19   18   17 1  
    20   19   18 am 
    21   19   20 2  
    22   24   19 1  
    23   22   21 1  
    24   21   25 1  
    25   23   22 1  
    26   23   24 1  
    27   24   25 1  
    28   25   26 1  
    29   26   27 1  
    30   27   28 ar 
    31   27   32 ar 
    32   28   29 ar 
    33   29   30 ar 
    34   30   31 ar 
    35   31   32 ar 
    36    3   33 1  
    37    4   34 1  
    38    5   35 1  
    39    9   36 1  
    40   10   37 1  
    41   10   38 1  
    42   11   39 1  
    43   11   40 1  
    44   12   41 1  
    45   12   42 1  
    46   13   43 1  
    47   13   44 1  
    48   14   45 1  
    49   15   46 1  
    50   15   47 1  
    51   16   48 1  
    52   16   49 1  
    53   17   50 1  
    54   17   51 1  
    55   18   52 1  
    56   21   53 1  
    57   21   54 1  
    58   22   55 1  
    59   22   56 1  
    60   23   57 1  
    61   23   58 1  
    62   24   59 1  
    63   25   60 1  
    64   26   61 1  
    65   26   62 1  
    66   28   63 1  
    67   29   64 1  
    68   30   65 1  
    69   31   66 1  
    70   32   67 1  
@<TRIPOS>SUBSTRUCTURE
     1 DGV         1

