### 
### Created by X-TOOL on Mon Sep 10 21:13:25 2018
### 

@<TRIPOS>MOLECULE
5dhh_ligand
   58    61     1     0     0
SMALL
GAST_HUCK


@<TRIPOS>ATOM
      1 CLAC      -12.1180   31.2110    2.5010 Cl        1 DGW        -0.0772
      2 CAT       -10.4350   31.4040    2.7020 C.ar      1 DGW         0.0421
      3 CAH        -9.9740   31.8080    3.9470 C.ar      1 DGW        -0.0544
      4 CAE        -8.6170   31.9860    4.1580 C.ar      1 DGW        -0.0677
      5 CAI        -7.7270   31.7520    3.1240 C.ar      1 DGW        -0.0544
      6 CAU        -8.1680   31.3470    1.8720 C.ar      1 DGW         0.0421
      7 CLAD       -6.8920   31.0990    0.6720 Cl        1 DGW        -0.0772
      8 CAX        -9.5500   31.1630    1.6490 C.ar      1 DGW        -0.0114
      9 CBA       -10.0740   30.7600    0.4000 C.3       1 DGW         0.0034
     10 CAM        -9.6520   31.6640   -0.7150 C.3       1 DGW         0.0004
     11 CAO       -10.2230   31.2180   -2.0440 C.3       1 DGW        -0.0298
     12 CAN        -9.7090   29.3030    0.0550 C.3       1 DGW         0.0004
     13 CAP       -10.3110   28.9590   -1.3130 C.3       1 DGW        -0.0298
     14 NBB        -9.7700   29.8590   -2.3610 N.4       1 DGW         0.2357
     15 CAR       -10.3540   29.5430   -3.6760 C.3       1 DGW        -0.0287
     16 CAZ       -10.0660   28.1990   -4.3600 C.3       1 DGW         0.0047
     17 CAQ        -8.5520   28.0630   -4.3850 C.3       1 DGW        -0.0102
     18 CAY        -7.9480   26.7930   -5.0240 C.3       1 DGW         0.0856
     19 OAB        -6.5270   26.7260   -4.8100 O.3       1 DGW        -0.3807
     20 CAV        -8.2660   26.6020   -6.3760 C.ar      1 DGW        -0.0193
     21 CAJ        -7.1150   26.1790   -7.0300 C.ar      1 DGW        -0.0712
     22 CAF        -7.1120   25.9200   -8.3930 C.ar      1 DGW        -0.0819
     23 CAG        -8.2760   26.0920   -9.1310 C.ar      1 DGW        -0.0739
     24 CAS        -9.4370   26.5240   -8.4960 C.ar      1 DGW        -0.0505
     25 CAA       -10.6050   26.6920   -9.2550 C.3       1 DGW        -0.0353
     26 CAW        -9.4300   26.7840   -7.1170 C.ar      1 DGW        -0.0372
     27 CAK       -10.6860   27.1980   -6.7060 C.3       1 DGW        -0.0238
     28 CAL       -10.7470   28.3530   -5.7210 C.3       1 DGW        -0.0375
     29 H1        -10.6759   31.9842    4.7541 H         1 DGW         0.0607
     30 H2         -8.2537   32.3068    5.1276 H         1 DGW         0.0560
     31 H3         -6.6653   31.8877    3.2954 H         1 DGW         0.0607
     32 H4        -11.1698   30.8181    0.4767 H         1 DGW         0.0469
     33 H5         -8.5539   31.6613   -0.7799 H         1 DGW         0.0342
     34 H6        -10.0042   32.6837   -0.4999 H         1 DGW         0.0342
     35 H7         -9.8863   31.9063   -2.8332 H         1 DGW         0.0816
     36 H8        -11.3216   31.2312   -1.9900 H         1 DGW         0.0816
     37 H9        -10.1181   28.6272    0.8204 H         1 DGW         0.0342
     38 H10        -8.6151   29.1941    0.0165 H         1 DGW         0.0342
     39 H11       -11.4040   29.0738   -1.2665 H         1 DGW         0.0816
     40 H12       -10.0621   27.9180   -1.5664 H         1 DGW         0.0816
     41 H13        -8.7642   29.8010   -2.3919 H         1 DGW         0.2033
     42 H14       -10.0124   30.3269   -4.3679 H         1 DGW         0.0817
     43 H15       -11.4458   29.6079   -3.5585 H         1 DGW         0.0817
     44 H16       -10.5031   27.3511   -3.8124 H         1 DGW         0.0356
     45 H17        -8.2029   28.1022   -3.3426 H         1 DGW         0.0315
     46 H18        -8.1551   28.9274   -4.9375 H         1 DGW         0.0315
     47 H19        -8.3904   25.9424   -4.4849 H         1 DGW         0.0740
     48 H20        -6.1841   25.9369   -5.2128 H         1 DGW         0.2127
     49 H21        -6.2002   26.0487   -6.4632 H         1 DGW         0.0482
     50 H22        -6.2039   25.5844   -8.8805 H         1 DGW         0.0525
     51 H23        -8.2803   25.8908  -10.1962 H         1 DGW         0.0482
     52 H24       -10.3995   26.4376  -10.3053 H         1 DGW         0.0374
     53 H25       -10.9375   27.7385   -9.1895 H         1 DGW         0.0374
     54 H26       -11.3937   26.0316   -8.8654 H         1 DGW         0.0374
     55 H27       -11.1817   26.3357   -6.2363 H         1 DGW         0.0396
     56 H28       -11.2459   27.4986   -7.6038 H         1 DGW         0.0396
     57 H29       -10.2894   29.2230   -6.2146 H         1 DGW         0.0288
     58 H30       -11.8105   28.5578   -5.5288 H         1 DGW         0.0288
@<TRIPOS>BOND
     1    1    2 1  
     2    2    3 ar 
     3    2    8 ar 
     4    3    4 ar 
     5    4    5 ar 
     6    5    6 ar 
     7    6    7 1  
     8    6    8 ar 
     9    8    9 1  
    10    9   10 1  
    11    9   12 1  
    12   10   11 1  
    13   11   14 1  
    14   12   13 1  
    15   13   14 1  
    16   14   15 1  
    17   15   16 1  
    18   16   17 1  
    19   16   28 1  
    20   17   18 1  
    21   18   19 1  
    22   18   20 1  
    23   20   21 ar 
    24   20   26 ar 
    25   21   22 ar 
    26   22   23 ar 
    27   23   24 ar 
    28   24   25 1  
    29   24   26 ar 
    30   26   27 1  
    31   27   28 1  
    32    3   29 1  
    33    4   30 1  
    34    5   31 1  
    35    9   32 1  
    36   10   33 1  
    37   10   34 1  
    38   11   35 1  
    39   11   36 1  
    40   12   37 1  
    41   12   38 1  
    42   13   39 1  
    43   13   40 1  
    44   14   41 1  
    45   15   42 1  
    46   15   43 1  
    47   16   44 1  
    48   17   45 1  
    49   17   46 1  
    50   18   47 1  
    51   19   48 1  
    52   21   49 1  
    53   22   50 1  
    54   23   51 1  
    55   25   52 1  
    56   25   53 1  
    57   25   54 1  
    58   27   55 1  
    59   27   56 1  
    60   28   57 1  
    61   28   58 1  
@<TRIPOS>SUBSTRUCTURE
     1 DGW         1

