### 
### Created by X-TOOL on Mon Sep 10 21:13:24 2018
### 

@<TRIPOS>MOLECULE
5dhj_ligand
   26    28     1     0     0
SMALL
GAST_HUCK


@<TRIPOS>ATOM
      1 C7         22.5750   35.4480    0.3750 C.ar      1 5E5        -0.0291
      2 C2         23.4270   37.9400    0.5440 C.2       1 5E5         0.0423
      3 C10        22.8900   35.4890    3.1170 C.ar      1 5E5         0.0369
      4 N3         23.7880   38.6470    1.5850 N.2       1 5E5        -0.2088
      5 C6         23.0330   36.6400    0.9860 C.ar      1 5E5         0.0340
      6 C1         23.4710   38.4530   -0.8820 C.3       1 5E5        -0.0205
      7 N4         23.6510   37.8830    2.7570 N.pl3     1 5E5        -0.2138
      8 C5         23.1930   36.6390    2.3970 C.ar      1 5E5         0.1124
      9 C8         22.3030   34.3440    1.1930 C.ar      1 5E5         0.0468
     10 N9         22.4710   34.4020    2.5110 N.ar      1 5E5        -0.3009
     11 C11        21.8290   33.0450    0.6550 C.ar      1 5E5         0.0182
     12 C12        21.9140   32.7440   -0.7130 C.ar      1 5E5        -0.0350
     13 C13        21.4630   31.4950   -1.1350 C.ar      1 5E5        -0.0341
     14 C14        20.9500   30.6060   -0.1980 C.ar      1 5E5         0.0105
     15 N15        20.8950   30.9170    1.0910 N.ar      1 5E5        -0.2967
     16 C16        21.3100   32.0890    1.5390 C.ar      1 5E5         0.0187
     17 H1         22.4382   35.3911   -0.6988 H         1 5E5         0.0708
     18 H2         23.0013   35.4896    4.1953 H         1 5E5         0.0790
     19 H3         23.1170   37.6671   -1.5654 H         1 5E5         0.0389
     20 H4         24.5043   38.7265   -1.1416 H         1 5E5         0.0389
     21 H5         22.8235   39.3375   -0.9737 H         1 5E5         0.0389
     22 H6         23.8573   38.1996    3.7152 H         1 5E5         0.2436
     23 H7         22.3178   33.4605   -1.4191 H         1 5E5         0.0738
     24 H8         21.5117   31.2198   -2.1824 H         1 5E5         0.0708
     25 H9         20.5874   29.6388   -0.5267 H         1 5E5         0.0817
     26 H10        21.2486   32.3127    2.5979 H         1 5E5         0.0829
@<TRIPOS>BOND
     1    5    1 ar 
     2    1    9 ar 
     3    2    4 2  
     4    5    2 1  
     5    2    6 1  
     6    8    3 ar 
     7    3   10 ar 
     8    4    7 1  
     9    5    8 ar 
    10    7    8 1  
    11    9   10 ar 
    12    9   11 1  
    13   11   12 ar 
    14   11   16 ar 
    15   12   13 ar 
    16   13   14 ar 
    17   14   15 ar 
    18   15   16 ar 
    19    1   17 1  
    20    3   18 1  
    21    6   19 1  
    22    6   20 1  
    23    6   21 1  
    24    7   22 1  
    25   12   23 1  
    26   13   24 1  
    27   14   25 1  
    28   16   26 1  
@<TRIPOS>SUBSTRUCTURE
     1 5E5         1

