### 
### Created by X-TOOL on Mon Sep 10 21:13:29 2018
### 

@<TRIPOS>MOLECULE
5dhp_ligand
   56    59     1     0     0
SMALL
GAST_HUCK


@<TRIPOS>ATOM
      1 C2         13.9090  -19.3180  -44.9090 C.ar      1 5AQ         0.0509
      2 C4         11.7160  -18.8050  -44.8200 C.ar      1 5AQ         0.1571
      3 C5         11.7070  -18.3160  -46.0970 C.ar      1 5AQ         0.0924
      4 C6         12.8690  -18.3270  -46.8020 C.ar      1 5AQ         0.1250
      5 N9         10.5210  -18.6950  -44.3590 N.pl3     1 5AQ        -0.1774
      6 CBA         8.4730  -20.6380  -47.4560 C.ar      1 5AQ        -0.0603
      7 CBB         9.2360  -21.3190  -46.5350 C.ar      1 5AQ        -0.0686
      8 CBC        10.5420  -21.6140  -46.8370 C.ar      1 5AQ        -0.0687
      9 CBD        11.0670  -21.2240  -48.0560 C.ar      1 5AQ        -0.0686
     10 CBE        10.3000  -20.5430  -48.9670 C.ar      1 5AQ        -0.0603
     11 CAZ         8.9990  -20.2320  -48.6630 C.ar      1 5AQ        -0.0411
     12 CAY         8.1150  -19.4990  -49.6770 C.3       1 5AQ         0.0011
     13 CAX         8.3630  -18.0120  -49.8180 C.3       1 5AQ         0.0404
     14 NAW         8.5330  -17.4490  -48.5000 N.am      1 5AQ        -0.2841
     15 CAV         7.5170  -17.0870  -47.7780 C.2       1 5AQ         0.1893
     16 OBF         6.3800  -17.1520  -48.1860 O.2       1 5AQ        -0.3959
     17 CAU         7.8690  -16.5330  -46.4100 C.3       1 5AQ         0.1055
     18 SAT         8.1490  -17.8060  -45.1400 S.3       1 5AQ        -0.0146
     19 C8          9.7850  -18.1430  -45.2960 C.2       1 5AQ         0.1959
     20 N7         10.4940  -17.9120  -46.3680 N.2       1 5AQ        -0.2976
     21 N6         12.9460  -17.8690  -48.0130 N.pl3     1 5AQ        -0.3168
     22 N1         13.9640  -18.8280  -46.1920 N.ar      1 5AQ        -0.2729
     23 N3         12.7950  -19.2980  -44.2530 N.ar      1 5AQ        -0.2743
     24 C1'        10.1660  -19.1270  -43.0420 C.3       1 5AQ         0.2013
     25 O4'         9.1210  -20.0760  -43.1320 O.3       1 5AQ        -0.3371
     26 C4'         8.4640  -20.0220  -41.9150 C.3       1 5AQ         0.1135
     27 C5'         7.0790  -20.4880  -42.2230 C.3       1 5AQ         0.0730
     28 O5'         6.8940  -21.8060  -41.7760 O.3       1 5AQ        -0.3924
     29 C3'         8.3300  -18.5280  -41.6620 C.3       1 5AQ         0.1145
     30 O3'         8.1730  -18.2480  -40.2940 O.3       1 5AQ        -0.3864
     31 C2'         9.6420  -17.9860  -42.1950 C.3       1 5AQ         0.1381
     32 O2'        10.5190  -17.8390  -41.1510 O.3       1 5AQ        -0.3836
     33 H1         14.8019  -19.7222  -44.4459 H         1 5AQ         0.0977
     34 H2          7.4369  -20.4165  -47.2271 H         1 5AQ         0.0557
     35 H3          8.8112  -21.6184  -45.5837 H         1 5AQ         0.0599
     36 H4         11.1586  -22.1496  -46.1243 H         1 5AQ         0.0559
     37 H5         12.0979  -21.4596  -48.2945 H         1 5AQ         0.0599
     38 H6         10.7202  -20.2519  -49.9229 H         1 5AQ         0.0557
     39 H7          7.0670  -19.6385  -49.3733 H         1 5AQ         0.0446
     40 H8          8.2762  -19.9623  -50.6616 H         1 5AQ         0.0446
     41 H9          7.5042  -17.5382  -50.3159 H         1 5AQ         0.0542
     42 H10         9.2718  -17.8423  -50.4140 H         1 5AQ         0.0542
     43 H11         9.4566  -17.3350  -48.1339 H         1 5AQ         0.1853
     44 H12         7.0429  -15.8881  -46.0758 H         1 5AQ         0.0652
     45 H13         8.7864  -15.9337  -46.5060 H         1 5AQ         0.0652
     46 H14        13.8440  -17.8937  -48.5168 H         1 5AQ         0.1811
     47 H15        12.1091  -17.4806  -48.4709 H         1 5AQ         0.1811
     48 H16        11.0467  -19.5743  -42.5580 H         1 5AQ         0.0991
     49 H17         8.9566  -20.5783  -41.1039 H         1 5AQ         0.0647
     50 H18         6.9168  -20.4482  -43.3102 H         1 5AQ         0.0584
     51 H19         6.3552  -19.8300  -41.7199 H         1 5AQ         0.0584
     52 H20         7.0312  -21.8428  -40.8367 H         1 5AQ         0.2095
     53 H21         7.4771  -18.1098  -42.2167 H         1 5AQ         0.0648
     54 H22         8.0924  -17.3094  -40.1712 H         1 5AQ         0.2100
     55 H23         9.5154  -17.0509  -42.7602 H         1 5AQ         0.0676
     56 H24        10.1550  -17.2333  -40.5160 H         1 5AQ         0.2101
@<TRIPOS>BOND
     1    1   22 ar 
     2   23    1 ar 
     3    2    3 ar 
     4    5    2 1  
     5    2   23 ar 
     6    3    4 ar 
     7    3   20 1  
     8    4   21 1  
     9    4   22 ar 
    10   19    5 1  
    11    5   24 1  
    12    6    7 ar 
    13   11    6 ar 
    14    7    8 ar 
    15    9    8 ar 
    16   10    9 ar 
    17   11   10 ar 
    18   12   11 1  
    19   13   12 1  
    20   14   13 1  
    21   15   14 am 
    22   15   16 2  
    23   17   15 1  
    24   18   17 1  
    25   18   19 1  
    26   19   20 2  
    27   24   25 1  
    28   24   31 1  
    29   25   26 1  
    30   26   27 1  
    31   26   29 1  
    32   27   28 1  
    33   29   30 1  
    34   29   31 1  
    35   31   32 1  
    36    1   33 1  
    37    6   34 1  
    38    7   35 1  
    39    8   36 1  
    40    9   37 1  
    41   10   38 1  
    42   12   39 1  
    43   12   40 1  
    44   13   41 1  
    45   13   42 1  
    46   14   43 1  
    47   17   44 1  
    48   17   45 1  
    49   21   46 1  
    50   21   47 1  
    51   24   48 1  
    52   26   49 1  
    53   27   50 1  
    54   27   51 1  
    55   28   52 1  
    56   29   53 1  
    57   30   54 1  
    58   31   55 1  
    59   32   56 1  
@<TRIPOS>SUBSTRUCTURE
     1 5AQ         1

