### 
### Created by X-TOOL on Mon Sep 10 21:13:29 2018
### 

@<TRIPOS>MOLECULE
5dhr_ligand
   60    64     1     0     0
SMALL
GAST_HUCK


@<TRIPOS>ATOM
      1 C2        -13.2800   12.6820    5.4610 C.ar      1 5AJ         0.0509
      2 C4        -12.6410   12.2400    3.3520 C.ar      1 5AJ         0.1571
      3 C5        -13.8520   11.6940    3.1020 C.ar      1 5AJ         0.0924
      4 C6        -14.7780   11.6610    4.1040 C.ar      1 5AJ         0.1250
      5 N9        -11.9200   12.1500    2.2840 N.pl3     1 5AJ        -0.1774
      6 NBH        -8.7370   17.1020   -2.6230 N.1       1 5AJ         0.2334
      7 NBG        -8.9940   16.3100   -1.6100 N.1       1 5AJ         0.1293
      8 NBF        -9.2410   15.5210   -0.6000 N.2       1 5AJ         0.1686
      9 CBE        -9.0900   14.0640   -0.6950 C.3       1 5AJ         0.2373
     10 CBC        -9.2370   13.4650    0.6910 C.3       1 5AJ         0.1455
     11 OBD       -10.5820   13.4110    1.0550 O.3       1 5AJ        -0.3342
     12 CBB        -8.9020   11.9940    0.6550 C.3       1 5AJ         0.1173
     13 OBI        -7.5140   11.8270    0.7900 O.3       1 5AJ        -0.3863
     14 CBA        -9.6120   11.5200    1.9110 C.3       1 5AJ         0.1382
     15 OBJ        -8.6820   11.4650    2.9430 O.3       1 5AJ        -0.3836
     16 CAZ       -10.5930   12.6370    2.1950 C.3       1 5AJ         0.2014
     17 N3        -12.3780   12.7210    4.5370 N.ar      1 5AJ        -0.2743
     18 N1        -14.4520   12.1640    5.2510 N.ar      1 5AJ        -0.2729
     19 N6        -15.9610   11.1490    3.9580 N.pl3     1 5AJ        -0.3168
     20 N7        -13.8270   11.2750    1.8690 N.2       1 5AJ        -0.2976
     21 C8        -12.6550   11.5750    1.3790 C.2       1 5AJ         0.1959
     22 SAP       -12.1830   11.2320   -0.1980 S.3       1 5AJ        -0.0146
     23 CAO       -13.3530    9.8940   -0.5720 C.3       1 5AJ         0.1055
     24 CAM       -14.5870   10.2970   -1.3600 C.2       1 5AJ         0.1893
     25 OAN       -14.5890   10.3510   -2.5770 O.2       1 5AJ        -0.3959
     26 NAL       -15.6480   10.5030   -0.6320 N.am      1 5AJ        -0.2833
     27 CAK       -16.9000   10.9250   -1.2120 C.3       1 5AJ         0.0486
     28 CAJ       -16.7810   12.3840   -1.6010 C.3       1 5AJ         0.0500
     29 CAH       -15.9960   13.1850   -0.5860 C.2       1 5AJ         0.1225
     30 NAI       -16.4310   13.4960    0.6070 N.2       1 5AJ        -0.3180
     31 CAD       -15.5130   14.1920    1.2170 C.ar      1 5AJ         0.0207
     32 CAC       -15.4640   14.7570    2.4650 C.ar      1 5AJ        -0.0656
     33 CAB       -14.3480   15.4480    2.8450 C.ar      1 5AJ        -0.0786
     34 CAA       -13.2970   15.5790    1.9680 C.ar      1 5AJ        -0.0766
     35 CAF       -13.3570   15.0070    0.7230 C.ar      1 5AJ        -0.0422
     36 CAE       -14.4750   14.3150    0.3490 C.ar      1 5AJ         0.0783
     37 NAG       -14.8010   13.7000   -0.7520 N.pl3     1 5AJ        -0.2464
     38 H1        -13.0523   13.0928    6.4380 H         1 5AJ         0.0977
     39 H2         -8.0962   13.8210   -1.0990 H         1 5AJ         0.0986
     40 H3         -9.8658   13.6545   -1.3587 H         1 5AJ         0.0986
     41 H4         -8.6262   14.0191    1.4190 H         1 5AJ         0.0677
     42 H5         -9.2700   11.4949   -0.2535 H         1 5AJ         0.0649
     43 H6         -7.3039   10.9008    0.7672 H         1 5AJ         0.2100
     44 H7        -10.1118   10.5502    1.7709 H         1 5AJ         0.0676
     45 H8         -7.9888   10.8582    2.7111 H         1 5AJ         0.2101
     46 H9        -10.3102   13.2005    3.0963 H         1 5AJ         0.0991
     47 H10       -16.6232   11.1492    4.7469 H         1 5AJ         0.1811
     48 H11       -16.2380   10.7423    3.0532 H         1 5AJ         0.1811
     49 H12       -13.6882    9.4620    0.3825 H         1 5AJ         0.0652
     50 H13       -12.8167    9.1290   -1.1526 H         1 5AJ         0.0652
     51 H14       -15.5929   10.3647    0.3569 H         1 5AJ         0.1853
     52 H15       -17.7096   10.8015   -0.4777 H         1 5AJ         0.0552
     53 H16       -17.1186   10.3197   -2.1041 H         1 5AJ         0.0552
     54 H17       -17.7910   12.8116   -1.6848 H         1 5AJ         0.0553
     55 H18       -16.2727   12.4506   -2.5742 H         1 5AJ         0.0553
     56 H19       -16.3028   14.6566    3.1442 H         1 5AJ         0.0535
     57 H20       -14.2915   15.8907    3.8329 H         1 5AJ         0.0516
     58 H21       -12.4159   16.1376    2.2624 H         1 5AJ         0.0528
     59 H22       -12.5218   15.1032    0.0387 H         1 5AJ         0.0541
     60 H23       -14.2232   13.6304   -1.6018 H         1 5AJ         0.2322
@<TRIPOS>BOND
     1   17    1 ar 
     2    1   18 ar 
     3    2    3 ar 
     4    5    2 1  
     5    2   17 ar 
     6    3    4 ar 
     7    3   20 1  
     8    4   18 ar 
     9    4   19 1  
    10   16    5 1  
    11    5   21 1  
    12    7    6 3  
    13    8    7 2  
    14    9    8 1  
    15   10    9 1  
    16   11   10 1  
    17   10   12 1  
    18   11   16 1  
    19   12   13 1  
    20   12   14 1  
    21   14   15 1  
    22   14   16 1  
    23   20   21 2  
    24   21   22 1  
    25   22   23 1  
    26   23   24 1  
    27   24   25 2  
    28   24   26 am 
    29   26   27 1  
    30   27   28 1  
    31   28   29 1  
    32   29   30 2  
    33   29   37 1  
    34   30   31 1  
    35   31   32 ar 
    36   31   36 ar 
    37   32   33 ar 
    38   33   34 ar 
    39   34   35 ar 
    40   35   36 ar 
    41   36   37 1  
    42    1   38 1  
    43    9   39 1  
    44    9   40 1  
    45   10   41 1  
    46   12   42 1  
    47   13   43 1  
    48   14   44 1  
    49   15   45 1  
    50   16   46 1  
    51   19   47 1  
    52   19   48 1  
    53   23   49 1  
    54   23   50 1  
    55   26   51 1  
    56   27   52 1  
    57   27   53 1  
    58   28   54 1  
    59   28   55 1  
    60   32   56 1  
    61   33   57 1  
    62   34   58 1  
    63   35   59 1  
    64   37   60 1  
@<TRIPOS>SUBSTRUCTURE
     1 5AJ         1

