### 
### Created by X-TOOL on Mon Sep 10 21:13:30 2018
### 

@<TRIPOS>MOLECULE
5dhs_ligand
   59    62     1     0     0
SMALL
GAST_HUCK


@<TRIPOS>ATOM
      1 C2         13.8380  -18.0450  -45.1250 C.ar      1 5AG         0.0509
      2 C4         11.5980  -17.6330  -44.7390 C.ar      1 5AG         0.1571
      3 C5         11.4700  -17.0680  -45.9840 C.ar      1 5AG         0.0924
      4 C6         12.5510  -16.9880  -46.8130 C.ar      1 5AG         0.1250
      5 N9         10.4080  -17.5500  -44.1720 N.pl3     1 5AG        -0.1774
      6 CAA        11.4910  -21.8830  -44.1280 C.1       1 5AG        -0.1139
      7 CAB        10.7210  -21.4170  -44.8840 C.1       1 5AG        -0.0715
      8 CAC         9.7610  -20.8610  -45.7870 C.ar      1 5AG         0.0179
      9 CAD        10.1300  -20.1130  -46.8970 C.ar      1 5AG        -0.0451
     10 CBJ         8.4280  -21.0910  -45.5150 C.ar      1 5AG        -0.0532
     11 CBI         7.4500  -20.5790  -46.3360 C.ar      1 5AG        -0.0672
     12 CBH         7.8120  -19.8330  -47.4380 C.ar      1 5AG        -0.0601
     13 CAE         9.1380  -19.6080  -47.7160 C.ar      1 5AG        -0.0401
     14 CAF         9.4570  -18.7900  -48.9350 C.3       1 5AG         0.0011
     15 CAG         8.4570  -17.6420  -49.0600 C.3       1 5AG         0.0404
     16 NAH         8.4310  -16.9170  -47.7840 N.am      1 5AG        -0.2841
     17 CAI         7.4910  -16.0530  -47.4650 C.2       1 5AG         0.1893
     18 OBG         6.5810  -15.7260  -48.2130 O.2       1 5AG        -0.3959
     19 CAJ         7.6410  -15.4480  -46.0820 C.3       1 5AG         0.1055
     20 SAK         7.9760  -16.6610  -44.7660 S.3       1 5AG        -0.0146
     21 C8          9.6030  -16.9810  -45.0390 C.2       1 5AG         0.1959
     22 N7         10.2230  -16.6700  -46.1450 N.2       1 5AG        -0.2976
     23 N6         12.3820  -16.4350  -47.9870 N.pl3     1 5AG        -0.3168
     24 N1         13.7640  -17.4780  -46.3930 N.ar      1 5AG        -0.2729
     25 N3         12.7790  -18.1120  -44.3450 N.ar      1 5AG        -0.2743
     26 CAV        10.0070  -18.0210  -42.8810 C.3       1 5AG         0.2014
     27 OBF         8.7540  -18.5320  -43.2470 O.3       1 5AG        -0.3342
     28 CAW         9.6400  -16.9160  -41.8960 C.3       1 5AG         0.1382
     29 OAX        10.4400  -17.0460  -40.7460 O.3       1 5AG        -0.3836
     30 CAY         8.2140  -17.2470  -41.4860 C.3       1 5AG         0.1173
     31 OAZ         8.0750  -17.2770  -40.0740 O.3       1 5AG        -0.3863
     32 CBA         8.1170  -18.6540  -41.9920 C.3       1 5AG         0.1455
     33 CBB         6.6420  -18.9590  -42.0600 C.3       1 5AG         0.2373
     34 NBC         6.4580  -20.2600  -41.4390 N.2       1 5AG         0.1686
     35 NBD         6.6830  -21.3290  -42.1410 N.1       1 5AG         0.1293
     36 NBE         6.9010  -22.3970  -42.8390 N.1       1 5AG         0.2334
     37 H1         14.7844  -18.4388  -44.7725 H         1 5AG         0.0977
     38 H2         12.1828  -22.3017  -43.4488 H         1 5AG         0.1232
     39 H3         11.1754  -19.9288  -47.1168 H         1 5AG         0.0567
     40 H4          8.1494  -21.6793  -44.6482 H         1 5AG         0.0572
     41 H5          6.4036  -20.7604  -46.1185 H         1 5AG         0.0600
     42 H6          7.0470  -19.4227  -48.0872 H         1 5AG         0.0558
     43 H7          9.3958  -19.4273  -49.8295 H         1 5AG         0.0445
     44 H8         10.4741  -18.3809  -48.8451 H         1 5AG         0.0445
     45 H9          7.4565  -18.0418  -49.2817 H         1 5AG         0.0542
     46 H10         8.7680  -16.9633  -49.8678 H         1 5AG         0.0542
     47 H11         9.1634  -17.0880  -47.1249 H         1 5AG         0.1853
     48 H12         6.7087  -14.9195  -45.8341 H         1 5AG         0.0652
     49 H13         8.4737  -14.7298  -46.1086 H         1 5AG         0.0652
     50 H14        13.1757  -16.3575  -48.6388 H         1 5AG         0.1811
     51 H15        11.4553  -16.0772  -48.2592 H         1 5AG         0.1811
     52 H16        10.7108  -18.7471  -42.4481 H         1 5AG         0.0991
     53 H17         9.7304  -15.9144  -42.3416 H         1 5AG         0.0676
     54 H18        10.2169  -16.3605  -40.1272 H         1 5AG         0.2101
     55 H19         7.4760  -16.5696  -41.9404 H         1 5AG         0.0649
     56 H20         8.6541  -17.9384  -39.7139 H         1 5AG         0.2100
     57 H21         8.6319  -19.3842  -41.3504 H         1 5AG         0.0677
     58 H22         6.3083  -18.9880  -43.1078 H         1 5AG         0.0986
     59 H23         6.0706  -18.1938  -41.5142 H         1 5AG         0.0986
@<TRIPOS>BOND
     1    1   24 ar 
     2   25    1 ar 
     3    2    3 ar 
     4    5    2 1  
     5    2   25 ar 
     6    3    4 ar 
     7    3   22 1  
     8    4   23 1  
     9    4   24 ar 
    10   21    5 1  
    11    5   26 1  
    12    7    6 3  
    13    8    7 1  
    14    9    8 ar 
    15    8   10 ar 
    16   13    9 ar 
    17   11   10 ar 
    18   12   11 ar 
    19   13   12 ar 
    20   14   13 1  
    21   15   14 1  
    22   16   15 1  
    23   17   16 am 
    24   17   18 2  
    25   19   17 1  
    26   20   19 1  
    27   20   21 1  
    28   21   22 2  
    29   26   27 1  
    30   26   28 1  
    31   27   32 1  
    32   28   29 1  
    33   28   30 1  
    34   30   31 1  
    35   30   32 1  
    36   32   33 1  
    37   33   34 1  
    38   34   35 2  
    39   35   36 3  
    40    1   37 1  
    41    6   38 1  
    42    9   39 1  
    43   10   40 1  
    44   11   41 1  
    45   12   42 1  
    46   14   43 1  
    47   14   44 1  
    48   15   45 1  
    49   15   46 1  
    50   16   47 1  
    51   19   48 1  
    52   19   49 1  
    53   23   50 1  
    54   23   51 1  
    55   26   52 1  
    56   28   53 1  
    57   29   54 1  
    58   30   55 1  
    59   31   56 1  
    60   32   57 1  
    61   33   58 1  
    62   33   59 1  
@<TRIPOS>SUBSTRUCTURE
     1 5AG         1

