### 
### Created by X-TOOL on Mon Sep 10 21:13:30 2018
### 

@<TRIPOS>MOLECULE
5dht_ligand
   57    60     1     0     0
SMALL
GAST_HUCK


@<TRIPOS>ATOM
      1 C4         11.3970  -19.5190  -44.7310 C.ar      1 5A9         0.1571
      2 C5         11.3940  -19.1230  -46.0090 C.ar      1 5A9         0.0924
      3 C6         12.5130  -19.1510  -46.7310 C.ar      1 5A9         0.1250
      4 C8          9.4150  -18.9160  -45.2410 C.2       1 5A9         0.1959
      5 N1         13.6770  -19.5710  -46.2200 N.ar      1 5A9        -0.2729
      6 N3         12.5270  -19.9520  -44.1530 N.ar      1 5A9        -0.2743
      7 CBC         9.7150  -21.3930  -48.5230 C.ar      1 5A9        -0.0506
      8 CBD         9.9440  -22.1150  -47.3570 C.ar      1 5A9         0.0063
      9 BR         11.6560  -22.7860  -46.9900 Br        1 5A9        -0.0517
     10 CBE         8.9030  -22.3400  -46.4630 C.ar      1 5A9        -0.0591
     11 CAX         7.6340  -21.8420  -46.7350 C.ar      1 5A9        -0.0657
     12 CAW         7.4050  -21.1210  -47.9010 C.ar      1 5A9        -0.0575
     13 CAV         8.4460  -20.8960  -48.7940 C.ar      1 5A9        -0.0383
     14 CAM         8.2170  -20.1740  -49.9600 C.3       1 5A9         0.0017
     15 CAL         7.3960  -18.9250  -49.6340 C.3       1 5A9         0.0405
     16 NAK         7.8050  -18.3970  -48.3250 N.am      1 5A9        -0.2841
     17 CAJ         7.0120  -17.5910  -47.6050 C.2       1 5A9         0.1893
     18 OAB         5.8940  -17.2260  -47.9650 O.2       1 5A9        -0.3959
     19 CAI         7.5970  -17.1360  -46.2660 C.3       1 5A9         0.1055
     20 SAH         7.7040  -18.5660  -45.1290 S.3       1 5A9        -0.0146
     21 N7         10.1560  -18.7460  -46.3280 N.2       1 5A9        -0.2976
     22 N6         12.4110  -18.7380  -47.9910 N.pl3     1 5A9        -0.3168
     23 C2         13.7140  -19.9910  -44.8900 C.ar      1 5A9         0.0509
     24 N9         10.1610  -19.3890  -44.2530 N.pl3     1 5A9        -0.1774
     25 CAR         9.7080  -19.7120  -42.8820 C.3       1 5A9         0.2014
     26 OAS         8.6440  -20.6720  -42.9420 O.3       1 5A9        -0.3342
     27 CAZ         9.0720  -18.5010  -42.2190 C.3       1 5A9         0.1382
     28 OAY        10.0290  -17.8690  -41.3570 O.3       1 5A9        -0.3836
     29 CBA         7.9450  -19.0870  -41.3830 C.3       1 5A9         0.1173
     30 OBF         8.1990  -18.8360  -39.9930 O.3       1 5A9        -0.3863
     31 CAT         8.0240  -20.5820  -41.6510 C.3       1 5A9         0.1455
     32 CAU         6.6100  -21.1630  -41.7210 C.3       1 5A9         0.2373
     33 NBB         6.6810  -22.6310  -41.6970 N.2       1 5A9         0.1686
     34 NBG         6.8240  -23.1320  -42.6890 N.1       1 5A9         0.1293
     35 NBI         6.9660  -23.6330  -43.6800 N.1       1 5A9         0.2334
     36 H1         10.5262  -21.2179  -49.2204 H         1 5A9         0.0583
     37 H2          9.0810  -22.9036  -45.5543 H         1 5A9         0.0585
     38 H3          6.8227  -22.0160  -46.0375 H         1 5A9         0.0606
     39 H4          6.4149  -20.7343  -48.1138 H         1 5A9         0.0581
     40 H5          7.6639  -20.7997  -50.6759 H         1 5A9         0.0446
     41 H6          9.1793  -19.8752  -50.4012 H         1 5A9         0.0446
     42 H7          6.3276  -19.1854  -49.6066 H         1 5A9         0.0542
     43 H8          7.5676  -18.1615  -50.4070 H         1 5A9         0.0542
     44 H9          8.7021  -18.6465  -47.9603 H         1 5A9         0.1853
     45 H10         6.9478  -16.3651  -45.8253 H         1 5A9         0.0652
     46 H11         8.6025  -16.7201  -46.4276 H         1 5A9         0.0652
     47 H12        13.2409  -18.7357  -48.6010 H         1 5A9         0.1811
     48 H13        11.5021  -18.4204  -48.3569 H         1 5A9         0.1811
     49 H14        14.6376  -20.3379  -44.4408 H         1 5A9         0.0977
     50 H15        10.5532  -20.0886  -42.2873 H         1 5A9         0.0991
     51 H16         8.6930  -17.7852  -42.9633 H         1 5A9         0.0676
     52 H17         9.6300  -17.1125  -40.9435 H         1 5A9         0.2101
     53 H18         6.9681  -18.6750  -41.6761 H         1 5A9         0.0649
     54 H19         8.2488  -17.8988  -39.8455 H         1 5A9         0.2100
     55 H20         8.6152  -21.1002  -40.8816 H         1 5A9         0.0677
     56 H21         6.1245  -20.8347  -42.6519 H         1 5A9         0.0986
     57 H22         6.0256  -20.8102  -40.8584 H         1 5A9         0.0986
@<TRIPOS>BOND
     1    1    2 ar 
     2    1    6 ar 
     3   24    1 1  
     4    2    3 ar 
     5   21    2 1  
     6    3    5 ar 
     7    3   22 1  
     8   20    4 1  
     9    4   21 2  
    10    4   24 1  
    11   23    5 ar 
    12    6   23 ar 
    13    7    8 ar 
    14   13    7 ar 
    15    8    9 1  
    16    8   10 ar 
    17   11   10 ar 
    18   12   11 ar 
    19   13   12 ar 
    20   14   13 1  
    21   15   14 1  
    22   16   15 1  
    23   17   16 am 
    24   17   18 2  
    25   19   17 1  
    26   19   20 1  
    27   24   25 1  
    28   25   26 1  
    29   25   27 1  
    30   26   31 1  
    31   27   28 1  
    32   27   29 1  
    33   29   30 1  
    34   29   31 1  
    35   31   32 1  
    36   32   33 1  
    37   33   34 2  
    38   34   35 3  
    39    7   36 1  
    40   10   37 1  
    41   11   38 1  
    42   12   39 1  
    43   14   40 1  
    44   14   41 1  
    45   15   42 1  
    46   15   43 1  
    47   16   44 1  
    48   19   45 1  
    49   19   46 1  
    50   22   47 1  
    51   22   48 1  
    52   23   49 1  
    53   25   50 1  
    54   27   51 1  
    55   28   52 1  
    56   29   53 1  
    57   30   54 1  
    58   31   55 1  
    59   32   56 1  
    60   32   57 1  
@<TRIPOS>SUBSTRUCTURE
     1 5A9         1

