### 
### Created by X-TOOL on Mon Sep 10 21:13:29 2018
### 

@<TRIPOS>MOLECULE
5dhu_ligand
   61    65     1     0     0
SMALL
GAST_HUCK


@<TRIPOS>ATOM
      1 C2         13.9500  -19.2650  -45.5760 C.ar      1 5A8         0.0509
      2 C4         11.7810  -18.7890  -45.2760 C.ar      1 5A8         0.1571
      3 C5         11.7320  -18.2700  -46.5200 C.ar      1 5A8         0.0924
      4 C6         12.8670  -18.2530  -47.2790 C.ar      1 5A8         0.1250
      5 N9         10.6120  -18.6830  -44.7510 N.pl3     1 5A8        -0.1774
      6 CBF        10.0260  -20.8070  -48.0730 C.ar      1 5A8        -0.0215
      7 CBK        11.3430  -21.0470  -48.3250 C.ar      1 5A8        -0.0747
      8 CBJ        12.0850  -21.7640  -47.4220 C.ar      1 5A8        -0.0792
      9 CBI        11.5080  -22.2340  -46.2740 C.ar      1 5A8        -0.0768
     10 CBH        10.1880  -21.9960  -46.0360 C.ar      1 5A8        -0.0443
     11 CBG         9.4650  -21.2860  -46.9380 C.ar      1 5A8         0.0603
     12 NBD         8.2260  -20.9260  -46.9290 N.pl3     1 5A8        -0.2891
     13 CBE         7.9710  -20.2500  -48.0150 C.2       1 5A8         0.0165
     14 CBC         9.0400  -20.1590  -48.7450 C.2       1 5A8        -0.0444
     15 CBA         9.0960  -19.4180  -50.0570 C.3       1 5A8        -0.0161
     16 CAZ         8.2440  -18.1550  -50.0190 C.3       1 5A8         0.0351
     17 NAY         8.4360  -17.5150  -48.7350 N.am      1 5A8        -0.2849
     18 CAX         7.4660  -17.1160  -47.9870 C.2       1 5A8         0.1892
     19 OBB         6.3120  -17.1880  -48.3230 O.2       1 5A8        -0.3959
     20 CAW         7.8900  -16.5260  -46.6490 C.3       1 5A8         0.1055
     21 SAA         8.2410  -17.7800  -45.3730 S.3       1 5A8        -0.0146
     22 C8          9.8530  -18.1080  -45.6230 C.2       1 5A8         0.1959
     23 N7         10.5180  -17.8530  -46.7040 N.2       1 5A8        -0.2976
     24 N6         12.9030  -17.7680  -48.4740 N.pl3     1 5A8        -0.3168
     25 N1         13.9460  -18.7600  -46.7740 N.ar      1 5A8        -0.2729
     26 N3         12.8970  -19.2850  -44.8280 N.ar      1 5A8        -0.2743
     27 CAL        10.2300  -19.1450  -43.4450 C.3       1 5A8         0.2014
     28 OAM         9.0940  -19.8990  -43.6980 O.3       1 5A8        -0.3342
     29 CAP         9.7630  -18.0630  -42.4900 C.3       1 5A8         0.1382
     30 OAQ        10.5900  -18.1170  -41.3870 O.3       1 5A8        -0.3836
     31 CAO         8.4000  -18.5320  -42.0490 C.3       1 5A8         0.1173
     32 OAR         8.2630  -18.4180  -40.6500 O.3       1 5A8        -0.3863
     33 CAN         8.4300  -19.9840  -42.4810 C.3       1 5A8         0.1455
     34 CAS         7.0080  -20.4530  -42.7440 C.3       1 5A8         0.2373
     35 NAT         6.9540  -21.9150  -42.7220 N.2       1 5A8         0.1686
     36 NAU         6.9070  -22.5600  -43.8300 N.1       1 5A8         0.1293
     37 NAV         6.8600  -23.2070  -44.9360 N.1       1 5A8         0.2334
     38 H1         14.8718  -19.6852  -45.1902 H         1 5A8         0.0977
     39 H2         11.8015  -20.6736  -49.2335 H         1 5A8         0.0540
     40 H3         13.1330  -21.9592  -47.6185 H         1 5A8         0.0510
     41 H4         12.0984  -22.7931  -45.5572 H         1 5A8         0.0530
     42 H5          9.7192  -22.3708  -45.1333 H         1 5A8         0.0541
     43 H6          7.5473  -21.1383  -46.1839 H         1 5A8         0.2216
     44 H7          7.0022  -19.8241  -48.2717 H         1 5A8         0.0795
     45 H8          8.7245  -20.0764  -50.8561 H         1 5A8         0.0369
     46 H9         10.1393  -19.1397  -50.2666 H         1 5A8         0.0369
     47 H10         7.1837  -18.4176  -50.1487 H         1 5A8         0.0534
     48 H11         8.5540  -17.4730  -50.8244 H         1 5A8         0.0534
     49 H12         9.3717  -17.3751  -48.4112 H         1 5A8         0.1852
     50 H13         7.0809  -15.8763  -46.2840 H         1 5A8         0.0652
     51 H14         8.7989  -15.9267  -46.8061 H         1 5A8         0.0652
     52 H15        13.7840  -17.7778  -49.0075 H         1 5A8         0.1811
     53 H16        12.0507  -17.3710  -48.8946 H         1 5A8         0.1811
     54 H17        11.0405  -19.7332  -42.9898 H         1 5A8         0.0991
     55 H18         9.7442  -17.0637  -42.9493 H         1 5A8         0.0676
     56 H19        10.3275  -17.4507  -40.7629 H         1 5A8         0.2101
     57 H20         7.5943  -17.9754  -42.5499 H         1 5A8         0.0649
     58 H21         8.3733  -17.5095  -40.3951 H         1 5A8         0.2100
     59 H22         8.9416  -20.6348  -41.7566 H         1 5A8         0.0677
     60 H23         6.6808  -20.0907  -43.7297 H         1 5A8         0.0986
     61 H24         6.3418  -20.0517  -41.9662 H         1 5A8         0.0986
@<TRIPOS>BOND
     1    1   25 ar 
     2   26    1 ar 
     3    2    3 ar 
     4    5    2 1  
     5    2   26 ar 
     6    3    4 ar 
     7    3   23 1  
     8    4   24 1  
     9    4   25 ar 
    10   22    5 1  
    11    5   27 1  
    12    6    7 ar 
    13    6   11 ar 
    14   14    6 1  
    15    7    8 ar 
    16    8    9 ar 
    17   10    9 ar 
    18   11   10 ar 
    19   12   11 1  
    20   13   12 1  
    21   14   13 2  
    22   15   14 1  
    23   16   15 1  
    24   17   16 1  
    25   18   17 am 
    26   18   19 2  
    27   20   18 1  
    28   21   20 1  
    29   21   22 1  
    30   22   23 2  
    31   27   28 1  
    32   27   29 1  
    33   28   33 1  
    34   29   30 1  
    35   29   31 1  
    36   31   32 1  
    37   31   33 1  
    38   33   34 1  
    39   34   35 1  
    40   35   36 2  
    41   36   37 3  
    42    1   38 1  
    43    7   39 1  
    44    8   40 1  
    45    9   41 1  
    46   10   42 1  
    47   12   43 1  
    48   13   44 1  
    49   15   45 1  
    50   15   46 1  
    51   16   47 1  
    52   16   48 1  
    53   17   49 1  
    54   20   50 1  
    55   20   51 1  
    56   24   52 1  
    57   24   53 1  
    58   27   54 1  
    59   29   55 1  
    60   30   56 1  
    61   31   57 1  
    62   32   58 1  
    63   33   59 1  
    64   34   60 1  
    65   34   61 1  
@<TRIPOS>SUBSTRUCTURE
     1 5A8         1

