### 
### Created by X-TOOL on Mon Sep 10 21:13:28 2018
### 

@<TRIPOS>MOLECULE
5di1_ligand
   40    42     1     0     0
SMALL
GAST_HUCK


@<TRIPOS>ATOM
      1 C7         73.9640   50.5320   21.6570 C.ar      1 5DF        -0.0290
      2 C6         74.3020   51.4630   20.5380 C.ar      1 5DF        -0.0101
      3 C9         73.6160   48.2840   22.4620 C.ar      1 5DF        -0.0325
      4 C8         73.9950   49.1420   21.4480 C.ar      1 5DF        -0.0630
      5 C18        78.7750   52.4990   16.5200 C.ar      1 5DF        -0.0376
      6 C16        77.9210   50.2940   16.1500 C.ar      1 5DF        -0.0376
      7 C19        77.7250   52.7710   17.3750 C.ar      1 5DF        -0.0539
      8 C1         75.3630   51.1670   19.6480 C.ar      1 5DF        -0.0404
      9 C2         75.6400   52.0660   18.5990 C.ar      1 5DF         0.0283
     10 C3         74.8050   53.2140   18.4510 C.ar      1 5DF         0.1188
     11 N4         73.7980   53.4280   19.3020 N.ar      1 5DF        -0.2840
     12 C5         73.5310   52.6150   20.3160 C.ar      1 5DF         0.0020
     13 C10        73.2280   48.7940   23.7090 C.ar      1 5DF         0.0884
     14 C11        73.1770   50.1750   23.9200 C.ar      1 5DF        -0.0325
     15 C12        73.5050   51.0410   22.8900 C.ar      1 5DF        -0.0630
     16 N13        74.9790   54.0960   17.3890 N.pl3     1 5DF        -0.3201
     17 C14        76.7720   51.7890   17.6490 C.ar      1 5DF        -0.0165
     18 C15        76.9000   50.5310   17.0550 C.ar      1 5DF        -0.0539
     19 C17        78.8540   51.2760   15.8710 C.ar      1 5DF         0.0867
     20 S20        80.1610   50.9770   14.6870 S.o2      1 5DF        -0.0064
     21 O21        81.3370   50.9590   15.4710 O.2       1 5DF        -0.1698
     22 O22        79.7540   49.8170   13.9740 O.2       1 5DF        -0.1698
     23 C23        80.1580   52.4430   13.5890 C.3       1 5DF         0.0594
     24 O24        72.8950   47.9460   24.7140 O.3       1 5DF        -0.3326
     25 H1         73.6186   47.2132   22.2931 H         1 5DF         0.0545
     26 H2         74.3160   48.7441   20.4921 H         1 5DF         0.0591
     27 H3         79.5425   53.2465   16.3551 H         1 5DF         0.0633
     28 H4         77.9895   49.3313   15.6564 H         1 5DF         0.0633
     29 H5         77.6409   53.7493   17.8342 H         1 5DF         0.0613
     30 H6         75.9515   50.2650   19.7715 H         1 5DF         0.0693
     31 H7         72.7066   52.8433   20.9818 H         1 5DF         0.0776
     32 H8         72.8817   50.5668   24.8866 H         1 5DF         0.0545
     33 H9         73.4089   52.1114   23.0316 H         1 5DF         0.0591
     34 H10        74.3671   54.9195   17.2979 H         1 5DF         0.1784
     35 H11        75.7197   53.9254   16.6939 H         1 5DF         0.1784
     36 H12        76.2004   49.7408   17.3024 H         1 5DF         0.0613
     37 H13        80.9431   52.3316   12.8266 H         1 5DF         0.0468
     38 H14        80.3509   53.3475   14.1845 H         1 5DF         0.0468
     39 H15        79.1783   52.5302   13.0965 H         1 5DF         0.0468
     40 H16        72.9811   47.0494   24.4119 H         1 5DF         0.2486
@<TRIPOS>BOND
     1    2    1 1  
     2    1    4 ar 
     3    1   15 ar 
     4    8    2 ar 
     5    2   12 ar 
     6    4    3 ar 
     7    3   13 ar 
     8    7    5 ar 
     9    5   19 ar 
    10    6   18 ar 
    11   19    6 ar 
    12   17    7 ar 
    13    9    8 ar 
    14    9   10 ar 
    15    9   17 1  
    16   10   11 ar 
    17   10   16 1  
    18   11   12 ar 
    19   13   14 ar 
    20   13   24 1  
    21   14   15 ar 
    22   17   18 ar 
    23   19   20 1  
    24   20   21 2  
    25   20   22 2  
    26   20   23 1  
    27    3   25 1  
    28    4   26 1  
    29    5   27 1  
    30    6   28 1  
    31    7   29 1  
    32    8   30 1  
    33   12   31 1  
    34   14   32 1  
    35   15   33 1  
    36   16   34 1  
    37   16   35 1  
    38   18   36 1  
    39   23   37 1  
    40   23   38 1  
    41   23   39 1  
    42   24   40 1  
@<TRIPOS>SUBSTRUCTURE
     1 5DF         1

