### 
### Created by X-TOOL on Mon Sep 10 21:13:24 2018
### 

@<TRIPOS>MOLECULE
5dia_ligand
   53    57     1     0     0
SMALL
GAST_HUCK


@<TRIPOS>ATOM
      1 C9         21.5690  -34.2560    4.2810 C.3       1 5E6        -0.0298
      2 C2         23.6920  -38.8930    1.8920 C.ar      1 5E6        -0.0421
      3 C10        21.1960  -34.0680    5.7290 C.3       1 5E6        -0.0459
      4 C6         23.5950  -38.2780    4.1550 C.ar      1 5E6        -0.0182
      5 C1         23.7510  -39.2420    3.2110 C.ar      1 5E6        -0.0554
      6 C3         23.4510  -37.6010    1.5470 C.ar      1 5E6         0.0471
      7 N4         23.3210  -36.7160    2.4820 N.ar      1 5E6        -0.2835
      8 C5         23.3880  -36.9910    3.7360 C.ar      1 5E6         0.1075
      9 N7         23.2630  -35.9770    4.6520 N.pl3     1 5E6        -0.3054
     10 C8         23.0270  -34.6290    4.1900 C.3       1 5E6         0.0431
     11 C11        22.0030  -32.9010    6.2520 C.3       1 5E6        -0.0096
     12 C12        23.5040  -33.1650    6.2200 C.3       1 5E6        -0.0222
     13 C13        23.9260  -33.5760    4.8280 C.3       1 5E6         0.0130
     14 N14        24.2630  -31.9920    6.6450 N.4       1 5E6         0.2208
     15 C15        23.3920  -37.2070    0.1250 C.2       1 5E6         0.0906
     16 C16        23.0080  -35.9120   -0.3890 C.ar      1 5E6         0.0401
     17 C17        22.6050  -34.7110    0.1600 C.ar      1 5E6        -0.0282
     18 C18        22.3230  -33.6540   -0.6650 C.ar      1 5E6         0.0476
     19 N19        22.4540  -33.7850   -1.9550 N.ar      1 5E6        -0.2998
     20 C20        22.8120  -34.8940   -2.4990 C.ar      1 5E6         0.0392
     21 C21        23.1170  -36.0000   -1.7550 C.ar      1 5E6         0.1202
     22 N22        23.5160  -37.2430   -2.0280 N.pl3     1 5E6        -0.1978
     23 N24        23.6770  -37.9400   -0.8820 N.2       1 5E6        -0.1795
     24 C25        21.8890  -32.3510   -0.1360 C.ar      1 5E6         0.0189
     25 C26        22.0110  -32.0160    1.2010 C.ar      1 5E6        -0.0347
     26 C27        21.5900  -30.7860    1.6090 C.ar      1 5E6        -0.0339
     27 C28        21.0760  -29.9270    0.6810 C.ar      1 5E6         0.0107
     28 N29        20.9730  -30.2680   -0.5670 N.ar      1 5E6        -0.2964
     29 C30        21.3590  -31.4180   -0.9970 C.ar      1 5E6         0.0190
     30 H1         21.3937  -33.3196    3.7311 H         1 5E6         0.0287
     31 H2         20.9560  -35.0581    3.8441 H         1 5E6         0.0287
     32 H3         23.8368  -39.6436    1.1234 H         1 5E6         0.0594
     33 H4         21.4345  -34.9771    6.3005 H         1 5E6         0.0268
     34 H5         20.1210  -33.8516    5.8160 H         1 5E6         0.0268
     35 H6         23.6333  -38.5208    5.2108 H         1 5E6         0.0597
     36 H7         23.9198  -40.2730    3.5002 H         1 5E6         0.0692
     37 H8         23.3368  -36.1754    5.6600 H         1 5E6         0.1805
     38 H9         23.2800  -34.6297    3.1195 H         1 5E6         0.0555
     39 H10        21.7024  -32.7023    7.2913 H         1 5E6         0.0320
     40 H11        21.7874  -32.0178    5.6327 H         1 5E6         0.0320
     41 H12        23.7253  -33.9902    6.9128 H         1 5E6         0.0851
     42 H13        23.9194  -32.6820    4.1871 H         1 5E6         0.0342
     43 H14        24.9474  -33.9808    4.8822 H         1 5E6         0.0342
     44 H15        23.9760  -31.7244    7.5735 H         1 5E6         0.1997
     45 H16        24.0900  -31.2307    6.0074 H         1 5E6         0.1997
     46 H17        25.2469  -32.2112    6.6476 H         1 5E6         0.1997
     47 H18        22.5125  -34.6052    1.2348 H         1 5E6         0.0703
     48 H19        22.8738  -34.9538   -3.5796 H         1 5E6         0.0797
     49 H20        23.6777  -37.6168   -2.9741 H         1 5E6         0.2535
     50 H21        22.4334  -32.7186    1.9102 H         1 5E6         0.0740
     51 H22        21.6619  -30.4951    2.6508 H         1 5E6         0.0708
     52 H23        20.7478  -28.9418    0.9922 H         1 5E6         0.0819
     53 H24        21.2653  -31.6544   -2.0508 H         1 5E6         0.0830
@<TRIPOS>BOND
     1    1    3 1  
     2   10    1 1  
     3    5    2 ar 
     4    6    2 ar 
     5    3   11 1  
     6    4    5 ar 
     7    8    4 ar 
     8    7    6 ar 
     9    6   15 1  
    10    8    7 ar 
    11    9    8 1  
    12    9   10 1  
    13   10   13 1  
    14   11   12 1  
    15   12   13 1  
    16   12   14 1  
    17   15   16 1  
    18   15   23 2  
    19   16   17 ar 
    20   16   21 ar 
    21   17   18 ar 
    22   18   19 ar 
    23   18   24 1  
    24   19   20 ar 
    25   20   21 ar 
    26   21   22 1  
    27   22   23 1  
    28   24   25 ar 
    29   24   29 ar 
    30   25   26 ar 
    31   26   27 ar 
    32   27   28 ar 
    33   28   29 ar 
    34    1   30 1  
    35    1   31 1  
    36    2   32 1  
    37    3   33 1  
    38    3   34 1  
    39    4   35 1  
    40    5   36 1  
    41    9   37 1  
    42   10   38 1  
    43   11   39 1  
    44   11   40 1  
    45   12   41 1  
    46   13   42 1  
    47   13   43 1  
    48   14   44 1  
    49   14   45 1  
    50   14   46 1  
    51   17   47 1  
    52   20   48 1  
    53   22   49 1  
    54   25   50 1  
    55   26   51 1  
    56   27   52 1  
    57   29   53 1  
@<TRIPOS>SUBSTRUCTURE
     1 5E6         1

