### 
### Created by X-TOOL on Mon Sep 10 21:13:24 2018
### 

@<TRIPOS>MOLECULE
5diq_ligand
   34    36     1     0     0
SMALL
GAST_HUCK


@<TRIPOS>ATOM
      1 C1          3.3950   76.7520   28.5200 C.ar      1 5B9        -0.0096
      2 C2          2.7650   75.4770   28.4890 C.ar      1 5B9        -0.0020
      3 C3          2.6440   77.9090   28.1690 C.ar      1 5B9        -0.0242
      4 C11         0.6840   76.5280   27.7290 C.ar      1 5B9        -0.0706
      5 C12         4.5810   79.3280   28.5740 C.ar      1 5B9        -0.0629
      6 C13         5.6660   72.9830   28.2520 C.ar      1 5B9         0.1094
      7 C14         6.8800   73.2950   27.5790 C.ar      1 5B9         0.0390
      8 C15         5.6630   71.9470   29.2200 C.ar      1 5B9        -0.0288
      9 C16         8.0630   72.5940   27.8910 C.ar      1 5B9        -0.0561
     10 C17         6.9450   74.3690   26.5010 C.2       1 5B9         0.0582
     11 C18         6.8520   71.2630   29.5340 C.ar      1 5B9        -0.0679
     12 C19         8.0470   71.5800   28.8690 C.ar      1 5B9        -0.0692
     13 C4          4.7580   76.9230   28.8870 C.ar      1 5B9        -0.0547
     14 C5          3.5010   74.1670   28.8820 C.3       1 5B9         0.1077
     15 C6          1.4260   75.3850   28.0640 C.ar      1 5B9        -0.0582
     16 C7          1.3040   77.7850   27.7420 C.ar      1 5B9        -0.0631
     17 C8          3.2410   79.1920   28.1790 C.ar      1 5B9        -0.0569
     18 C9          5.3470   78.2000   28.9090 C.ar      1 5B9        -0.0625
     19 O10         4.4930   73.7050   27.9310 O.3       1 5B9        -0.3010
     20 O20         8.0720   75.0670   26.3210 O.co2     1 5B9        -0.5643
     21 O21         5.9750   74.5890   25.7920 O.co2     1 5B9        -0.5643
     22 H1         -0.3628   76.4393   27.4617 H         1 5B9         0.0595
     23 H2          5.0291   80.3140   28.6209 H         1 5B9         0.0616
     24 H3          4.7395   71.6803   29.7211 H         1 5B9         0.0550
     25 H4          8.9865   72.8357   27.3774 H         1 5B9         0.0622
     26 H5          6.8452   70.4884   30.2923 H         1 5B9         0.0610
     27 H6          8.9584   71.0441   29.1082 H         1 5B9         0.0531
     28 H7          5.3519   76.0563   29.1538 H         1 5B9         0.0628
     29 H8          2.7466   73.3749   28.9980 H         1 5B9         0.0794
     30 H9          4.0059   74.3364   29.8445 H         1 5B9         0.0794
     31 H10         0.9579   74.4098   27.9940 H         1 5B9         0.0530
     32 H11         0.7539   78.6632   27.4238 H         1 5B9         0.0542
     33 H12         2.6677   80.0633   27.8838 H         1 5B9         0.0609
     34 H13         6.3895   78.3130   29.1838 H         1 5B9         0.0601
@<TRIPOS>BOND
     1    2    1 ar 
     2    1    3 ar 
     3    1   13 ar 
     4   14    2 1  
     5    2   15 ar 
     6    3   16 ar 
     7    3   17 ar 
     8   15    4 ar 
     9    4   16 ar 
    10   17    5 ar 
    11   18    5 ar 
    12    6    7 ar 
    13    6    8 ar 
    14   19    6 1  
    15    7    9 ar 
    16    7   10 1  
    17    8   11 ar 
    18    9   12 ar 
    19   10   20 ar 
    20   10   21 ar 
    21   11   12 ar 
    22   13   18 ar 
    23   14   19 1  
    24    4   22 1  
    25    5   23 1  
    26    8   24 1  
    27    9   25 1  
    28   11   26 1  
    29   12   27 1  
    30   13   28 1  
    31   14   29 1  
    32   14   30 1  
    33   15   31 1  
    34   16   32 1  
    35   17   33 1  
    36   18   34 1  
@<TRIPOS>SUBSTRUCTURE
     1 5B9         1

