### 
### Created by X-TOOL on Mon Sep 10 21:13:25 2018
### 

@<TRIPOS>MOLECULE
5dit_ligand
  106   110     1     0     0
SMALL
GAST_HUCK


@<TRIPOS>ATOM
      1 CAW       -11.2740   -2.6780  -25.4880 C.3       1 5B8        -0.0478
      2 CAO       -11.7840   -3.9700  -24.8440 C.3       1 5B8        -0.0527
      3 CAN       -11.3230   -3.9560  -23.4000 C.3       1 5B8        -0.0530
      4 CAP        -9.8090   -4.0860  -23.3480 C.3       1 5B8        -0.0527
      5 CAX        -9.1260   -3.0090  -24.1980 C.3       1 5B8        -0.0478
      6 CBS        -9.7290   -2.9290  -25.6080 C.3       1 5B8        -0.0189
      7 CBU        -8.9660   -1.8670  -26.4670 C.3       1 5B8         0.0773
      8 CBQ        -9.5770   -1.7680  -27.8870 C.3       1 5B8         0.0721
      9 CAC        -8.6540   -0.9960  -28.8250 C.3       1 5B8        -0.0365
     10 OAF        -9.7550   -3.0760  -28.4410 O.3       1 5B8        -0.3894
     11 CBK        -8.9380   -0.4560  -25.8000 C.2       1 5B8         0.1866
     12 OAE       -10.0110    0.0810  -25.4920 O.2       1 5B8        -0.3963
     13 N          -7.7280    0.1510  -25.5690 N.am      1 5B8        -0.2501
     14 CBA        -6.3780   -0.4140  -25.9620 C.3       1 5B8         0.0368
     15 CAR        -5.2800   -0.1560  -24.9990 C.3       1 5B8        -0.0321
     16 CAQ        -5.2990    1.3300  -24.7100 C.3       1 5B8        -0.0469
     17 CB         -6.5870    1.7330  -24.0180 C.3       1 5B8        -0.0108
     18 CA         -7.7730    1.5190  -24.9530 C.3       1 5B8         0.1450
     19 C          -7.8250    2.5220  -25.9620 C.2       1 5B8         0.2620
     20 O          -8.2450    3.6580  -25.7160 O.2       1 5B8        -0.3676
     21 OBI        -7.3810    2.1280  -27.1980 O.3       1 5B8        -0.2586
     22 CBR        -7.4490    3.0970  -28.2680 C.3       1 5B8         0.1207
     23 CAZ        -8.8520    3.0260  -28.8550 C.3       1 5B8        -0.0041
     24 CAV        -9.1550    4.2010  -29.7490 C.3       1 5B8        -0.0222
     25 CBL        -9.4860    5.4070  -29.0650 C.ar      1 5B8        -0.0624
     26 CAM       -10.7180    5.6330  -28.4180 C.ar      1 5B8        -0.0398
     27 CAJ        -8.5500    6.4360  -29.1060 C.ar      1 5B8        -0.0801
     28 CAK        -8.8010    7.6480  -28.4910 C.ar      1 5B8        -0.0479
     29 CBO       -10.0040    7.8730  -27.8310 C.ar      1 5B8         0.1122
     30 OBE       -10.2090    9.1050  -27.2550 O.3       1 5B8        -0.3294
     31 CAA       -11.0540    9.3260  -26.1130 C.3       1 5B8         0.0554
     32 CBP       -10.9810    6.8680  -27.8010 C.ar      1 5B8         0.1132
     33 OBF       -12.1310    7.1690  -27.1300 O.3       1 5B8        -0.3266
     34 CAB       -13.3580    6.5980  -27.6150 C.3       1 5B8         0.0568
     35 CBN        -6.3900    2.7310  -29.1200 C.ar      1 5B8        -0.0186
     36 CAL        -5.3340    3.6120  -29.2690 C.ar      1 5B8        -0.0295
     37 CAI        -6.3050    1.4910  -29.7490 C.ar      1 5B8        -0.0686
     38 CAG        -5.2090    1.1690  -30.5530 C.ar      1 5B8        -0.0771
     39 CAH        -4.1650    2.0820  -30.7140 C.ar      1 5B8        -0.0401
     40 CBM        -4.2380    3.3070  -30.0540 C.ar      1 5B8         0.0848
     41 OBH        -3.2990    4.2830  -30.1520 O.3       1 5B8        -0.3145
     42 CAU        -1.9570    3.9060  -30.3120 C.3       1 5B8         0.1099
     43 CBD        -1.1620    5.1180  -29.8450 C.3       1 5B8        -0.0033
     44 NBV        -0.7600    6.0250  -30.9590 N.4       1 5B8         0.2404
     45 CBB        -1.8780    6.4790  -31.8100 C.3       1 5B8        -0.0077
     46 CAS        -1.3760    7.3180  -32.9850 C.3       1 5B8         0.0878
     47 OBG        -0.3240    6.5930  -33.6810 O.3       1 5B8        -0.3693
     48 CAT         0.8080    6.4660  -32.8530 C.3       1 5B8         0.0878
     49 CBC         0.3560    5.4840  -31.7630 C.3       1 5B8        -0.0077
     50 H1        -11.4846   -1.8078  -24.8489 H         1 5B8         0.0269
     51 H2        -11.7275   -2.5241  -26.4782 H         1 5B8         0.0269
     52 H3        -11.3655   -4.8432  -25.3659 H         1 5B8         0.0265
     53 H4        -12.8824   -4.0071  -24.8897 H         1 5B8         0.0265
     54 H5        -11.7816   -4.7980  -22.8608 H         1 5B8         0.0265
     55 H6        -11.6258   -3.0097  -22.9279 H         1 5B8         0.0265
     56 H7         -9.5216   -5.0775  -23.7280 H         1 5B8         0.0265
     57 H8         -9.4765   -3.9827  -22.3046 H         1 5B8         0.0265
     58 H9         -8.0553   -3.2470  -24.2815 H         1 5B8         0.0269
     59 H10        -9.2475   -2.0343  -23.7029 H         1 5B8         0.0269
     60 H11        -9.5902   -3.9039  -26.0982 H         1 5B8         0.0329
     61 H12        -7.9253   -2.2089  -26.5670 H         1 5B8         0.0566
     62 H13       -10.5489   -1.2567  -27.8239 H         1 5B8         0.0619
     63 H14        -9.1102   -0.9403  -29.8244 H         1 5B8         0.0256
     64 H15        -7.6849   -1.5121  -28.8926 H         1 5B8         0.0256
     65 H16        -8.5015    0.0209  -28.4344 H         1 5B8         0.0256
     66 H17       -10.3274   -3.5824  -27.8768 H         1 5B8         0.2100
     67 H18        -6.0931    0.0268  -26.9287 H         1 5B8         0.0524
     68 H19        -6.4843   -1.5032  -26.0728 H         1 5B8         0.0524
     69 H20        -4.3139   -0.4449  -25.4385 H         1 5B8         0.0285
     70 H21        -5.4462   -0.7250  -24.0724 H         1 5B8         0.0285
     71 H22        -5.2120    1.8818  -25.6576 H         1 5B8         0.0268
     72 H23        -4.4478    1.5809  -24.0600 H         1 5B8         0.0268
     73 H24        -6.5322    2.7951  -23.7370 H         1 5B8         0.0314
     74 H25        -6.7213    1.1209  -23.1140 H         1 5B8         0.0314
     75 H26        -8.6929    1.5928  -24.3544 H         1 5B8         0.0818
     76 H27        -7.2770    4.1166  -27.8928 H         1 5B8         0.0814
     77 H28        -9.5805    3.0107  -28.0310 H         1 5B8         0.0336
     78 H29        -8.9438    2.1007  -29.4428 H         1 5B8         0.0336
     79 H30       -10.0042    3.9298  -30.3934 H         1 5B8         0.0406
     80 H31        -8.2690    4.3938  -30.3717 H         1 5B8         0.0406
     81 H32       -11.4669    4.8496  -28.3963 H         1 5B8         0.0450
     82 H33        -7.6116    6.2849  -29.6272 H         1 5B8         0.0436
     83 H34        -8.0523    8.4312  -28.5235 H         1 5B8         0.0493
     84 H35       -11.0459   10.3946  -25.8523 H         1 5B8         0.0570
     85 H36       -10.6809    8.7380  -25.2615 H         1 5B8         0.0570
     86 H37       -12.0817    9.0146  -26.3515 H         1 5B8         0.0570
     87 H38       -14.1925    6.9275  -26.9786 H         1 5B8         0.0573
     88 H39       -13.2876    5.5006  -27.5881 H         1 5B8         0.0573
     89 H40       -13.5329    6.9290  -28.6493 H         1 5B8         0.0573
     90 H41        -5.3669    4.5667  -28.7566 H         1 5B8         0.0479
     91 H42        -7.0997    0.7665  -29.6128 H         1 5B8         0.0465
     92 H43        -5.1689    0.2081  -31.0531 H         1 5B8         0.0572
     93 H44        -3.3136    1.8423  -31.3407 H         1 5B8         0.0486
     94 H45        -1.7394    3.6812  -31.3665 H         1 5B8         0.0667
     95 H46        -1.7239    3.0265  -29.6939 H         1 5B8         0.0667
     96 H47        -0.2525    4.7645  -29.3372 H         1 5B8         0.0841
     97 H48        -1.7797    5.6886  -29.1359 H         1 5B8         0.0841
     98 H49        -0.4031    6.8557  -30.5133 H         1 5B8         0.2036
     99 H50        -2.5660    7.0867  -31.2039 H         1 5B8         0.0837
    100 H51        -2.4118    5.5997  -32.1997 H         1 5B8         0.0837
    101 H52        -0.9781    8.2728  -32.6109 H         1 5B8         0.0613
    102 H53        -2.2074    7.5136  -33.6781 H         1 5B8         0.0613
    103 H54         1.0846    7.4367  -32.4157 H         1 5B8         0.0613
    104 H55         1.6618    6.0608  -33.4159 H         1 5B8         0.0613
    105 H56         0.0288    4.5489  -32.2410 H         1 5B8         0.0837
    106 H57         1.2063    5.2772  -31.0965 H         1 5B8         0.0837
@<TRIPOS>BOND
     1    1    2 1  
     2    1    6 1  
     3    2    3 1  
     4    3    4 1  
     5    4    5 1  
     6    5    6 1  
     7    6    7 1  
     8    7    8 1  
     9    7   11 1  
    10    8    9 1  
    11    8   10 1  
    12   11   12 2  
    13   11   13 am 
    14   13   14 1  
    15   13   18 1  
    16   14   15 1  
    17   15   16 1  
    18   16   17 1  
    19   17   18 1  
    20   18   19 1  
    21   19   20 2  
    22   19   21 1  
    23   21   22 1  
    24   22   23 1  
    25   22   35 1  
    26   23   24 1  
    27   24   25 1  
    28   25   26 ar 
    29   25   27 ar 
    30   26   32 ar 
    31   27   28 ar 
    32   28   29 ar 
    33   29   30 1  
    34   29   32 ar 
    35   30   31 1  
    36   32   33 1  
    37   33   34 1  
    38   35   36 ar 
    39   35   37 ar 
    40   36   40 ar 
    41   37   38 ar 
    42   38   39 ar 
    43   39   40 ar 
    44   40   41 1  
    45   41   42 1  
    46   42   43 1  
    47   43   44 1  
    48   44   45 1  
    49   44   49 1  
    50   45   46 1  
    51   46   47 1  
    52   47   48 1  
    53   48   49 1  
    54    1   50 1  
    55    1   51 1  
    56    2   52 1  
    57    2   53 1  
    58    3   54 1  
    59    3   55 1  
    60    4   56 1  
    61    4   57 1  
    62    5   58 1  
    63    5   59 1  
    64    6   60 1  
    65    7   61 1  
    66    8   62 1  
    67    9   63 1  
    68    9   64 1  
    69    9   65 1  
    70   10   66 1  
    71   14   67 1  
    72   14   68 1  
    73   15   69 1  
    74   15   70 1  
    75   16   71 1  
    76   16   72 1  
    77   17   73 1  
    78   17   74 1  
    79   18   75 1  
    80   22   76 1  
    81   23   77 1  
    82   23   78 1  
    83   24   79 1  
    84   24   80 1  
    85   26   81 1  
    86   27   82 1  
    87   28   83 1  
    88   31   84 1  
    89   31   85 1  
    90   31   86 1  
    91   34   87 1  
    92   34   88 1  
    93   34   89 1  
    94   36   90 1  
    95   37   91 1  
    96   38   92 1  
    97   39   93 1  
    98   42   94 1  
    99   42   95 1  
   100   43   96 1  
   101   43   97 1  
   102   44   98 1  
   103   45   99 1  
   104   45  100 1  
   105   46  101 1  
   106   46  102 1  
   107   48  103 1  
   108   48  104 1  
   109   49  105 1  
   110   49  106 1  
@<TRIPOS>SUBSTRUCTURE
     1 5B8         1

