### 
### Created by X-TOOL on Mon Sep 10 21:13:26 2018
### 

@<TRIPOS>MOLECULE
5diu_ligand
  107   111     1     0     0
SMALL
GAST_HUCK


@<TRIPOS>ATOM
      1 CAC        17.1260   -4.5210   -8.2970 C.3       1 5BG         0.0563
      2 OBH        16.4500   -5.2190   -7.2540 O.3       1 5BG        -0.3297
      3 CBU        15.3230   -5.8740   -7.5430 C.ar      1 5BG         0.1052
      4 CAQ        14.7320   -5.8320   -8.8300 C.ar      1 5BG        -0.0481
      5 CBW        14.7520   -6.6390   -6.5870 C.ar      1 5BG         0.1397
      6 OBJ        15.2870   -6.6420   -5.2560 O.3       1 5BG        -0.3340
      7 CAE        16.3600   -7.5410   -5.1440 C.3       1 5BG         0.0527
      8 CBV        13.6070   -7.3260   -6.7990 C.ar      1 5BG         0.1052
      9 OBI        13.0570   -8.0660   -5.7390 O.3       1 5BG        -0.3297
     10 CAD        11.7240   -8.6300   -5.8350 C.3       1 5BG         0.0563
     11 CAR        12.9790   -7.3300   -8.0460 C.ar      1 5BG        -0.0481
     12 CBR        13.5480   -6.5500   -9.0430 C.ar      1 5BG        -0.0486
     13 CCA        12.8600   -6.5210  -10.4190 C.3       1 5BG         0.0753
     14 CBY        13.6910   -7.1790  -11.5460 C.3       1 5BG        -0.0136
     15 CAY        14.2560   -8.5030  -11.1410 C.3       1 5BG        -0.0463
     16 CAT        15.0130   -9.2550  -12.2550 C.3       1 5BG        -0.0525
     17 CAS        14.1340   -9.3200  -13.5530 C.3       1 5BG        -0.0530
     18 CAU        13.6650   -7.9750  -13.9790 C.3       1 5BG        -0.0525
     19 CAZ        12.9060   -7.2750  -12.8250 C.3       1 5BG        -0.0463
     20 CBN        12.5540   -5.0790  -10.7650 C.2       1 5BG         0.1936
     21 OAH        13.2510   -4.3940  -11.4910 O.2       1 5BG        -0.3938
     22 N          11.4480   -4.4910  -10.1660 N.am      1 5BG        -0.2501
     23 CBD        10.5970   -5.1700   -9.1370 C.3       1 5BG         0.0368
     24 CAW         9.1470   -4.8560   -9.3150 C.3       1 5BG        -0.0321
     25 CAV         8.8420   -3.3490   -9.4650 C.3       1 5BG        -0.0470
     26 CB          9.6950   -2.8040  -10.5920 C.3       1 5BG        -0.0121
     27 CA         11.2090   -3.0680  -10.3870 C.3       1 5BG         0.1338
     28 C          11.6690   -2.1540   -9.2110 C.2       1 5BG         0.2039
     29 O          11.2450   -1.0370   -9.1470 O.2       1 5BG        -0.3944
     30 NBE        12.5600   -2.7080   -8.3720 N.am      1 5BG        -0.2708
     31 CBX        12.9490   -1.9590   -7.1220 C.3       1 5BG         0.0747
     32 CBQ        12.1870   -2.5680   -6.0230 C.ar      1 5BG        -0.0268
     33 CAP        11.1530   -1.8570   -5.4640 C.ar      1 5BG        -0.0299
     34 CAL        12.3190   -3.8930   -5.7220 C.ar      1 5BG        -0.0692
     35 CAJ        11.5440   -4.5830   -4.8100 C.ar      1 5BG        -0.0771
     36 CAK        10.5260   -3.8320   -4.2140 C.ar      1 5BG        -0.0399
     37 CBP        10.3110   -2.5050   -4.4960 C.ar      1 5BG         0.0868
     38 OBK         9.2820   -1.7160   -3.9790 O.3       1 5BG        -0.3057
     39 CBC         8.3540   -2.3180   -3.0740 C.3       1 5BG         0.1224
     40 CBL         8.9970   -2.6070   -1.7100 C.2       1 5BG         0.0653
     41 OAI         8.3700   -3.4320   -1.0590 O.co2     1 5BG        -0.5662
     42 OAF        10.0680   -2.0720   -1.4200 O.co2     1 5BG        -0.5662
     43 CBA        14.4400   -2.0050   -6.9380 C.3       1 5BG        -0.0120
     44 CAX        14.8710   -0.8730   -5.9400 C.3       1 5BG        -0.0228
     45 CBO        14.7450    0.4440   -6.4670 C.ar      1 5BG        -0.0624
     46 CAO        15.6010    0.8690   -7.4970 C.ar      1 5BG        -0.0398
     47 CAM        13.7390    1.3550   -6.0650 C.ar      1 5BG        -0.0801
     48 CAN        13.5960    2.6120   -6.5760 C.ar      1 5BG        -0.0479
     49 CBS        14.4740    3.0540   -7.6120 C.ar      1 5BG         0.1122
     50 OBF        14.4160    4.2950   -8.1880 O.3       1 5BG        -0.3294
     51 CAA        13.5130    5.2790   -7.7190 C.3       1 5BG         0.0554
     52 CBT        15.4030    2.1540   -8.0110 C.ar      1 5BG         0.1132
     53 OBG        16.0850    2.7150   -9.1080 O.3       1 5BG        -0.3266
     54 CAB        17.2160    1.9740   -9.5310 C.3       1 5BG         0.0568
     55 H1         18.0284   -4.0402   -7.8914 H         1 5BG         0.0572
     56 H2         16.4590   -3.7537   -8.7170 H         1 5BG         0.0572
     57 H3         17.4123   -5.2304   -9.0874 H         1 5BG         0.0572
     58 H4         15.1850   -5.2582   -9.6304 H         1 5BG         0.0369
     59 H5         16.7487   -7.5216   -4.1151 H         1 5BG         0.0565
     60 H6         17.1576   -7.2488   -5.8428 H         1 5BG         0.0565
     61 H7         16.0142   -8.5567   -5.3862 H         1 5BG         0.0565
     62 H8         11.4856   -9.1676   -4.9054 H         1 5BG         0.0572
     63 H9         11.6816   -9.3285   -6.6837 H         1 5BG         0.0572
     64 H10        10.9940   -7.8216   -5.9885 H         1 5BG         0.0572
     65 H11        12.0858   -7.9168   -8.2275 H         1 5BG         0.0369
     66 H12        11.9124   -7.0736  -10.3377 H         1 5BG         0.0674
     67 H13        14.5456   -6.5148  -11.7421 H         1 5BG         0.0347
     68 H14        13.4253   -9.1398  -10.8027 H         1 5BG         0.0271
     69 H15        14.9534   -8.3361  -10.3069 H         1 5BG         0.0271
     70 H16        15.2381  -10.2770  -11.9163 H         1 5BG         0.0265
     71 H17        15.9521   -8.7271  -12.4774 H         1 5BG         0.0265
     72 H18        13.2578   -9.9553  -13.3565 H         1 5BG         0.0265
     73 H19        14.7318   -9.7605  -14.3645 H         1 5BG         0.0265
     74 H20        12.9917   -8.0829  -14.8421 H         1 5BG         0.0265
     75 H21        14.5329   -7.3628  -14.2653 H         1 5BG         0.0265
     76 H22        12.6471   -6.2563  -13.1492 H         1 5BG         0.0271
     77 H23        11.9846   -7.8411  -12.6236 H         1 5BG         0.0271
     78 H24        10.9128   -4.8355   -8.1378 H         1 5BG         0.0524
     79 H25        10.7378   -6.2577   -9.2211 H         1 5BG         0.0524
     80 H26         8.6015   -5.2331   -8.4374 H         1 5BG         0.0285
     81 H27         8.7900   -5.3723  -10.2183 H         1 5BG         0.0285
     82 H28         9.0833   -2.8251   -8.5284 H         1 5BG         0.0268
     83 H29         7.7772   -3.2062   -9.7012 H         1 5BG         0.0268
     84 H30         9.5345   -1.7179  -10.6596 H         1 5BG         0.0312
     85 H31         9.3801   -3.2805  -11.5321 H         1 5BG         0.0312
     86 H32        11.7559   -2.7715  -11.2941 H         1 5BG         0.0802
     87 H33        12.9589   -3.6027   -8.5730 H         1 5BG         0.1881
     88 H34        12.6507   -0.9044   -7.2164 H         1 5BG         0.0719
     89 H35        10.9753   -0.8260   -5.7478 H         1 5BG         0.0479
     90 H36        13.0933   -4.4476   -6.2396 H         1 5BG         0.0465
     91 H37        11.7123   -5.6276   -4.5742 H         1 5BG         0.0572
     92 H38         9.8764   -4.3197   -3.4962 H         1 5BG         0.0486
     93 H39         7.9963   -3.2638   -3.5070 H         1 5BG         0.0785
     94 H40         7.5032   -1.6358   -2.9296 H         1 5BG         0.0785
     95 H41        14.9355   -1.8491   -7.9076 H         1 5BG         0.0329
     96 H42        14.7306   -2.9847   -6.5310 H         1 5BG         0.0329
     97 H43        15.9237   -1.0363   -5.6657 H         1 5BG         0.0406
     98 H44        14.2420   -0.9471   -5.0407 H         1 5BG         0.0406
     99 H45        16.3851    0.2251   -7.8786 H         1 5BG         0.0450
    100 H46        13.0380    1.0337   -5.3031 H         1 5BG         0.0436
    101 H47        12.8218    3.2702   -6.1985 H         1 5BG         0.0493
    102 H48        13.6280    6.1962   -8.3153 H         1 5BG         0.0570
    103 H49        13.7268    5.4992   -6.6627 H         1 5BG         0.0570
    104 H50        12.4825    4.9064   -7.8146 H         1 5BG         0.0570
    105 H51        17.6865    2.4798  -10.3870 H         1 5BG         0.0573
    106 H52        16.9013    0.9633   -9.8300 H         1 5BG         0.0573
    107 H53        17.9384    1.9036   -8.7044 H         1 5BG         0.0573
@<TRIPOS>BOND
     1    1    2 1  
     2    2    3 1  
     3    3    4 ar 
     4    3    5 ar 
     5    4   12 ar 
     6    5    6 1  
     7    5    8 ar 
     8    6    7 1  
     9    8    9 1  
    10    8   11 ar 
    11    9   10 1  
    12   11   12 ar 
    13   12   13 1  
    14   13   14 1  
    15   13   20 1  
    16   14   15 1  
    17   14   19 1  
    18   15   16 1  
    19   16   17 1  
    20   17   18 1  
    21   18   19 1  
    22   20   21 2  
    23   20   22 am 
    24   22   23 1  
    25   22   27 1  
    26   23   24 1  
    27   24   25 1  
    28   25   26 1  
    29   26   27 1  
    30   27   28 1  
    31   28   29 2  
    32   28   30 am 
    33   30   31 1  
    34   31   32 1  
    35   31   43 1  
    36   32   33 ar 
    37   32   34 ar 
    38   33   37 ar 
    39   34   35 ar 
    40   35   36 ar 
    41   36   37 ar 
    42   37   38 1  
    43   38   39 1  
    44   39   40 1  
    45   40   41 ar 
    46   40   42 ar 
    47   43   44 1  
    48   44   45 1  
    49   45   46 ar 
    50   45   47 ar 
    51   46   52 ar 
    52   47   48 ar 
    53   48   49 ar 
    54   49   50 1  
    55   49   52 ar 
    56   50   51 1  
    57   52   53 1  
    58   53   54 1  
    59    1   55 1  
    60    1   56 1  
    61    1   57 1  
    62    4   58 1  
    63    7   59 1  
    64    7   60 1  
    65    7   61 1  
    66   10   62 1  
    67   10   63 1  
    68   10   64 1  
    69   11   65 1  
    70   13   66 1  
    71   14   67 1  
    72   15   68 1  
    73   15   69 1  
    74   16   70 1  
    75   16   71 1  
    76   17   72 1  
    77   17   73 1  
    78   18   74 1  
    79   18   75 1  
    80   19   76 1  
    81   19   77 1  
    82   23   78 1  
    83   23   79 1  
    84   24   80 1  
    85   24   81 1  
    86   25   82 1  
    87   25   83 1  
    88   26   84 1  
    89   26   85 1  
    90   27   86 1  
    91   30   87 1  
    92   31   88 1  
    93   33   89 1  
    94   34   90 1  
    95   35   91 1  
    96   36   92 1  
    97   39   93 1  
    98   39   94 1  
    99   43   95 1  
   100   43   96 1  
   101   44   97 1  
   102   44   98 1  
   103   46   99 1  
   104   47  100 1  
   105   48  101 1  
   106   51  102 1  
   107   51  103 1  
   108   51  104 1  
   109   54  105 1  
   110   54  106 1  
   111   54  107 1  
@<TRIPOS>SUBSTRUCTURE
     1 5BG         1

