### 
### Created by X-TOOL on Mon Sep 10 21:13:30 2018
### 

@<TRIPOS>MOLECULE
5div_ligand
   81    84     1     0     0
SMALL
GAST_HUCK


@<TRIPOS>ATOM
      1 CAU        32.9370  -28.5750    0.8930 C.3       1 5BH        -0.0199
      2 CAO        33.4410  -29.2650   -0.3250 C.3       1 5BH        -0.0516
      3 CAP        33.9500  -28.1560   -1.2730 C.3       1 5BH        -0.0516
      4 CAV        33.9320  -26.8520   -0.4620 C.3       1 5BH        -0.0199
      5 CBL        32.7380  -27.0800    0.4430 C.3       1 5BH         0.1327
      6 CBA        32.7930  -26.1710    1.6670 C.2       1 5BH         0.2219
      7 OAE        33.3290  -26.5770    2.6870 O.2       1 5BH        -0.3422
      8 NAD        32.1230  -25.0500    1.6240 N.am      1 5BH        -0.2980
      9 NAW        31.5040  -26.9260   -0.3610 N.am      1 5BH        -0.2740
     10 C          30.2620  -27.2330    0.1150 C.2       1 5BH         0.2012
     11 O          30.1010  -27.4300    1.3350 O.2       1 5BH        -0.3947
     12 CA         29.1530  -27.1590   -0.8270 C.3       1 5BH         0.1335
     13 CB         28.2110  -28.3870   -0.6510 C.3       1 5BH        -0.0121
     14 CAM        28.8740  -29.6110   -1.0350 C.3       1 5BH        -0.0470
     15 CAN        29.1310  -29.5090   -2.5300 C.3       1 5BH        -0.0321
     16 CAT        30.0940  -28.3720   -2.8290 C.3       1 5BH         0.0368
     17 N          29.5580  -27.1210   -2.2640 N.am      1 5BH        -0.2501
     18 CBC        29.4580  -25.9750   -2.9690 C.2       1 5BH         0.1936
     19 OAG        28.9670  -24.9450   -2.5330 O.2       1 5BH        -0.3938
     20 CBJ        29.9820  -25.9670   -4.4230 C.3       1 5BH         0.0753
     21 CBH        29.3850  -24.7570   -5.2120 C.3       1 5BH        -0.0136
     22 CAQ        30.0840  -24.5470   -6.5610 C.3       1 5BH        -0.0463
     23 CAK        29.5160  -23.3700   -7.2890 C.3       1 5BH        -0.0525
     24 CAJ        28.0540  -23.7400   -7.5970 C.3       1 5BH        -0.0530
     25 CAL        27.3110  -23.8790   -6.2780 C.3       1 5BH        -0.0525
     26 CAR        27.8670  -25.0170   -5.5030 C.3       1 5BH        -0.0463
     27 CBD        31.4150  -25.8520   -4.4020 C.ar      1 5BH        -0.0486
     28 CAI        32.0630  -24.8960   -3.6080 C.ar      1 5BH        -0.0481
     29 CAH        32.1830  -26.6620   -5.2520 C.ar      1 5BH        -0.0481
     30 CBE        33.5800  -26.5460   -5.2830 C.ar      1 5BH         0.1052
     31 OAX        34.4230  -27.2750   -6.0760 O.3       1 5BH        -0.3297
     32 CAA        33.8830  -28.1530   -7.0990 C.3       1 5BH         0.0563
     33 CBG        34.1900  -25.5960   -4.4860 C.ar      1 5BH         0.1397
     34 OAZ        35.5730  -25.4680   -4.5150 O.3       1 5BH        -0.3340
     35 CAC        36.2830  -26.3880   -3.6880 C.3       1 5BH         0.0527
     36 CBF        33.4620  -24.7580   -3.6600 C.ar      1 5BH         0.1052
     37 OAY        34.2050  -23.8750   -2.8830 O.3       1 5BH        -0.3297
     38 CAB        33.4660  -22.8400   -2.2260 C.3       1 5BH         0.0563
     39 H1         33.6711  -28.6411    1.7095 H         1 5BH         0.0277
     40 H2         31.9828  -29.0127    1.2214 H         1 5BH         0.0277
     41 H3         32.6298  -29.8328   -0.8042 H         1 5BH         0.0265
     42 H4         34.2621  -29.9485   -0.0632 H         1 5BH         0.0265
     43 H5         33.2884  -28.0695   -2.1475 H         1 5BH         0.0265
     44 H6         34.9731  -28.3817   -1.6081 H         1 5BH         0.0265
     45 H7         33.7836  -25.9764   -1.1110 H         1 5BH         0.0277
     46 H8         34.8582  -26.7259    0.1179 H         1 5BH         0.0277
     47 H9         32.1360  -24.4294    2.4080 H         1 5BH         0.1821
     48 H10        31.5973  -24.8127    0.8071 H         1 5BH         0.1821
     49 H11        31.5843  -26.5810   -1.2962 H         1 5BH         0.1839
     50 H12        28.5904  -26.2403   -0.6049 H         1 5BH         0.0802
     51 H13        27.3195  -28.2489   -1.2804 H         1 5BH         0.0312
     52 H14        27.9077  -28.4587    0.4039 H         1 5BH         0.0312
     53 H15        28.2307  -30.4765   -0.8178 H         1 5BH         0.0268
     54 H16        29.8248  -29.7153   -0.4918 H         1 5BH         0.0268
     55 H17        28.1791  -29.3228   -3.0489 H         1 5BH         0.0285
     56 H18        29.5650  -30.4543   -2.8879 H         1 5BH         0.0285
     57 H19        30.2092  -28.2642   -3.9176 H         1 5BH         0.0524
     58 H20        31.0726  -28.5902   -2.3766 H         1 5BH         0.0524
     59 H21        29.6932  -26.9047   -4.9202 H         1 5BH         0.0674
     60 H22        29.4950  -23.8479   -4.6025 H         1 5BH         0.0347
     61 H23        29.9512  -25.4481   -7.1777 H         1 5BH         0.0271
     62 H24        31.1566  -24.3769   -6.3864 H         1 5BH         0.0271
     63 H25        30.0713  -23.1907   -8.2215 H         1 5BH         0.0265
     64 H26        29.5595  -22.4704   -6.6575 H         1 5BH         0.0265
     65 H27        28.0187  -24.6924   -8.1463 H         1 5BH         0.0265
     66 H28        27.5897  -22.9490   -8.2042 H         1 5BH         0.0265
     67 H29        26.2444  -24.0598   -6.4773 H         1 5BH         0.0265
     68 H30        27.4234  -22.9521   -5.6965 H         1 5BH         0.0265
     69 H31        27.3225  -25.1142   -4.5522 H         1 5BH         0.0271
     70 H32        27.7584  -25.9446   -6.0842 H         1 5BH         0.0271
     71 H33        31.4828  -24.2592   -2.9500 H         1 5BH         0.0369
     72 H34        31.6909  -27.3855   -5.8919 H         1 5BH         0.0369
     73 H35        34.7089  -28.6501   -7.6288 H         1 5BH         0.0572
     74 H36        33.2914  -27.5625   -7.8141 H         1 5BH         0.0572
     75 H37        33.2397  -28.9115   -6.6290 H         1 5BH         0.0572
     76 H38        37.3638  -26.2058   -3.7809 H         1 5BH         0.0565
     77 H39        36.0561  -27.4166   -4.0050 H         1 5BH         0.0565
     78 H40        35.9768  -26.2511   -2.6404 H         1 5BH         0.0565
     79 H41        34.1554  -22.2090   -1.6458 H         1 5BH         0.0572
     80 H42        32.7249  -23.2912   -1.5499 H         1 5BH         0.0572
     81 H43        32.9499  -22.2244   -2.9774 H         1 5BH         0.0572
@<TRIPOS>BOND
     1    1    2 1  
     2    1    5 1  
     3    2    3 1  
     4    3    4 1  
     5    4    5 1  
     6    5    6 1  
     7    5    9 1  
     8    6    7 2  
     9    6    8 am 
    10    9   10 am 
    11   10   11 2  
    12   10   12 1  
    13   12   13 1  
    14   12   17 1  
    15   13   14 1  
    16   14   15 1  
    17   15   16 1  
    18   16   17 1  
    19   17   18 am 
    20   18   19 2  
    21   18   20 1  
    22   20   21 1  
    23   20   27 1  
    24   21   22 1  
    25   21   26 1  
    26   22   23 1  
    27   23   24 1  
    28   24   25 1  
    29   25   26 1  
    30   27   28 ar 
    31   27   29 ar 
    32   28   36 ar 
    33   29   30 ar 
    34   30   31 1  
    35   30   33 ar 
    36   31   32 1  
    37   33   34 1  
    38   33   36 ar 
    39   34   35 1  
    40   36   37 1  
    41   37   38 1  
    42    1   39 1  
    43    1   40 1  
    44    2   41 1  
    45    2   42 1  
    46    3   43 1  
    47    3   44 1  
    48    4   45 1  
    49    4   46 1  
    50    8   47 1  
    51    8   48 1  
    52    9   49 1  
    53   12   50 1  
    54   13   51 1  
    55   13   52 1  
    56   14   53 1  
    57   14   54 1  
    58   15   55 1  
    59   15   56 1  
    60   16   57 1  
    61   16   58 1  
    62   20   59 1  
    63   21   60 1  
    64   22   61 1  
    65   22   62 1  
    66   23   63 1  
    67   23   64 1  
    68   24   65 1  
    69   24   66 1  
    70   25   67 1  
    71   25   68 1  
    72   26   69 1  
    73   26   70 1  
    74   28   71 1  
    75   29   72 1  
    76   32   73 1  
    77   32   74 1  
    78   32   75 1  
    79   35   76 1  
    80   35   77 1  
    81   35   78 1  
    82   38   79 1  
    83   38   80 1  
    84   38   81 1  
@<TRIPOS>SUBSTRUCTURE
     1 5BH         1

