### 
### Created by X-TOOL on Mon Sep 10 21:13:24 2018
### 

@<TRIPOS>MOLECULE
5dj5_ligand
   36    39     1     0     0
SMALL
GAST_HUCK


@<TRIPOS>ATOM
      1 C1        -33.3040   14.2500  -23.2930 C.ar      1 GR2        -0.0364
      2 C2        -33.8330   13.6670  -24.4520 C.ar      1 GR2        -0.0666
      3 C3        -35.2140   13.5620  -24.6680 C.ar      1 GR2        -0.0755
      4 C4        -36.1010   14.0420  -23.7010 C.ar      1 GR2        -0.0754
      5 C5        -35.5850   14.6250  -22.5380 C.ar      1 GR2        -0.0639
      6 C6        -34.2000   14.7330  -22.3240 C.ar      1 GR2        -0.0063
      7 C7        -33.3980   15.3280  -21.1550 C.3       1 GR2         0.1262
      8 C8        -31.9370   15.4240  -21.6470 C.3       1 GR2         0.0363
      9 C9        -31.8450   14.4750  -22.8550 C.3       1 GR2        -0.0093
     10 C10       -32.1120   14.4120  -19.4790 C.2       1 GR2         0.2390
     11 C11       -31.1470   14.9740  -20.4490 C.2       1 GR2         0.0609
     12 C12       -29.8320   15.0850  -20.2100 C.2       1 GR2         0.0990
     13 C13       -27.6350   15.3650  -20.6860 C.2       1 GR2         0.2508
     14 C14       -27.1170   16.0510  -19.5900 C.2       1 GR2        -0.0272
     15 C15       -26.2490   15.2930  -18.9470 C.3       1 GR2         0.0640
     16 C16       -26.1130   14.0120  -19.7040 C.2       1 GR2         0.2607
     17 C17       -25.5120   15.7460  -17.6810 C.3       1 GR2        -0.0426
     18 O1        -31.7740   13.9780  -18.4020 O.2       1 GR2        -0.3771
     19 O2        -33.4480   14.4570  -19.9960 O.3       1 GR2        -0.2665
     20 O3        -28.9260   15.6380  -21.1390 O.3       1 GR2        -0.2326
     21 O4        -25.3830   13.0800  -19.4440 O.2       1 GR2        -0.3700
     22 O5        -26.9940   14.0960  -20.8260 O.3       1 GR2        -0.1837
     23 H1        -33.1532   13.2853  -25.2051 H         1 GR2         0.0537
     24 H2        -35.5912   13.1115  -25.5790 H         1 GR2         0.0541
     25 H3        -37.1720   13.9641  -23.8492 H         1 GR2         0.0541
     26 H4        -36.2685   15.0016  -21.7856 H         1 GR2         0.0538
     27 H5        -33.7870   16.3224  -20.8906 H         1 GR2         0.0815
     28 H6        -31.6549   16.4458  -21.9407 H         1 GR2         0.0463
     29 H7        -31.2639   14.9369  -23.6668 H         1 GR2         0.0431
     30 H8        -31.3767   13.5230  -22.5646 H         1 GR2         0.0431
     31 H9        -29.4460   14.7320  -19.2549 H         1 GR2         0.1093
     32 H10       -27.3890   17.0662  -19.3049 H         1 GR2         0.0154
     33 H11       -27.0281   14.8607  -18.3020 H         1 GR2         0.0604
     34 H12       -25.8592   16.7495  -17.3939 H         1 GR2         0.0271
     35 H13       -24.4300   15.7745  -17.8770 H         1 GR2         0.0271
     36 H14       -25.7182   15.0391  -16.8639 H         1 GR2         0.0271
@<TRIPOS>BOND
     1    1    2 ar 
     2    1    6 ar 
     3    9    1 1  
     4    2    3 ar 
     5    3    4 ar 
     6    5    4 ar 
     7    6    5 ar 
     8    7    6 1  
     9    8    7 1  
    10   19    7 1  
    11    8    9 1  
    12   11    8 1  
    13   11   10 1  
    14   10   18 2  
    15   10   19 1  
    16   12   11 2  
    17   20   12 1  
    18   13   14 2  
    19   13   20 1  
    20   13   22 1  
    21   14   15 1  
    22   15   16 1  
    23   15   17 1  
    24   16   21 2  
    25   16   22 1  
    26    2   23 1  
    27    3   24 1  
    28    4   25 1  
    29    5   26 1  
    30    7   27 1  
    31    8   28 1  
    32    9   29 1  
    33    9   30 1  
    34   12   31 1  
    35   14   32 1  
    36   15   33 1  
    37   17   34 1  
    38   17   35 1  
    39   17   36 1  
@<TRIPOS>SUBSTRUCTURE
     1 GR2         1

