### 
### Created by X-TOOL on Mon Sep 10 21:13:25 2018
### 

@<TRIPOS>MOLECULE
5djp_ligand
   34    37     1     0     0
SMALL
GAST_HUCK


@<TRIPOS>ATOM
      1 C1          3.8620   73.8560   25.4830 C.ar      1 5BJ        -0.0133
      2 C2          2.6430   74.2770   26.0530 C.ar      1 5BJ        -0.0278
      3 C3          4.4430   72.6310   25.8040 C.ar      1 5BJ         0.0672
      4 C11         0.7330   75.5860   25.2150 C.ar      1 5BJ        -0.0553
      5 C12         2.5910   72.1070   27.2410 C.ar      1 5BJ        -0.0732
      6 C13         7.0910   73.7420   23.6300 C.2       1 5BJ         0.0872
      7 C14         2.0030   78.0660   25.5980 C.ar      1 5BJ        -0.0184
      8 C15         4.0120   76.9930   26.4590 C.ar      1 5BJ        -0.0538
      9 C16         0.0520   76.7660   24.8870 C.ar      1 5BJ        -0.0620
     10 C19         0.6950   78.0010   25.0660 C.ar      1 5BJ        -0.0552
     11 C20         2.6150   79.3280   25.7840 C.ar      1 5BJ        -0.0545
     12 C21         4.6220   78.2410   26.6230 C.ar      1 5BJ        -0.0614
     13 C22         3.9100   79.4130   26.3190 C.ar      1 5BJ        -0.0615
     14 C4          4.8650   74.4750   24.5380 C.2       1 5BJ        -0.0456
     15 C5          2.0450   75.6120   25.7290 C.ar      1 5BJ        -0.0158
     16 C6          2.0150   73.3640   26.9370 C.ar      1 5BJ        -0.0687
     17 N7          5.6090   72.5160   25.1420 N.pl3     1 5BJ        -0.2700
     18 C8          3.8280   71.7230   26.6810 C.ar      1 5BJ        -0.0406
     19 C9          5.8530   73.5730   24.4070 C.2       1 5BJ         0.0935
     20 C10         2.6990   76.8680   25.9390 C.ar      1 5BJ        -0.0115
     21 O17         7.8480   74.8230   23.8500 O.co2     1 5BJ        -0.5587
     22 O18         7.4260   72.8820   22.8360 O.co2     1 5BJ        -0.5587
     23 H1          0.2396   74.6318   25.0701 H         1 5BJ         0.0612
     24 H2          2.0750   71.4306   27.9128 H         1 5BJ         0.0547
     25 H3          4.5573   76.0982   26.7367 H         1 5BJ         0.0623
     26 H4         -0.9596   76.7256   24.4995 H         1 5BJ         0.0614
     27 H5          0.1821   78.9161   24.7929 H         1 5BJ         0.0613
     28 H6          2.0822   80.2321   25.5125 H         1 5BJ         0.0621
     29 H7          5.6422   78.3036   26.9840 H         1 5BJ         0.0615
     30 H8          4.3604   80.3827   26.4975 H         1 5BJ         0.0617
     31 H9          4.8008   75.4517   24.0607 H         1 5BJ         0.0362
     32 H10         1.0693   73.6353   27.3920 H         1 5BJ         0.0532
     33 H11         6.2324   71.6985   25.2052 H         1 5BJ         0.2268
     34 H12         4.2838   70.7684   26.9176 H         1 5BJ         0.0556
@<TRIPOS>BOND
     1    1    2 ar 
     2    1    3 ar 
     3   14    1 1  
     4    2   15 1  
     5    2   16 ar 
     6    3   17 1  
     7    3   18 ar 
     8    4    9 ar 
     9   15    4 ar 
    10   16    5 ar 
    11   18    5 ar 
    12   19    6 1  
    13    6   21 ar 
    14    6   22 ar 
    15   10    7 ar 
    16    7   11 ar 
    17    7   20 ar 
    18    8   12 ar 
    19   20    8 ar 
    20    9   10 ar 
    21   11   13 ar 
    22   13   12 ar 
    23   14   19 2  
    24   15   20 ar 
    25   17   19 1  
    26    4   23 1  
    27    5   24 1  
    28    8   25 1  
    29    9   26 1  
    30   10   27 1  
    31   11   28 1  
    32   12   29 1  
    33   13   30 1  
    34   14   31 1  
    35   16   32 1  
    36   17   33 1  
    37   18   34 1  
@<TRIPOS>SUBSTRUCTURE
     1 5BJ         1

