### 
### Created by X-TOOL on Mon Sep 10 21:13:24 2018
### 

@<TRIPOS>MOLECULE
5djr_ligand
   32    35     1     0     0
SMALL
GAST_HUCK


@<TRIPOS>ATOM
      1 C1          2.7360   72.8610   29.5260 C.ar      1 5BK        -0.0747
      2 C2          3.7170   72.1230   28.8320 C.ar      1 5BK        -0.0420
      3 C3          4.6110   74.2360   28.0160 C.ar      1 5BK        -0.0151
      4 C11         2.7040   74.2730   29.4660 C.ar      1 5BK        -0.0709
      5 C12         3.6480   74.9950   28.7040 C.ar      1 5BK        -0.0350
      6 C13         1.0990   76.7920   27.8000 C.2       1 5BK        -0.0631
      7 C15         0.4660   77.9350   27.4970 C.2       1 5BK         0.0219
      8 C16         2.5040   77.1790   28.1870 C.ar      1 5BK        -0.0210
      9 C17         3.6480   76.4800   28.5960 C.ar      1 5BK        -0.0364
     10 C18         4.7950   77.2600   28.8680 C.ar      1 5BK        -0.0720
     11 C19         4.7920   78.6620   28.7060 C.ar      1 5BK        -0.0757
     12 C20         3.6260   79.3430   28.3100 C.ar      1 5BK        -0.0433
     13 C21         2.4940   78.5600   28.0490 C.ar      1 5BK         0.0638
     14 C4          4.6540   72.8480   28.0780 C.ar      1 5BK         0.0659
     15 N5          5.6860   72.4050   27.3290 N.pl3     1 5BK        -0.2706
     16 C6          6.3310   73.3970   26.7630 C.2       1 5BK         0.0928
     17 C7          5.7700   74.5660   27.1100 C.2       1 5BK        -0.0464
     18 C8          7.5250   73.2400   25.9120 C.2       1 5BK         0.0868
     19 O9          7.5280   72.3560   24.9100 O.co2     1 5BK        -0.5589
     20 O10         8.5020   73.9360   26.1490 O.co2     1 5BK        -0.5589
     21 N14         1.2780   78.9510   27.6370 N.pl3     1 5BK        -0.2798
     22 H1          1.9933   72.3362   30.1160 H         1 5BK         0.0543
     23 H2          3.7466   71.0404   28.8786 H         1 5BK         0.0545
     24 H3          1.9403   74.8115   30.0154 H         1 5BK         0.0520
     25 H4          0.6820   75.7864   27.7721 H         1 5BK         0.0291
     26 H5         -0.5735   78.0068   27.1803 H         1 5BK         0.0934
     27 H6          5.6992   76.7692   29.2094 H         1 5BK         0.0518
     28 H7          5.7015   79.2226   28.8894 H         1 5BK         0.0532
     29 H8          3.6047   80.4223   28.2116 H         1 5BK         0.0544
     30 H9          5.9357   71.4121   27.2161 H         1 5BK         0.2265
     31 H10         6.0897   75.5592   26.7979 H         1 5BK         0.0360
     32 H11         1.0164   79.9302   27.4537 H         1 5BK         0.2271
@<TRIPOS>BOND
     1    1    2 ar 
     2    4    1 ar 
     3   14    2 ar 
     4    5    3 ar 
     5    3   14 ar 
     6    3   17 1  
     7    5    4 ar 
     8    9    5 1  
     9    6    7 2  
    10    8    6 1  
    11    7   21 1  
    12    8    9 ar 
    13    8   13 ar 
    14    9   10 ar 
    15   10   11 ar 
    16   11   12 ar 
    17   12   13 ar 
    18   13   21 1  
    19   14   15 1  
    20   15   16 1  
    21   16   17 2  
    22   16   18 1  
    23   18   19 ar 
    24   18   20 ar 
    25    1   22 1  
    26    2   23 1  
    27    4   24 1  
    28    6   25 1  
    29    7   26 1  
    30   10   27 1  
    31   11   28 1  
    32   12   29 1  
    33   15   30 1  
    34   17   31 1  
    35   21   32 1  
@<TRIPOS>SUBSTRUCTURE
     1 5BK         1

