### 
### Created by X-TOOL on Mon Sep 10 21:13:25 2018
### 

@<TRIPOS>MOLECULE
5djv_ligand
   43    47     1     0     0
SMALL
GAST_HUCK


@<TRIPOS>ATOM
      1 C1          3.3800   69.9770   30.9490 C.2       1 5BL        -0.0774
      2 C2          4.2250   70.5920   29.9230 C.2       1 5BL        -0.0717
      3 C3          3.4050   71.3490   29.1860 C.2       1 5BL         0.0602
      4 C11         1.2360   75.2620   26.0910 C.ar      1 5BL        -0.0528
      5 C12         0.3930   76.3710   25.9060 C.ar      1 5BL        -0.0601
      6 C13         0.9230   77.6640   26.0670 C.ar      1 5BL        -0.0536
      7 C14         3.1480   76.7400   26.5620 C.ar      1 5BL        -0.0098
      8 C15         2.2820   77.8620   26.4020 C.ar      1 5BL        -0.0169
      9 C16         2.7840   79.1720   26.5600 C.ar      1 5BL        -0.0539
     10 C17         4.1300   79.3810   26.9210 C.ar      1 5BL        -0.0610
     11 C18         4.9920   78.2850   27.0870 C.ar      1 5BL        -0.0610
     12 C19         4.5020   76.9800   26.9180 C.ar      1 5BL        -0.0533
     13 C20         4.4730   73.8210   25.7400 C.ar      1 5BL         0.0561
     14 C21         5.2110   72.6410   26.0300 C.ar      1 5BL         0.0042
     15 C22         6.2860   72.2990   25.1910 C.ar      1 5BL        -0.0354
     16 C23         6.5950   73.1170   24.0880 C.ar      1 5BL        -0.0211
     17 C24         5.8510   74.2910   23.8470 C.ar      1 5BL         0.0800
     18 C26         6.1780   75.1970   22.6740 C.2       1 5BL         0.0819
     19 N4          2.2120   71.2340   29.6980 N.pl3     1 5BL        -0.2858
     20 C5          2.1520   70.4510   30.7320 C.2       1 5BL         0.0189
     21 C6          3.4010   74.1860   26.5940 C.ar      1 5BL         0.0053
     22 C7          3.1030   73.3900   27.7180 C.ar      1 5BL        -0.0416
     23 C8          3.8050   72.2030   27.9910 C.ar      1 5BL         0.0016
     24 C9          4.8700   71.8410   27.1410 C.ar      1 5BL        -0.0431
     25 C10         2.6060   75.4340   26.3940 C.ar      1 5BL        -0.0075
     26 N25         4.8210   74.6030   24.6730 N.ar      1 5BL        -0.2809
     27 O27         5.1760   75.8370   22.0670 O.co2     1 5BL        -0.5565
     28 O28         7.3340   75.3230   22.2730 O.co2     1 5BL        -0.5565
     29 H1          3.6892   69.2793   31.7259 H         1 5BL         0.0312
     30 H2          5.2976   70.4603   29.7883 H         1 5BL         0.0341
     31 H3          0.8302   74.2609   26.0001 H         1 5BL         0.0628
     32 H4         -0.6495   76.2322   25.6433 H         1 5BL         0.0619
     33 H5          0.2775   78.5243   25.9317 H         1 5BL         0.0627
     34 H6          2.1301   80.0222   26.4027 H         1 5BL         0.0625
     35 H7          4.5003   80.3887   27.0707 H         1 5BL         0.0618
     36 H8          6.0325   78.4459   27.3448 H         1 5BL         0.0619
     37 H9          5.1704   76.1389   27.0621 H         1 5BL         0.0624
     38 H10         6.8735   71.4105   25.3924 H         1 5BL         0.0753
     39 H11         7.4061   72.8443   23.4226 H         1 5BL         0.0712
     40 H12         1.3890   71.7215   29.3159 H         1 5BL         0.2331
     41 H13         1.2615   70.2228   31.3158 H         1 5BL         0.0862
     42 H14         2.3114   73.7012   28.3900 H         1 5BL         0.0647
     43 H15         5.4335   70.9374   27.3435 H         1 5BL         0.0599
@<TRIPOS>BOND
     1    2    1 1  
     2   20    1 2  
     3    3    2 2  
     4    3   19 1  
     5   23    3 1  
     6    4    5 ar 
     7   25    4 ar 
     8    5    6 ar 
     9    8    6 ar 
    10    7    8 ar 
    11    7   12 ar 
    12   25    7 ar 
    13    8    9 ar 
    14    9   10 ar 
    15   11   10 ar 
    16   12   11 ar 
    17   13   14 ar 
    18   21   13 ar 
    19   13   26 ar 
    20   14   15 ar 
    21   14   24 ar 
    22   15   16 ar 
    23   17   16 ar 
    24   17   18 1  
    25   26   17 ar 
    26   18   27 ar 
    27   18   28 ar 
    28   19   20 1  
    29   22   21 ar 
    30   21   25 1  
    31   22   23 ar 
    32   23   24 ar 
    33    1   29 1  
    34    2   30 1  
    35    4   31 1  
    36    5   32 1  
    37    6   33 1  
    38    9   34 1  
    39   10   35 1  
    40   11   36 1  
    41   12   37 1  
    42   15   38 1  
    43   16   39 1  
    44   19   40 1  
    45   20   41 1  
    46   22   42 1  
    47   24   43 1  
@<TRIPOS>SUBSTRUCTURE
     1 5BL         1

