### 
### Created by X-TOOL on Mon Sep 10 21:13:22 2018
### 

@<TRIPOS>MOLECULE
5dk4_ligand
   34    36     1     0     0
SMALL
GAST_HUCK


@<TRIPOS>ATOM
      1 C01        10.1890   17.1910   97.4980 C.3       1 5BX         0.0283
      2 N02        10.2100   18.5800   98.0740 N.pl3     1 5BX        -0.2589
      3 C03         9.3460   19.6140   97.6290 C.2       1 5BX         0.2685
      4 N04         8.3500   19.5470   96.6240 N.2       1 5BX        -0.2604
      5 C05         7.7550   20.7740   96.5100 C.2       1 5BX         0.1701
      6 O06         6.9400   21.0980   95.6640 O.2       1 5BX        -0.3966
      7 C07         8.3020   21.6210   97.5910 C.3       1 5BX         0.1778
      8 O08         9.3710   20.9170   98.1570 O.3       1 5BX        -0.2240
      9 C09         8.7780   22.9190   96.9920 C.3       1 5BX         0.0214
     10 C10         9.7060   22.8080   95.8130 C.3       1 5BX        -0.0530
     11 C11         9.3180   23.8100   98.1110 C.2       1 5BX        -0.0383
     12 C12        10.3250   23.4730   99.0540 C.2       1 5BX         0.0169
     13 N13        10.5070   24.5640   99.8660 N.pl3     1 5BX        -0.2890
     14 C14         9.6560   25.6030   99.4720 C.ar      1 5BX         0.0603
     15 C15         9.4650   26.9340   99.9920 C.ar      1 5BX        -0.0443
     16 C16         8.5350   27.7970   99.4130 C.ar      1 5BX        -0.0768
     17 C17         7.7590   27.3580   98.2680 C.ar      1 5BX        -0.0792
     18 C18         7.9400   26.0440   97.7650 C.ar      1 5BX        -0.0747
     19 C19         8.8990   25.1650   98.3700 C.ar      1 5BX        -0.0211
     20 H1         10.9461   16.5732   98.0031 H         1 5BX         0.0502
     21 H2         10.4118   17.2369   96.4218 H         1 5BX         0.0502
     22 H3          9.1939   16.7469   97.6479 H         1 5BX         0.0502
     23 H4         10.8820   18.7904   98.8257 H         1 5BX         0.1988
     24 H5          7.5336   21.8210   98.3523 H         1 5BX         0.0921
     25 H6          7.8792   23.4187   96.6015 H         1 5BX         0.0437
     26 H7          9.9816   23.8152   95.4673 H         1 5BX         0.0249
     27 H8          9.2018   22.2662   94.9992 H         1 5BX         0.0249
     28 H9         10.6131   22.2615   96.1105 H         1 5BX         0.0249
     29 H10        10.8549   22.5239   99.1204 H         1 5BX         0.0795
     30 H11        11.1725   24.6114  100.6507 H         1 5BX         0.2216
     31 H12        10.0501   27.2673  100.8415 H         1 5BX         0.0541
     32 H13         8.3922   28.7927   99.8170 H         1 5BX         0.0530
     33 H14         7.0469   28.0287   97.8009 H         1 5BX         0.0510
     34 H15         7.3518   25.7029   96.9208 H         1 5BX         0.0540
@<TRIPOS>BOND
     1    1    2 1  
     2    2    3 1  
     3    3    4 2  
     4    3    8 1  
     5    4    5 1  
     6    5    6 2  
     7    5    7 1  
     8    7    8 1  
     9    7    9 1  
    10    9   10 1  
    11    9   11 1  
    12   11   12 2  
    13   11   19 1  
    14   12   13 1  
    15   13   14 1  
    16   14   15 ar 
    17   14   19 ar 
    18   15   16 ar 
    19   16   17 ar 
    20   17   18 ar 
    21   18   19 ar 
    22    1   20 1  
    23    1   21 1  
    24    1   22 1  
    25    2   23 1  
    26    7   24 1  
    27    9   25 1  
    28   10   26 1  
    29   10   27 1  
    30   10   28 1  
    31   12   29 1  
    32   13   30 1  
    33   15   31 1  
    34   16   32 1  
    35   17   33 1  
    36   18   34 1  
@<TRIPOS>SUBSTRUCTURE
     1 5BX         1

