### 
### Created by X-TOOL on Mon Sep 10 21:13:28 2018
### 

@<TRIPOS>MOLECULE
5dkn_ligand
   59    62     1     0     0
SMALL
GAST_HUCK


@<TRIPOS>ATOM
      1 C01        58.5910  -13.0450   46.7220 C.ar      1 B7I        -0.0560
      2 C02        59.0760  -13.6240   45.5590 C.ar      1 B7I         0.0156
      3 C03        59.4040  -12.8360   44.4660 C.ar      1 B7I        -0.0560
      4 C04        59.2510  -11.4590   44.5380 C.ar      1 B7I        -0.0296
      5 C05        58.7680  -10.8770   45.7020 C.ar      1 B7I         0.0944
      6 C06        58.4390  -11.6660   46.7950 C.ar      1 B7I        -0.0296
      7 C07        63.8680   -3.5700   47.0290 C.ar      1 B7I         0.0944
      8 C08        64.4970   -4.5590   46.2880 C.ar      1 B7I        -0.0296
      9 C09        65.7210   -4.2920   45.6910 C.ar      1 B7I        -0.0560
     10 C10        66.3000   -3.0370   45.8310 C.ar      1 B7I         0.0156
     11 C11        65.6620   -2.0520   46.5640 C.ar      1 B7I        -0.0560
     12 C12        64.4460   -2.3200   47.1640 C.ar      1 B7I        -0.0296
     13 O13        58.6070   -9.5180   45.7770 O.3       1 B7I        -0.3159
     14 C14        58.3080   -8.9480   46.9950 C.3       1 B7I         0.0713
     15 C15        57.8220   -7.5360   47.0010 C.3       1 B7I        -0.0249
     16 C16        58.8420   -6.4480   46.8870 C.3       1 B7I        -0.0506
     17 C17        58.5700   -5.1960   47.6650 C.3       1 B7I        -0.0529
     18 C18        59.7460   -4.3930   48.1390 C.3       1 B7I        -0.0506
     19 C19        60.2580   -3.3150   47.2300 C.3       1 B7I        -0.0249
     20 C20        61.6640   -2.8500   47.4360 C.3       1 B7I         0.0713
     21 O21        62.6510   -3.8010   47.6280 O.3       1 B7I        -0.3159
     22 C22        59.2480  -15.1070   45.4690 C.2       1 B7I         0.1278
     23 C23        67.6050   -2.7240   45.1930 C.2       1 B7I         0.1278
     24 N24        59.4680  -15.7890   44.3350 N.pl3     1 B7I        -0.2643
     25 C25        59.5690  -17.0950   44.6520 C.2       1 B7I         0.0335
     26 C26        59.3980  -17.2060   46.0300 C.2       1 B7I        -0.0238
     27 N27        59.2050  -15.9590   46.5020 N.2       1 B7I        -0.3297
     28 N28        67.9880   -1.5000   44.8030 N.pl3     1 B7I        -0.2643
     29 C29        69.2210   -1.5940   44.2730 C.2       1 B7I         0.0335
     30 C30        69.6010   -2.9320   44.3410 C.2       1 B7I        -0.0238
     31 N31        68.5810   -3.6000   44.9180 N.2       1 B7I        -0.3297
     32 H1         58.3313  -13.6664   47.5714 H         1 B7I         0.0613
     33 H2         59.7788  -13.2946   43.5581 H         1 B7I         0.0613
     34 H3         59.5081  -10.8388   43.6870 H         1 B7I         0.0552
     35 H4         58.0645  -11.2077   47.7032 H         1 B7I         0.0552
     36 H5         64.0360   -5.5336   46.1759 H         1 B7I         0.0552
     37 H6         66.2243   -5.0612   45.1165 H         1 B7I         0.0613
     38 H7         66.1147   -1.0725   46.6674 H         1 B7I         0.0613
     39 H8         63.9450   -1.5508   47.7405 H         1 B7I         0.0552
     40 H9         59.2212   -8.9835   47.6072 H         1 B7I         0.0616
     41 H10        57.5279   -9.5657   47.4640 H         1 B7I         0.0616
     42 H11        57.2793   -7.3796   47.9449 H         1 B7I         0.0291
     43 H12        57.1271   -7.4244   46.1556 H         1 B7I         0.0291
     44 H13        58.9198   -6.1719   45.8251 H         1 B7I         0.0266
     45 H14        59.8044   -6.8539   47.2318 H         1 B7I         0.0266
     46 H15        57.9897   -5.4828   48.5543 H         1 B7I         0.0265
     47 H16        57.9614   -4.5392   47.0261 H         1 B7I         0.0265
     48 H17        60.5741   -5.0947   48.3176 H         1 B7I         0.0266
     49 H18        59.4588   -3.9157   49.0875 H         1 B7I         0.0266
     50 H19        59.6007   -2.4414   47.3516 H         1 B7I         0.0291
     51 H20        60.1826   -3.6900   46.1986 H         1 B7I         0.0291
     52 H21        61.6642   -2.1979   48.3219 H         1 B7I         0.0616
     53 H22        61.9458   -2.2637   46.5490 H         1 B7I         0.0616
     54 H23        59.5459  -15.3862   43.3902 H         1 B7I         0.2370
     55 H24        59.7510  -17.9140   43.9577 H         1 B7I         0.0871
     56 H25        59.4167  -18.1250   46.6140 H         1 B7I         0.0460
     57 H26        67.4339   -0.6365   44.8935 H         1 B7I         0.2370
     58 H27        69.8125   -0.7752   43.8661 H         1 B7I         0.0871
     59 H28        70.5416   -3.3576   43.9946 H         1 B7I         0.0460
@<TRIPOS>BOND
     1    1    2 ar 
     2    6    1 ar 
     3    3    2 ar 
     4    2   22 1  
     5    4    3 ar 
     6    5    4 ar 
     7    5    6 ar 
     8   13    5 1  
     9    7    8 ar 
    10    7   12 ar 
    11   21    7 1  
    12    8    9 ar 
    13    9   10 ar 
    14   11   10 ar 
    15   10   23 1  
    16   12   11 ar 
    17   14   13 1  
    18   15   14 1  
    19   16   15 1  
    20   17   16 1  
    21   18   17 1  
    22   19   18 1  
    23   20   19 1  
    24   20   21 1  
    25   22   24 1  
    26   22   27 2  
    27   23   28 1  
    28   23   31 2  
    29   24   25 1  
    30   25   26 2  
    31   26   27 1  
    32   28   29 1  
    33   29   30 2  
    34   30   31 1  
    35    1   32 1  
    36    3   33 1  
    37    4   34 1  
    38    6   35 1  
    39    8   36 1  
    40    9   37 1  
    41   11   38 1  
    42   12   39 1  
    43   14   40 1  
    44   14   41 1  
    45   15   42 1  
    46   15   43 1  
    47   16   44 1  
    48   16   45 1  
    49   17   46 1  
    50   17   47 1  
    51   18   48 1  
    52   18   49 1  
    53   19   50 1  
    54   19   51 1  
    55   20   52 1  
    56   20   53 1  
    57   24   54 1  
    58   25   55 1  
    59   26   56 1  
    60   28   57 1  
    61   29   58 1  
    62   30   59 1  
@<TRIPOS>SUBSTRUCTURE
     1 B7I         1

