### 
### Created by X-TOOL on Mon Sep 10 21:13:29 2018
### 

@<TRIPOS>MOLECULE
5dkr_ligand
   49    52     1     0     0
SMALL
GAST_HUCK


@<TRIPOS>ATOM
      1 C2         -0.6730  -23.0080   15.8710 C.ar      1 5CZ        -0.0043
      2 C3         -0.4840  -21.7020   16.2900 C.ar      1 5CZ        -0.0586
      3 C7          0.2290  -23.9710   16.2650 C.ar      1 5CZ        -0.0586
      4 C8         -1.8140  -23.3970   14.9940 C.2       1 5CZ         0.0572
      5 C9         -2.4010  -24.6630   14.9300 C.2       1 5CZ        -0.0572
      6 C10        -3.4250  -24.4810   13.9480 C.ar      1 5CZ        -0.0265
      7 C11        -3.4370  -23.1900   13.4680 C.ar      1 5CZ         0.0627
      8 C20         2.4370  -21.9400   19.6740 C.ar      1 5CZ         0.1169
      9 C21         3.4760  -21.3370   20.3640 C.ar      1 5CZ        -0.0283
     10 C22         3.3950  -21.1790   21.7490 C.ar      1 5CZ        -0.0644
     11 C24         1.2300  -22.2300   21.7610 C.ar      1 5CZ        -0.0644
     12 N29         2.8550  -20.2370   24.4530 N.pl3     1 5CZ        -0.2733
     13 C30        -4.3440  -25.4130   13.4670 C.ar      1 5CZ        -0.0749
     14 C31        -5.2720  -25.0260   12.4980 C.ar      1 5CZ        -0.0740
     15 C32        -5.2750  -23.7120   12.0180 C.ar      1 5CZ         0.0109
     16 C33        -4.3520  -22.7890   12.4990 C.ar      1 5CZ        -0.0383
     17 C34        -6.2640  -23.2760   10.9750 C.cat     1 5CZ         0.2293
     18 C4          0.5950  -21.3780   17.1110 C.ar      1 5CZ        -0.0265
     19 C5          1.4950  -22.3610   17.5070 C.ar      1 5CZ         0.1180
     20 C6          1.3080  -23.6620   17.0790 C.ar      1 5CZ        -0.0265
     21 N12        -2.4440  -22.5560   14.1270 N.pl3     1 5CZ        -0.2762
     22 O19         2.5630  -22.0690   18.3070 O.3       1 5CZ        -0.2565
     23 C23         2.2870  -21.6340   22.4460 C.ar      1 5CZ         0.0152
     24 C25         1.3110  -22.3890   20.3690 C.ar      1 5CZ        -0.0283
     25 C26         2.2460  -21.4030   23.9350 C.cat     1 5CZ         0.2298
     26 N27         1.6490  -22.1840   24.7160 N.pl3     1 5CZ        -0.2733
     27 N35        -6.5720  -24.1350    9.8840 N.pl3     1 5CZ        -0.2731
     28 N38        -6.8220  -22.1460   11.0760 N.pl3     1 5CZ        -0.2731
     29 H1         -1.1773  -20.9290   15.9787 H         1 5CZ         0.0601
     30 H2          0.0924  -24.9933   15.9314 H         1 5CZ         0.0601
     31 H3         -2.1437  -25.5624   15.4876 H         1 5CZ         0.0300
     32 H4          4.3517  -20.9879   19.8288 H         1 5CZ         0.0553
     33 H5          4.2054  -20.6965   22.2833 H         1 5CZ         0.0590
     34 H6          0.3519  -22.5682   22.2992 H         1 5CZ         0.0590
     35 H7          2.8409  -20.0556   25.4668 H         1 5CZ         0.3180
     36 H8          3.3128  -19.5689   23.8166 H         1 5CZ         0.3180
     37 H9         -4.3380  -26.4299   13.8424 H         1 5CZ         0.0532
     38 H10        -5.9900  -25.7437   12.1178 H         1 5CZ         0.0514
     39 H11        -4.3455  -21.7718   12.1244 H         1 5CZ         0.0539
     40 H12         0.7330  -20.3551   17.4422 H         1 5CZ         0.0559
     41 H13         2.0028  -24.4382   17.3788 H         1 5CZ         0.0559
     42 H14        -2.1951  -21.5657   13.9919 H         1 5CZ         0.2231
     43 H15         0.4972  -22.8618   19.8311 H         1 5CZ         0.0553
     44 H16         1.2017  -23.0364   24.3496 H         1 5CZ         0.3180
     45 H17         1.6065  -21.9723   25.7231 H         1 5CZ         0.3180
     46 H18        -7.2502  -23.8361    9.1687 H         1 5CZ         0.3180
     47 H19        -6.1169  -25.0560    9.8092 H         1 5CZ         0.3180
     48 H20        -6.5948  -21.5284   11.8684 H         1 5CZ         0.3180
     49 H21        -7.5038  -21.8430   10.3659 H         1 5CZ         0.3180
@<TRIPOS>BOND
     1    2    1 ar 
     2    3    1 ar 
     3    1    4 1  
     4   18    2 ar 
     5   20    3 ar 
     6    4    5 2  
     7    4   21 1  
     8    5    6 1  
     9    7    6 ar 
    10    6   13 ar 
    11    7   16 ar 
    12   21    7 1  
    13    9    8 ar 
    14    8   22 1  
    15   24    8 ar 
    16   10    9 ar 
    17   23   10 ar 
    18   23   11 ar 
    19   11   24 ar 
    20   25   12 ar 
    21   13   14 ar 
    22   15   14 ar 
    23   16   15 ar 
    24   15   17 1  
    25   17   27 ar 
    26   17   28 ar 
    27   19   18 ar 
    28   19   20 ar 
    29   22   19 1  
    30   23   25 1  
    31   25   26 ar 
    32    2   29 1  
    33    3   30 1  
    34    5   31 1  
    35    9   32 1  
    36   10   33 1  
    37   11   34 1  
    38   12   35 1  
    39   12   36 1  
    40   13   37 1  
    41   14   38 1  
    42   16   39 1  
    43   18   40 1  
    44   20   41 1  
    45   21   42 1  
    46   24   43 1  
    47   26   44 1  
    48   26   45 1  
    49   27   46 1  
    50   27   47 1  
    51   28   48 1  
    52   28   49 1  
@<TRIPOS>SUBSTRUCTURE
     1 5CZ         1

