### 
### Created by X-TOOL on Mon Sep 10 21:13:25 2018
### 

@<TRIPOS>MOLECULE
5dl1_ligand
   43    46     1     0     0
SMALL
GAST_HUCK


@<TRIPOS>ATOM
      1 N3        -48.3200  -19.0660    5.8210 N.am      1 5C2        -0.2784
      2 C4        -48.5330  -20.3960    5.2540 C.3       1 5C2         0.0615
      3 C5        -47.4910  -20.6570    4.1730 C.2       1 5C2         0.0328
      4 C6        -47.6050  -20.4200    2.8900 C.2       1 5C2         0.0950
      5 C8        -45.7790  -21.2420    3.1600 C.2       1 5C2         0.1969
      6 C10       -44.1160  -22.1900    1.7610 C.2       1 5C2        -0.0596
      7 C15       -48.1330  -16.7410    5.5400 C.ar      1 5C2         0.0678
      8 C17       -46.8470  -15.1820    6.7030 C.ar      1 5C2         0.0424
      9 C21       -47.7030  -11.7860    6.8820 C.3       1 5C2         0.0751
     10 C22       -47.2550  -11.1360    5.5910 C.3       1 5C2        -0.0340
     11 C24       -47.6560  -14.2130    6.3850 C.ar      1 5C2         0.1654
     12 C26       -48.9670  -15.7210    5.1780 C.ar      1 5C2         0.0201
     13 C23       -49.2130  -11.7700    6.9300 C.3       1 5C2        -0.0340
     14 N20       -47.1770  -13.1200    6.9410 N.pl3     1 5C2        -0.1787
     15 N19       -46.3290  -13.2980    7.4590 N.2       1 5C2        -0.1948
     16 C18       -45.9550  -14.5690    7.4290 C.2       1 5C2         0.0320
     17 C16       -47.0270  -16.4350    6.3110 C.ar      1 5C2        -0.0240
     18 N25       -48.7120  -14.4460    5.6330 N.ar      1 5C2        -0.2717
     19 C2        -48.3710  -18.0040    5.0350 C.2       1 5C2         0.2065
     20 O1        -48.5730  -18.0960    3.8440 O.2       1 5C2        -0.3865
     21 N14       -46.3150  -21.1840    4.3610 N.2       1 5C2        -0.3048
     22 O7        -46.5390  -20.7770    2.3230 O.3       1 5C2        -0.2449
     23 C9        -44.5450  -21.6630    2.8940 C.2       1 5C2         0.0883
     24 S13       -43.3510  -21.5410    3.8390 S.3       1 5C2        -0.0316
     25 C12       -42.2210  -22.1690    2.9070 C.2       1 5C2        -0.0022
     26 C11       -42.8100  -22.4850    1.7720 C.2       1 5C2        -0.0695
     27 H1        -48.1366  -18.9597    6.7983 H         1 5C2         0.1864
     28 H2        -49.5398  -20.4508    4.8143 H         1 5C2         0.0641
     29 H3        -48.4373  -21.1527    6.0466 H         1 5C2         0.0641
     30 H4        -48.4744  -19.9875    2.3971 H         1 5C2         0.0890
     31 H5        -44.7615  -22.3672    0.9020 H         1 5C2         0.0481
     32 H6        -47.3133  -11.2130    7.7362 H         1 5C2         0.0652
     33 H7        -47.6543  -10.1124    5.5380 H         1 5C2         0.0259
     34 H8        -47.6291  -11.7201    4.7373 H         1 5C2         0.0259
     35 H9        -46.1560  -11.1029    5.5592 H         1 5C2         0.0259
     36 H10       -49.8212  -15.9133    4.5389 H         1 5C2         0.0846
     37 H11       -49.5551  -12.2398    7.8640 H         1 5C2         0.0259
     38 H12       -49.6131  -12.3283    6.0708 H         1 5C2         0.0259
     39 H13       -49.5701  -10.7304    6.8903 H         1 5C2         0.0259
     40 H14       -45.0835  -15.0096    7.9108 H         1 5C2         0.0742
     41 H15       -46.3190  -17.2070    6.5901 H         1 5C2         0.0788
     42 H16       -41.1707  -22.3090    3.1585 H         1 5C2         0.0777
     43 H17       -42.2890  -22.9389    0.9303 H         1 5C2         0.0436
@<TRIPOS>BOND
     1    1    2 1  
     2   19    1 am 
     3    2    3 1  
     4    3    4 2  
     5    3   21 1  
     6    4   22 1  
     7   21    5 2  
     8    5   22 1  
     9    5   23 1  
    10   23    6 2  
    11    6   26 1  
    12    7   12 ar 
    13   17    7 ar 
    14    7   19 1  
    15   11    8 ar 
    16    8   16 1  
    17    8   17 ar 
    18    9   10 1  
    19    9   13 1  
    20   14    9 1  
    21   11   14 1  
    22   11   18 ar 
    23   12   18 ar 
    24   14   15 1  
    25   15   16 2  
    26   19   20 2  
    27   23   24 1  
    28   24   25 1  
    29   25   26 2  
    30    1   27 1  
    31    2   28 1  
    32    2   29 1  
    33    4   30 1  
    34    6   31 1  
    35    9   32 1  
    36   10   33 1  
    37   10   34 1  
    38   10   35 1  
    39   12   36 1  
    40   13   37 1  
    41   13   38 1  
    42   13   39 1  
    43   16   40 1  
    44   17   41 1  
    45   25   42 1  
    46   26   43 1  
@<TRIPOS>SUBSTRUCTURE
     1 5C2         1

