### 
### Created by X-TOOL on Mon Sep 10 21:13:21 2018
### 

@<TRIPOS>MOLECULE
5dls_ligand
   75    79     1     0     0
SMALL
GAST_HUCK


@<TRIPOS>ATOM
      1 C4          5.8700   -4.0460   18.0870 C.2       1 5CV         0.0891
      2 C5          6.4420   -2.9750   18.7530 C.2       1 5CV         0.0834
      3 C8          2.4350   -3.8330   19.4790 C.2       1 5CV         0.0469
      4 C10         1.6620   -4.8550   19.0900 C.2       1 5CV        -0.0712
      5 C15        -1.9260   -4.7870   20.0640 C.ar      1 5CV         0.0703
      6 C22        -6.3370   -8.0540   18.1840 C.3       1 5CV        -0.0433
      7 C26         8.4330   -5.6000   15.7670 C.2       1 5CV         0.0688
      8 C23        -4.3700   -9.2590   17.3380 C.3       1 5CV        -0.0433
      9 C18        -3.0490   -6.7380   19.5930 C.3       1 5CV         0.0778
     10 C16        -0.7860   -5.3450   19.4770 C.ar      1 5CV        -0.0523
     11 C2          3.7920   -3.5960   19.2320 C.2       1 5CV         0.0557
     12 O7          3.7620   -1.7910   20.7000 O.2       1 5CV        -0.4174
     13 C12         0.4240   -3.4050   20.1800 C.ar      1 5CV         0.0494
     14 C11         0.4050   -4.6290   19.5330 C.ar      1 5CV        -0.0434
     15 N21        -4.8850   -8.3020   18.3380 N.4       1 5CV         0.2313
     16 C20        -4.5030   -8.6950   19.7100 C.3       1 5CV        -0.0247
     17 C19        -4.0170   -7.4740   20.4980 C.3       1 5CV         0.0324
     18 C39        -3.2030   -7.8980   21.7410 C.3       1 5CV        -0.0525
     19 C40        -5.2170   -6.5660   20.8860 C.3       1 5CV        -0.0525
     20 O17        -3.1470   -5.3800   20.0420 O.3       1 5CV        -0.3266
     21 C14        -1.8910   -3.5610   20.6950 C.ar      1 5CV        -0.0482
     22 C13        -0.7070   -2.8630   20.7710 C.ar      1 5CV        -0.0516
     23 N9          1.6520   -2.9430   20.1230 N.pl3     1 5CV        -0.2851
     24 C3          4.5320   -4.3600   18.3510 C.2       1 5CV        -0.0325
     25 C1          4.3840   -2.5070   19.8820 C.2       1 5CV         0.2065
     26 N6          5.6950   -2.1720   19.6190 N.am      1 5CV        -0.2302
     27 N24         6.5910   -4.8100   17.2340 N.am      1 5CV        -0.2524
     28 C25         7.7590   -4.4970   16.5780 C.2       1 5CV         0.2019
     29 O27         8.3500   -3.4080   16.6940 O.2       1 5CV        -0.3931
     30 C28         7.7300   -6.6760   15.3480 C.2       1 5CV         0.0778
     31 C31         9.7460   -5.7260   15.4120 C.2       1 5CV         0.0143
     32 N30         9.8720   -6.9100   14.7130 N.2       1 5CV        -0.2100
     33 N29         8.5510   -7.5200   14.7150 N.pl3     1 5CV        -0.1882
     34 C32         8.0470   -8.7760   14.1450 C.3       1 5CV         0.1068
     35 C33         8.6350   -9.9410   14.9340 C.ar      1 5CV        -0.0103
     36 C34         8.1590  -10.1990   16.2410 C.ar      1 5CV        -0.0575
     37 C35         8.6930  -11.2550   17.0040 C.ar      1 5CV        -0.0685
     38 C36         9.7060  -12.0420   16.4390 C.ar      1 5CV        -0.0687
     39 C37        10.1820  -11.7980   15.1330 C.ar      1 5CV        -0.0685
     40 C38         9.6490  -10.7430   14.3760 C.ar      1 5CV        -0.0575
     41 H1          7.4970   -2.7537   18.5985 H         1 5CV         0.1065
     42 H2          1.9898   -5.7199   18.5153 H         1 5CV         0.0212
     43 H3         -6.5516   -7.7669   17.1440 H         1 5CV         0.0777
     44 H4         -6.6439   -7.2418   18.8593 H         1 5CV         0.0777
     45 H5         -6.8939   -8.9690   18.4341 H         1 5CV         0.0777
     46 H6         -3.2915   -9.4083   17.4948 H         1 5CV         0.0777
     47 H7         -4.5419   -8.8610   16.3270 H         1 5CV         0.0777
     48 H8         -4.8929  -10.2206   17.4474 H         1 5CV         0.0777
     49 H9         -3.3495   -6.8272   18.5386 H         1 5CV         0.0616
     50 H10        -2.0252   -7.1210   19.7162 H         1 5CV         0.0616
     51 H11        -0.8296   -6.3125   18.9900 H         1 5CV         0.0405
     52 H12        -4.4279   -7.4222   18.1563 H         1 5CV         0.2028
     53 H13        -3.6957   -9.4407   19.6623 H         1 5CV         0.0820
     54 H14        -5.3754   -9.1311   20.2186 H         1 5CV         0.0820
     55 H15        -2.8692   -7.0015   22.2840 H         1 5CV         0.0238
     56 H16        -2.3265   -8.4819   21.4236 H         1 5CV         0.0238
     57 H17        -3.8338   -8.5123   22.4003 H         1 5CV         0.0238
     58 H18        -5.7720   -6.2845   19.9790 H         1 5CV         0.0238
     59 H19        -4.8444   -5.6588   21.3842 H         1 5CV         0.0238
     60 H20        -5.8840   -7.1120   21.5694 H         1 5CV         0.0238
     61 H21        -2.7939   -3.1480   21.1301 H         1 5CV         0.0461
     62 H22        -0.6598   -1.9086   21.2827 H         1 5CV         0.0513
     63 H23         1.9679   -2.0420   20.5095 H         1 5CV         0.2183
     64 H24         4.0704   -5.2140   17.8576 H         1 5CV         0.0625
     65 H25         6.1062   -1.3648   20.0424 H         1 5CV         0.2520
     66 H26         6.2261   -5.7240   17.0569 H         1 5CV         0.2118
     67 H27         6.6631   -6.8308   15.5019 H         1 5CV         0.1092
     68 H28        10.5458   -5.0224   15.6385 H         1 5CV         0.0690
     69 H29         8.3507   -8.8523   13.0905 H         1 5CV         0.0811
     70 H30         6.9494   -8.7993   14.2130 H         1 5CV         0.0811
     71 H31         7.3754   -9.5776   16.6592 H         1 5CV         0.0558
     72 H32         8.3291  -11.4548   18.0054 H         1 5CV         0.0599
     73 H33        10.1323  -12.8542   17.0167 H         1 5CV         0.0559
     74 H34        10.9600  -12.4260   14.7141 H         1 5CV         0.0599
     75 H35        10.0136  -10.5480   13.3739 H         1 5CV         0.0558
@<TRIPOS>BOND
     1    1    2 2  
     2    1   24 1  
     3   27    1 1  
     4    2   26 1  
     5    3    4 2  
     6   11    3 1  
     7    3   23 1  
     8    4   14 1  
     9   10    5 ar 
    10    5   20 1  
    11   21    5 ar 
    12   15    6 1  
    13   28    7 1  
    14    7   30 2  
    15    7   31 1  
    16   15    8 1  
    17    9   17 1  
    18   20    9 1  
    19   14   10 ar 
    20   24   11 2  
    21   11   25 1  
    22   25   12 2  
    23   13   14 ar 
    24   13   22 ar 
    25   23   13 1  
    26   16   15 1  
    27   17   16 1  
    28   17   18 1  
    29   17   19 1  
    30   22   21 ar 
    31   26   25 am 
    32   27   28 am 
    33   28   29 2  
    34   30   33 1  
    35   31   32 2  
    36   32   33 1  
    37   33   34 1  
    38   34   35 1  
    39   35   36 ar 
    40   35   40 ar 
    41   36   37 ar 
    42   37   38 ar 
    43   38   39 ar 
    44   39   40 ar 
    45    2   41 1  
    46    4   42 1  
    47    6   43 1  
    48    6   44 1  
    49    6   45 1  
    50    8   46 1  
    51    8   47 1  
    52    8   48 1  
    53    9   49 1  
    54    9   50 1  
    55   10   51 1  
    56   15   52 1  
    57   16   53 1  
    58   16   54 1  
    59   18   55 1  
    60   18   56 1  
    61   18   57 1  
    62   19   58 1  
    63   19   59 1  
    64   19   60 1  
    65   21   61 1  
    66   22   62 1  
    67   23   63 1  
    68   24   64 1  
    69   26   65 1  
    70   27   66 1  
    71   30   67 1  
    72   31   68 1  
    73   34   69 1  
    74   34   70 1  
    75   36   71 1  
    76   37   72 1  
    77   38   73 1  
    78   39   74 1  
    79   40   75 1  
@<TRIPOS>SUBSTRUCTURE
     1 5CV         1

