### 
### Created by X-TOOL on Mon Sep 10 21:13:28 2018
### 

@<TRIPOS>MOLECULE
5dlv_ligand
   78    81     1     0     0
SMALL
GAST_HUCK


@<TRIPOS>ATOM
      1 C1         47.1030   43.7610   12.2000 C.3       1 5D5        -0.0448
      2 C2         45.6710   43.3420   12.5240 C.3       1 5D5        -0.0263
      3 C3         44.6440   44.0490   11.6470 C.3       1 5D5         0.0555
      4 C4         44.8370   45.5580   11.7620 C.3       1 5D5        -0.0234
      5 C5         46.2350   45.9340   11.2830 C.3       1 5D5        -0.0307
      6 C6         46.4030   47.4540   11.2540 C.3       1 5D5        -0.0232
      7 C7         46.4960   48.0500   12.6590 C.3       1 5D5         0.0589
      8 C8         47.5600   47.3530   13.4990 C.3       1 5D5        -0.0083
      9 C9         47.2680   45.8580   13.5530 C.3       1 5D5        -0.0299
     10 C10        47.3050   45.2740   12.1460 C.3       1 5D5        -0.0258
     11 C11        48.2120   45.1120   14.5010 C.3       1 5D5        -0.0489
     12 O3         43.3170   43.6860   12.0530 O.3       1 5D5        -0.3918
     13 O25        53.0870   49.4700   20.7410 O.2       1 5D5        -0.3971
     14 C24        52.2710   49.9480   19.9660 C.2       1 5D5         0.1760
     15 N26        52.5010   51.0680   19.2770 N.am      1 5D5        -0.2855
     16 C25        53.7710   51.7710   19.3720 C.3       1 5D5         0.0472
     17 C26        53.5970   53.2510   19.6710 C.3       1 5D5         0.0508
     18 S27        52.5100   53.8550   18.5760 S.o2      1 5D5        -0.1896
     19 O30        51.3330   52.9590   18.5230 O.co2     1 5D5        -0.4845
     20 O28        53.1800   53.9020   17.2600 O.co2     1 5D5        -0.4845
     21 O29        52.0760   55.2120   18.9830 O.co2     1 5D5        -0.4845
     22 C23        50.9400   49.2610   19.7470 C.3       1 5D5         0.0375
     23 C22        50.5550   49.2470   18.2660 C.3       1 5D5        -0.0332
     24 C20        49.9650   47.8990   17.8460 C.3       1 5D5        -0.0385
     25 C21        49.6670   47.0340   19.0650 C.3       1 5D5        -0.0620
     26 C17        48.7010   48.0580   17.0080 C.3       1 5D5        -0.0326
     27 C13        48.6760   47.2110   15.7430 C.3       1 5D5        -0.0258
     28 C18        50.0240   47.3170   15.0370 C.3       1 5D5        -0.0590
     29 C14        47.6000   47.8860   14.9230 C.3       1 5D5        -0.0299
     30 C15        47.8690   49.3680   15.1110 C.3       1 5D5        -0.0491
     31 C16        48.4890   49.4840   16.5070 C.3       1 5D5        -0.0492
     32 C12        48.2840   45.7520   15.8910 C.3       1 5D5        -0.0468
     33 C19        48.6680   45.5760   11.5310 C.3       1 5D5        -0.0590
     34 O7         46.7990   49.4450   12.5690 O.3       1 5D5        -0.3915
     35 H1         47.3746   43.3397   11.2209 H         1 5D5         0.0271
     36 H2         47.7682   43.3497   12.9735 H         1 5D5         0.0271
     37 H3         45.4622   43.5836   13.5766 H         1 5D5         0.0290
     38 H4         45.5778   42.2566   12.3715 H         1 5D5         0.0290
     39 H5         44.7931   43.7454   10.6003 H         1 5D5         0.0593
     40 H6         44.7155   45.8635   12.8117 H         1 5D5         0.0293
     41 H7         44.0874   46.0711   11.1416 H         1 5D5         0.0293
     42 H8         46.3537   45.5607   10.2551 H         1 5D5         0.0308
     43 H9         45.5384   47.8965   10.7377 H         1 5D5         0.0293
     44 H10        47.3234   47.6986   10.7035 H         1 5D5         0.0293
     45 H11        45.5223   47.9269   13.1557 H         1 5D5         0.0596
     46 H12        48.5415   47.5164   13.0301 H         1 5D5         0.0331
     47 H13        46.2471   45.7315   13.9426 H         1 5D5         0.0310
     48 H14        49.2208   45.1094   14.0625 H         1 5D5         0.0268
     49 H15        47.8563   44.0767   14.6087 H         1 5D5         0.0268
     50 H16        43.2100   42.7451   11.9768 H         1 5D5         0.2098
     51 H17        51.7842   51.4319   18.6822 H         1 5D5         0.1851
     52 H18        54.3052   51.6648   18.4163 H         1 5D5         0.0535
     53 H19        54.3664   51.3162   20.1774 H         1 5D5         0.0535
     54 H20        54.5611   53.7708   19.5691 H         1 5D5         0.0488
     55 H21        53.2142   53.3853   20.6935 H         1 5D5         0.0488
     56 H22        50.1636   49.7962   20.3134 H         1 5D5         0.0502
     57 H23        51.0087   48.2244   20.1085 H         1 5D5         0.0502
     58 H24        51.4528   49.4464   17.6626 H         1 5D5         0.0292
     59 H25        49.8088   50.0345   18.0844 H         1 5D5         0.0292
     60 H26        50.7163   47.3812   17.2317 H         1 5D5         0.0302
     61 H27        49.2446   46.0724   18.7378 H         1 5D5         0.0233
     62 H28        48.9438   47.5505   19.7132 H         1 5D5         0.0233
     63 H29        50.5974   46.8546   19.6237 H         1 5D5         0.0233
     64 H30        47.8517   47.7704   17.6452 H         1 5D5         0.0309
     65 H31        50.0081   46.7057   14.1226 H         1 5D5         0.0235
     66 H32        50.8181   46.9547   15.7065 H         1 5D5         0.0235
     67 H33        50.2179   48.3670   14.7727 H         1 5D5         0.0235
     68 H34        46.6181   47.6629   15.3657 H         1 5D5         0.0310
     69 H35        46.9318   49.9412   15.0553 H         1 5D5         0.0268
     70 H36        48.5689   49.7342   14.3455 H         1 5D5         0.0268
     71 H37        49.4511   50.0144   16.4524 H         1 5D5         0.0268
     72 H38        47.8091   50.0262   17.1807 H         1 5D5         0.0268
     73 H39        49.0355   45.2281   16.4999 H         1 5D5         0.0271
     74 H40        47.3016   45.6819   16.3808 H         1 5D5         0.0271
     75 H41        48.7113   45.1605   10.5134 H         1 5D5         0.0235
     76 H42        49.4573   45.1204   12.1469 H         1 5D5         0.0235
     77 H43        48.8182   46.6649   11.4891 H         1 5D5         0.0235
     78 H44        47.6496   49.5575   12.1611 H         1 5D5         0.2098
@<TRIPOS>BOND
     1    1    2 1  
     2   10    1 1  
     3    2    3 1  
     4    4    3 1  
     5    3   12 1  
     6    5    4 1  
     7    6    5 1  
     8   10    5 1  
     9    7    6 1  
    10    8    7 1  
    11    7   34 1  
    12    8    9 1  
    13   29    8 1  
    14    9   10 1  
    15    9   11 1  
    16   10   33 1  
    17   11   32 1  
    18   14   13 2  
    19   14   15 am 
    20   22   14 1  
    21   15   16 1  
    22   16   17 1  
    23   17   18 1  
    24   18   19 ar 
    25   18   20 ar 
    26   18   21 ar 
    27   23   22 1  
    28   24   23 1  
    29   24   25 1  
    30   26   24 1  
    31   27   26 1  
    32   26   31 1  
    33   27   28 1  
    34   27   29 1  
    35   27   32 1  
    36   29   30 1  
    37   30   31 1  
    38    1   35 1  
    39    1   36 1  
    40    2   37 1  
    41    2   38 1  
    42    3   39 1  
    43    4   40 1  
    44    4   41 1  
    45    5   42 1  
    46    6   43 1  
    47    6   44 1  
    48    7   45 1  
    49    8   46 1  
    50    9   47 1  
    51   11   48 1  
    52   11   49 1  
    53   12   50 1  
    54   15   51 1  
    55   16   52 1  
    56   16   53 1  
    57   17   54 1  
    58   17   55 1  
    59   22   56 1  
    60   22   57 1  
    61   23   58 1  
    62   23   59 1  
    63   24   60 1  
    64   25   61 1  
    65   25   62 1  
    66   25   63 1  
    67   26   64 1  
    68   28   65 1  
    69   28   66 1  
    70   28   67 1  
    71   29   68 1  
    72   30   69 1  
    73   30   70 1  
    74   31   71 1  
    75   31   72 1  
    76   32   73 1  
    77   32   74 1  
    78   33   75 1  
    79   33   76 1  
    80   33   77 1  
    81   34   78 1  
@<TRIPOS>SUBSTRUCTURE
     1 5D5         1

