### 
### Created by X-TOOL on Mon Sep 10 21:13:25 2018
### 

@<TRIPOS>MOLECULE
5dlx_ligand
   69    73     1     0     0
SMALL
GAST_HUCK


@<TRIPOS>ATOM
      1 CAB        -6.7750    7.2960    3.2610 C.ar      1 5D2        -0.0306
      2 CAA        -5.6910    8.1470    3.0040 C.ar      1 5D2         0.0288
      3 CL         -4.9590    8.5140    4.2430 Cl        1 5D2        -0.0742
      4 CAF        -5.1920    8.5320    1.7740 C.ar      1 5D2        -0.0612
      5 CAE        -5.9070    8.1450    0.6720 C.ar      1 5D2        -0.0731
      6 CAD        -7.0240    7.3560    0.9010 C.ar      1 5D2        -0.0442
      7 CAC        -7.4990    6.9240    2.1700 C.ar      1 5D2         0.0410
      8 NAH        -8.5920    6.1520    2.2850 N.pl3     1 5D2        -0.2987
      9 CAM        -9.0800    5.3970    1.1110 C.3       1 5D2         0.0669
     10 CAL       -10.3770    5.8990    0.7880 C.3       1 5D2        -0.0117
     11 CAI        -9.3850    6.0470    3.5210 C.3       1 5D2         0.0669
     12 CAJ       -10.8100    6.2840    3.2100 C.3       1 5D2        -0.0117
     13 NAK       -11.2220    5.6280    1.9740 N.4       1 5D2         0.2381
     14 CAN       -12.6660    5.8620    1.8820 C.3       1 5D2        -0.0299
     15 CAO       -13.3160    5.4290    0.5890 C.3       1 5D2         0.0077
     16 CAP       -13.2160    6.5280   -0.3590 C.3       1 5D2         0.0357
     17 NAQ       -14.4060    6.6850   -1.1430 N.am      1 5D2        -0.2865
     18 CAR       -14.6700    7.8710   -1.6740 C.2       1 5D2         0.1792
     19 OAT       -14.0330    8.9260   -1.4500 O.2       1 5D2        -0.3968
     20 CAS       -15.8020    7.7670   -2.6670 C.3       1 5D2         0.0522
     21 CAY       -15.1220    7.2510   -3.9890 C.3       1 5D2        -0.0132
     22 CAX       -15.8570    7.5600   -5.3120 C.3       1 5D2         0.0319
     23 CAU       -16.5350    9.1210   -2.7570 C.3       1 5D2        -0.0132
     24 CAV       -17.4360    8.9770   -3.9770 C.3       1 5D2         0.0319
     25 NAW       -16.5100    8.8850   -5.1820 N.pl3     1 5D2        -0.2899
     26 CAZ       -16.0820    9.9460   -5.8560 C.2       1 5D2         0.1493
     27 NBE       -15.3300    9.7790   -6.9650 N.2       1 5D2        -0.1432
     28 NBD       -14.8100   10.8920   -7.5980 N.pl3     1 5D2        -0.1175
     29 CBH       -14.0330   10.9880   -8.6570 C.2       1 5D2         0.1602
     30 CBI       -13.5850    9.7670   -9.4350 C.3       1 5D2         0.0171
     31 NBG       -13.7930   12.2720   -8.9870 N.2       1 5D2        -0.2718
     32 NBF       -14.4750   13.0140   -8.0550 N.2       1 5D2        -0.2819
     33 CBC       -15.0860   12.1520   -7.2070 C.2       1 5D2         0.1714
     34 CBB       -15.8910   12.3210   -6.1270 C.2       1 5D2         0.0058
     35 CBA       -16.3890   11.2460   -5.3690 C.2       1 5D2         0.0009
     36 H1         -7.0201    6.9571    4.2611 H         1 5D2         0.0520
     37 H2         -4.2801    9.1114    1.6860 H         1 5D2         0.0511
     38 H3         -5.6144    8.4406   -0.3290 H         1 5D2         0.0583
     39 H4         -7.5880    7.0387    0.0313 H         1 5D2         0.0517
     40 H5         -9.1412    4.3255    1.3522 H         1 5D2         0.0567
     41 H6         -8.3981    5.5430    0.2603 H         1 5D2         0.0567
     42 H7        -10.7792    5.3810   -0.0951 H         1 5D2         0.0834
     43 H8        -10.3308    6.9800    0.5897 H         1 5D2         0.0834
     44 H9         -9.0374    6.7983    4.2453 H         1 5D2         0.0567
     45 H10        -9.2651    5.0412    3.9499 H         1 5D2         0.0567
     46 H11       -10.9748    7.3668    3.1080 H         1 5D2         0.0834
     47 H12       -11.4222    5.8963    4.0376 H         1 5D2         0.0834
     48 H13       -11.1130    4.6375    2.1261 H         1 5D2         0.2035
     49 H14       -12.8426    6.9407    2.0049 H         1 5D2         0.0815
     50 H15       -13.1506    5.3150    2.7042 H         1 5D2         0.0815
     51 H16       -14.3739    5.1856    0.7670 H         1 5D2         0.0336
     52 H17       -12.7984    4.5443    0.1897 H         1 5D2         0.0336
     53 H18       -12.3705    6.3348   -1.0356 H         1 5D2         0.0522
     54 H19       -13.0347    7.4592    0.1978 H         1 5D2         0.0522
     55 H20       -15.0260    5.9137   -1.2869 H         1 5D2         0.1851
     56 H21       -16.5306    7.0148   -2.3303 H         1 5D2         0.0539
     57 H22       -15.0241    6.1583   -3.9092 H         1 5D2         0.0311
     58 H23       -14.1220    7.7053   -4.0490 H         1 5D2         0.0311
     59 H24       -16.6166    6.7881   -5.5048 H         1 5D2         0.0518
     60 H25       -15.1359    7.5804   -6.1424 H         1 5D2         0.0518
     61 H26       -15.8186    9.9441   -2.8959 H         1 5D2         0.0311
     62 H27       -17.1314    9.3029   -1.8508 H         1 5D2         0.0311
     63 H28       -18.0955    9.8525   -4.0692 H         1 5D2         0.0518
     64 H29       -18.0461    8.0654   -3.8948 H         1 5D2         0.0518
     65 H30       -12.9467   10.0808  -10.2741 H         1 5D2         0.0456
     66 H31       -14.4665    9.2360   -9.8235 H         1 5D2         0.0456
     67 H32       -13.0165    9.0981   -8.7722 H         1 5D2         0.0456
     68 H33       -16.1633   13.3340   -5.8345 H         1 5D2         0.0755
     69 H34       -16.9744   11.4001   -4.4637 H         1 5D2         0.0704
@<TRIPOS>BOND
     1    1    2 ar 
     2    1    7 ar 
     3    2    3 1  
     4    2    4 ar 
     5    4    5 ar 
     6    5    6 ar 
     7    6    7 ar 
     8    7    8 1  
     9    8    9 1  
    10    8   11 1  
    11    9   10 1  
    12   10   13 1  
    13   11   12 1  
    14   12   13 1  
    15   13   14 1  
    16   14   15 1  
    17   15   16 1  
    18   16   17 1  
    19   17   18 am 
    20   18   19 2  
    21   18   20 1  
    22   20   21 1  
    23   20   23 1  
    24   21   22 1  
    25   22   25 1  
    26   23   24 1  
    27   24   25 1  
    28   25   26 1  
    29   26   27 2  
    30   26   35 1  
    31   27   28 1  
    32   28   29 1  
    33   28   33 1  
    34   29   30 1  
    35   29   31 2  
    36   31   32 1  
    37   32   33 2  
    38   33   34 1  
    39   34   35 2  
    40    1   36 1  
    41    4   37 1  
    42    5   38 1  
    43    6   39 1  
    44    9   40 1  
    45    9   41 1  
    46   10   42 1  
    47   10   43 1  
    48   11   44 1  
    49   11   45 1  
    50   12   46 1  
    51   12   47 1  
    52   13   48 1  
    53   14   49 1  
    54   14   50 1  
    55   15   51 1  
    56   15   52 1  
    57   16   53 1  
    58   16   54 1  
    59   17   55 1  
    60   20   56 1  
    61   21   57 1  
    62   21   58 1  
    63   22   59 1  
    64   22   60 1  
    65   23   61 1  
    66   23   62 1  
    67   24   63 1  
    68   24   64 1  
    69   30   65 1  
    70   30   66 1  
    71   30   67 1  
    72   34   68 1  
    73   35   69 1  
@<TRIPOS>SUBSTRUCTURE
     1 5D2         1

