### 
### Created by X-TOOL on Mon Sep 10 21:13:30 2018
### 

@<TRIPOS>MOLECULE
5dlz_ligand
   70    73     1     0     0
SMALL
GAST_HUCK


@<TRIPOS>ATOM
      1 CBG       -11.8060  -21.3210    3.2870 C.3       1 5D1        -0.0327
      2 CBC       -11.0030  -20.3500    2.6980 C.ar      1 5D1        -0.0527
      3 CBB       -10.1540  -19.5830    3.5050 C.ar      1 5D1        -0.0544
      4 CBD       -11.0210  -20.1300    1.3050 C.ar      1 5D1        -0.0675
      5 CBE       -10.2130  -19.1400    0.7250 C.ar      1 5D1        -0.0750
      6 CBF        -9.3530  -18.3730    1.5420 C.ar      1 5D1        -0.0622
      7 CBA        -9.3270  -18.5750    2.9480 C.ar      1 5D1        -0.0054
      8 CAZ        -8.4520  -17.8260    3.7750 C.3       1 5D1         0.0003
      9 NAW        -9.0560  -16.5720    4.3550 N.4       1 5D1         0.2471
     10 CAX       -10.0960  -16.8060    5.3990 C.3       1 5D1        -0.0302
     11 CAY       -11.1150  -15.6770    5.4250 C.3       1 5D1        -0.0077
     12 CAV        -9.4200  -15.6200    3.2780 C.3       1 5D1        -0.0302
     13 CAU        -9.5740  -14.2320    3.8630 C.3       1 5D1        -0.0077
     14 CAT       -10.3920  -14.3020    5.1970 C.3       1 5D1        -0.0112
     15 CBH       -11.4260  -13.1360    5.2300 C.3       1 5D1         0.0341
     16 NAR       -10.6380  -11.8830    5.2620 N.am      1 5D1        -0.2867
     17 CAQ       -11.0300  -10.6160    4.9760 C.2       1 5D1         0.1761
     18 OAS       -10.1510   -9.7550    5.1320 O.2       1 5D1        -0.3971
     19 CAP       -12.4990  -10.2780    4.3760 C.3       1 5D1         0.0397
     20 CAO       -12.9820   -8.9150    4.9240 C.3       1 5D1        -0.0073
     21 CAN       -13.6030   -7.9950    3.8480 C.3       1 5D1         0.0769
     22 OAM       -12.5520   -7.7370    2.8570 O.3       1 5D1        -0.3084
     23 CAJ       -12.6490   -6.8170    1.8140 C.2       1 5D1         0.1076
     24 CAB       -11.4610   -6.6100    1.0600 C.ar      1 5D1         0.0503
     25 CAC       -10.2740   -7.2750    1.3800 C.ar      1 5D1        -0.0559
     26 CAD        -9.1460   -7.0810    0.6110 C.ar      1 5D1        -0.0703
     27 CAE        -9.1680   -6.2160   -0.4690 C.ar      1 5D1        -0.0695
     28 CAF       -10.3090   -5.5160   -0.7950 C.ar      1 5D1        -0.0318
     29 CAA       -11.4690   -5.6500    0.0040 C.ar      1 5D1         0.0936
     30 NAG       -12.6460   -4.9910   -0.3240 N.am      1 5D1        -0.2229
     31 CAK       -12.6180   -4.0010   -1.4420 C.3       1 5D1         0.0483
     32 CAH       -13.7870   -5.1380    0.3740 C.2       1 5D1         0.1875
     33 OAL       -14.7990   -4.4570    0.0930 O.2       1 5D1        -0.4184
     34 CAI       -13.8030   -6.0590    1.4630 C.2       1 5D1         0.0204
     35 H1        -11.6379  -21.3258    4.3741 H         1 5D1         0.0390
     36 H2        -11.5521  -22.3077    2.8724 H         1 5D1         0.0390
     37 H3        -12.8630  -21.0974    3.0805 H         1 5D1         0.0390
     38 H4        -10.1285  -19.7629    4.5737 H         1 5D1         0.0496
     39 H5        -11.6660  -20.7322    0.6755 H         1 5D1         0.0499
     40 H6        -10.2486  -18.9648   -0.3442 H         1 5D1         0.0582
     41 H7         -8.7088  -17.6255    1.0933 H         1 5D1         0.0501
     42 H8         -7.5753  -17.5390    3.1758 H         1 5D1         0.0979
     43 H9         -8.1322  -18.4696    4.6078 H         1 5D1         0.0979
     44 H10        -8.3035  -16.1236    4.8537 H         1 5D1         0.2048
     45 H11        -9.6082  -16.8714    6.3827 H         1 5D1         0.0815
     46 H12       -10.6143  -17.7519    5.1831 H         1 5D1         0.0815
     47 H13       -11.6222  -15.6653    6.4010 H         1 5D1         0.0320
     48 H14       -11.8566  -15.8360    4.6283 H         1 5D1         0.0320
     49 H15       -10.3695  -15.9317    2.8184 H         1 5D1         0.0815
     50 H16        -8.6286  -15.6103    2.5141 H         1 5D1         0.0815
     51 H17       -10.1038  -13.5901    3.1439 H         1 5D1         0.0320
     52 H18        -8.5789  -13.8101    4.0674 H         1 5D1         0.0320
     53 H19        -9.6853  -14.1601    6.0280 H         1 5D1         0.0324
     54 H20       -12.0573  -13.2120    6.1276 H         1 5D1         0.0523
     55 H21       -12.0606  -13.1640    4.3319 H         1 5D1         0.0523
     56 H22        -9.6808  -11.9850    5.5329 H         1 5D1         0.1851
     57 H23       -13.2069  -11.0647    4.6759 H         1 5D1         0.0503
     58 H24       -12.4446  -10.2327    3.2783 H         1 5D1         0.0503
     59 H25       -12.1209   -8.3954    5.3696 H         1 5D1         0.0316
     60 H26       -13.7392   -9.1016    5.6997 H         1 5D1         0.0316
     61 H27       -13.9354   -7.0502    4.3028 H         1 5D1         0.0625
     62 H28       -14.4596   -8.4938    3.3711 H         1 5D1         0.0625
     63 H29       -10.2402   -7.9433    2.2328 H         1 5D1         0.0623
     64 H30        -8.2327   -7.6115    0.8549 H         1 5D1         0.0515
     65 H31        -8.2736   -6.0872   -1.0678 H         1 5D1         0.0615
     66 H32       -10.3180   -4.8644   -1.6612 H         1 5D1         0.0527
     67 H33       -11.6214   -4.0018   -1.9075 H         1 5D1         0.0569
     68 H34       -12.8382   -2.9976   -1.0488 H         1 5D1         0.0569
     69 H35       -13.3737   -4.2746   -2.1931 H         1 5D1         0.0569
     70 H36       -14.7183   -6.1856    2.0393 H         1 5D1         0.0348
@<TRIPOS>BOND
     1    1    2 1  
     2    2    3 ar 
     3    2    4 ar 
     4    3    7 ar 
     5    4    5 ar 
     6    5    6 ar 
     7    6    7 ar 
     8    7    8 1  
     9    8    9 1  
    10    9   10 1  
    11    9   12 1  
    12   10   11 1  
    13   11   14 1  
    14   12   13 1  
    15   13   14 1  
    16   14   15 1  
    17   15   16 1  
    18   16   17 am 
    19   17   18 2  
    20   17   19 1  
    21   19   20 1  
    22   20   21 1  
    23   21   22 1  
    24   22   23 1  
    25   23   24 1  
    26   23   34 2  
    27   24   25 ar 
    28   24   29 ar 
    29   25   26 ar 
    30   26   27 ar 
    31   27   28 ar 
    32   28   29 ar 
    33   29   30 1  
    34   30   31 1  
    35   30   32 am 
    36   32   33 2  
    37   32   34 1  
    38    1   35 1  
    39    1   36 1  
    40    1   37 1  
    41    3   38 1  
    42    4   39 1  
    43    5   40 1  
    44    6   41 1  
    45    8   42 1  
    46    8   43 1  
    47    9   44 1  
    48   10   45 1  
    49   10   46 1  
    50   11   47 1  
    51   11   48 1  
    52   12   49 1  
    53   12   50 1  
    54   13   51 1  
    55   13   52 1  
    56   14   53 1  
    57   15   54 1  
    58   15   55 1  
    59   16   56 1  
    60   19   57 1  
    61   19   58 1  
    62   20   59 1  
    63   20   60 1  
    64   21   61 1  
    65   21   62 1  
    66   25   63 1  
    67   26   64 1  
    68   27   65 1  
    69   28   66 1  
    70   31   67 1  
    71   31   68 1  
    72   31   69 1  
    73   34   70 1  
@<TRIPOS>SUBSTRUCTURE
     1 5D1         1

