### 
### Created by X-TOOL on Mon Sep 10 21:13:26 2018
### 

@<TRIPOS>MOLECULE
5dnu_ligand
   19    20     1     0     0
SMALL
GAST_HUCK


@<TRIPOS>ATOM
      1 O01        16.2080  -14.2280    1.9920 O.3       1 KKN        -0.3280
      2 C02        15.8260  -15.5860    2.1180 C.2       1 KKN         0.0770
      3 C03        15.4860  -16.0340    3.3770 C.2       1 KKN         0.1239
      4 C04        15.4200  -15.2590    4.4730 C.2       1 KKN        -0.0133
      5 C05        15.7800  -13.9570    4.3540 C.2       1 KKN        -0.0652
      6 C06        16.1540  -13.4500    3.1030 C.3       1 KKN         0.0813
      7 C07        15.0520  -16.0800    5.4920 C.3       1 KKN         0.0828
      8 C08        14.8710  -17.2970    4.9540 C.2       1 KKN         0.2588
      9 O09        14.5260  -18.3370    5.5190 O.2       1 KKN        -0.3651
     10 O10        15.1260  -17.2540    3.6330 O.3       1 KKN        -0.2347
     11 C11        14.8200  -15.7570    6.9730 C.3       1 KKN        -0.0372
     12 H1         15.8018  -16.2498    1.2551 H         1 KKN         0.0835
     13 H2         15.7783  -13.3077    5.2283 H         1 KKN         0.0403
     14 H3         15.4449  -12.6403    2.8760 H         1 KKN         0.0732
     15 H4         17.1621  -13.0292    3.2318 H         1 KKN         0.0732
     16 H5         16.1030  -16.2891    5.7401 H         1 KKN         0.0670
     17 H6         15.0383  -14.6944    7.1551 H         1 KKN         0.0275
     18 H7         15.4833  -16.3788    7.5922 H         1 KKN         0.0275
     19 H8         13.7721  -15.9660    7.2341 H         1 KKN         0.0275
@<TRIPOS>BOND
     1    1    2 1  
     2    1    6 1  
     3    2    3 2  
     4    3    4 1  
     5    3   10 1  
     6    4    5 2  
     7    4    7 1  
     8    5    6 1  
     9    7    8 1  
    10    7   11 1  
    11    8    9 2  
    12    8   10 1  
    13    2   12 1  
    14    5   13 1  
    15    6   14 1  
    16    6   15 1  
    17    7   16 1  
    18   11   17 1  
    19   11   18 1  
    20   11   19 1  
@<TRIPOS>SUBSTRUCTURE
     1 KKN         1

