### 
### Created by X-TOOL on Mon Sep 10 21:13:26 2018
### 

@<TRIPOS>MOLECULE
5doh_ligand
   44    46     1     0     0
SMALL
GAST_HUCK


@<TRIPOS>ATOM
      1 F13        -5.3030    5.4240    3.9690 F         1 5DU        -0.2021
      2 C9         -4.9380    5.2180    2.6770 C.ar      1 5DU         0.1551
      3 C8         -4.5620    6.3600    2.0100 C.ar      1 5DU         0.0695
      4 S24        -4.6270    7.8240    2.8990 S.3       1 5DU        -0.1047
      5 C25        -2.9840    7.7460    3.0500 C.3       1 5DU         0.0286
      6 C26        -2.8830    9.0120    3.9520 C.3       1 5DU         0.0551
      7 O27        -3.4320    8.9020    5.2630 O.3       1 5DU        -0.3940
      8 C7         -4.1610    6.2400    0.7220 C.ar      1 5DU         0.1621
      9 F12        -3.7070    7.3600    0.1490 F         1 5DU        -0.2011
     10 C6         -4.2460    5.0590    0.0740 C.ar      1 5DU         0.1706
     11 F11        -3.8420    5.1440   -1.2170 F         1 5DU        -0.1907
     12 C10        -5.0970    3.9820    2.1010 C.ar      1 5DU         0.0890
     13 C5         -4.7490    3.9450    0.7590 C.ar      1 5DU         0.1482
     14 S1         -4.7350    2.4260   -0.2420 S.o2      1 5DU         0.0583
     15 O3         -5.9720    2.2130   -1.1250 O.2       1 5DU        -0.1540
     16 N4         -4.6290    0.9120    0.6640 N.am      1 5DU        -0.2638
     17 O2         -3.5610    2.3340   -1.2320 O.2       1 5DU        -0.1540
     18 N14        -5.6220    2.8240    2.7330 N.pl3     1 5DU        -0.3125
     19 C15        -5.8530    2.8000    4.2100 C.3       1 5DU         0.0666
     20 C19        -6.3200    1.4220    4.3910 C.ar      1 5DU        -0.0168
     21 C20        -5.5970    0.3100    4.2280 C.ar      1 5DU        -0.0647
     22 C21        -6.2090   -0.9960    4.3410 C.ar      1 5DU        -0.0754
     23 C22        -7.5970   -1.0980    4.4930 C.ar      1 5DU        -0.0755
     24 C23        -8.3320    0.1160    4.6770 C.ar      1 5DU        -0.0668
     25 C18        -7.6680    1.3660    4.5900 C.ar      1 5DU        -0.0387
     26 C17        -8.2980    2.7320    4.6900 C.3       1 5DU        -0.0179
     27 C16        -7.0530    3.6430    4.7240 C.3       1 5DU        -0.0132
     28 H1         -2.4573    7.8572    2.0907 H         1 5DU         0.0422
     29 H2         -2.6404    6.8300    3.5529 H         1 5DU         0.0422
     30 H3         -3.4062    9.8318    3.4379 H         1 5DU         0.0567
     31 H4         -1.8175    9.2649    4.0556 H         1 5DU         0.0567
     32 H5         -3.3173    9.7251    5.7233 H         1 5DU         0.2094
     33 H6         -4.6166    0.0382    0.1779 H         1 5DU         0.1631
     34 H7         -4.5814    0.9292    1.6627 H         1 5DU         0.1631
     35 H8         -5.8459    1.9922    2.1683 H         1 5DU         0.1759
     36 H9         -4.9344    3.0420    4.7646 H         1 5DU         0.0694
     37 H10        -4.5383    0.3876    4.0083 H         1 5DU         0.0538
     38 H11        -5.5967   -1.8899    4.3082 H         1 5DU         0.0541
     39 H12        -8.0960   -2.0601    4.4721 H         1 5DU         0.0541
     40 H13        -9.3957    0.0801    4.8828 H         1 5DU         0.0537
     41 H14        -8.8950    2.8330    5.6084 H         1 5DU         0.0413
     42 H15        -8.9302    2.9480    3.8161 H         1 5DU         0.0413
     43 H16        -7.2069    4.5160    4.0727 H         1 5DU         0.0328
     44 H17        -6.8622    3.9822    5.7528 H         1 5DU         0.0328
@<TRIPOS>BOND
     1    1    2 1  
     2    2    3 ar 
     3    2   12 ar 
     4    3    4 1  
     5    3    8 ar 
     6    4    5 1  
     7    5    6 1  
     8    6    7 1  
     9    8    9 1  
    10    8   10 ar 
    11   10   11 1  
    12   10   13 ar 
    13   12   13 ar 
    14   12   18 1  
    15   13   14 1  
    16   14   15 2  
    17   14   16 am 
    18   14   17 2  
    19   18   19 1  
    20   19   20 1  
    21   19   27 1  
    22   20   21 ar 
    23   20   25 ar 
    24   21   22 ar 
    25   22   23 ar 
    26   23   24 ar 
    27   24   25 ar 
    28   25   26 1  
    29   26   27 1  
    30    5   28 1  
    31    5   29 1  
    32    6   30 1  
    33    6   31 1  
    34    7   32 1  
    35   16   33 1  
    36   16   34 1  
    37   18   35 1  
    38   19   36 1  
    39   21   37 1  
    40   22   38 1  
    41   23   39 1  
    42   24   40 1  
    43   26   41 1  
    44   26   42 1  
    45   27   43 1  
    46   27   44 1  
@<TRIPOS>SUBSTRUCTURE
     1 5DU         1

