### 
### Created by X-TOOL on Mon Sep 10 21:13:29 2018
### 

@<TRIPOS>MOLECULE
5dp4_ligand
   57    58     1     0     0
SMALL
GAST_HUCK


@<TRIPOS>ATOM
      1 O1         29.9940    3.9810   21.6770 O.2       1 5E8        -0.3968
      2 O2         24.9840    6.3860   28.0940 O.3       1 5E8        -0.2771
      3 C3         23.3670    2.1010   26.2280 C.3       1 5E8         0.0003
      4 C5         21.9660    0.7480   27.8820 C.ar      1 5E8        -0.0602
      5 C7         20.3530   -0.9060   27.1690 C.ar      1 5E8        -0.0687
      6 C8         20.6920   -0.6210   25.8340 C.ar      1 5E8        -0.0686
      7 C12        28.7490    3.4600   23.7060 C.3       1 5E8         0.0525
      8 C9         21.6750    0.3490   25.5150 C.ar      1 5E8        -0.0602
      9 C13        29.9520    3.5720   22.8140 C.2       1 5E8         0.1792
     10 C14        25.7450    5.8590   24.3290 C.3       1 5E8        -0.0115
     11 C15        24.9140    6.0590   25.5910 C.3       1 5E8         0.0508
     12 C16        25.7130    6.4910   26.8240 C.2       1 5E8         0.2338
     13 C17        25.5660    2.7640   25.5960 C.2       1 5E8         0.1810
     14 C18        25.6050    6.4180   29.3880 C.3       1 5E8         0.0740
     15 O3         26.8790    6.9430   26.8040 O.2       1 5E8        -0.3704
     16 C19        26.8120    5.4800   29.4760 C.3       1 5E8        -0.0371
     17 C10        26.6960    4.6560   24.5260 C.3       1 5E8         0.0465
     18 C11        27.7110    4.5320   23.4050 C.3       1 5E8        -0.0099
     19 C26        29.3720    3.5810   25.0800 C.3       1 5E8        -0.0129
     20 C25        30.7400    2.9410   24.9100 C.3       1 5E8         0.0332
     21 N1         30.9710    3.1550   23.4890 N.am      1 5E8        -0.2866
     22 N          25.8160    3.4750   24.4660 N.am      1 5E8        -0.2832
     23 O4         26.0510    3.0400   26.6820 O.2       1 5E8        -0.3966
     24 C2         24.6000    1.6190   25.4770 C.3       1 5E8         0.0553
     25 C1         25.2600    0.3710   26.0090 C.3       1 5E8        -0.0435
     26 C4         22.3210    1.0390   26.5390 C.ar      1 5E8        -0.0405
     27 C6         20.9920   -0.2150   28.2050 C.ar      1 5E8        -0.0686
     28 H1         22.8852    2.8808   25.6199 H         1 5E8         0.0453
     29 H2         23.7014    2.5344   27.1821 H         1 5E8         0.0453
     30 H3         22.4605    1.2842   28.6839 H         1 5E8         0.0557
     31 H4         19.6025   -1.6552   27.3938 H         1 5E8         0.0559
     32 H5         20.1916   -1.1537   25.0334 H         1 5E8         0.0599
     33 H6         28.2713    2.4760   23.5901 H         1 5E8         0.0539
     34 H7         21.9230    0.5531   24.4797 H         1 5E8         0.0557
     35 H8         26.3360    6.7654   24.1311 H         1 5E8         0.0313
     36 H9         25.0773    5.6633   23.4770 H         1 5E8         0.0313
     37 H10        24.4119    5.1085   25.8244 H         1 5E8         0.0519
     38 H11        24.1588    6.8317   25.3846 H         1 5E8         0.0519
     39 H12        24.8651    6.1143   30.1432 H         1 5E8         0.0610
     40 H13        25.9395    7.4453   29.5947 H         1 5E8         0.0610
     41 H14        27.2509    5.5407   30.4828 H         1 5E8         0.0255
     42 H15        27.5633    5.7782   28.7300 H         1 5E8         0.0255
     43 H16        26.4890    4.4472   29.2785 H         1 5E8         0.0255
     44 H17        27.2128    4.7261   25.4945 H         1 5E8         0.0559
     45 H18        27.1856    4.2693   22.4750 H         1 5E8         0.0315
     46 H19        28.2217    5.4978   23.2773 H         1 5E8         0.0315
     47 H20        28.7762    3.0406   25.8303 H         1 5E8         0.0312
     48 H21        29.4662    4.6359   25.3770 H         1 5E8         0.0312
     49 H22        30.7188    1.8698   25.1591 H         1 5E8         0.0521
     50 H23        31.5011    3.4452   25.5235 H         1 5E8         0.0521
     51 H24        31.8606    2.9899   23.0632 H         1 5E8         0.1851
     52 H25        25.4049    3.1985   23.5973 H         1 5E8         0.1854
     53 H26        24.3340    1.4439   24.4241 H         1 5E8         0.0558
     54 H27        26.1334    0.1247   25.3873 H         1 5E8         0.0258
     55 H28        24.5434   -0.4631   25.9814 H         1 5E8         0.0258
     56 H29        25.5845    0.5414   27.0461 H         1 5E8         0.0258
     57 H30        20.7406   -0.4184   29.2397 H         1 5E8         0.0599
@<TRIPOS>BOND
     1    9    1 2  
     2   12    2 1  
     3    2   14 1  
     4   24    3 1  
     5    3   26 1  
     6   26    4 ar 
     7    4   27 ar 
     8    6    5 ar 
     9   27    5 ar 
    10    8    6 ar 
    11    7    9 1  
    12   18    7 1  
    13    7   19 1  
    14   26    8 ar 
    15    9   21 am 
    16   10   11 1  
    17   17   10 1  
    18   11   12 1  
    19   12   15 2  
    20   22   13 am 
    21   13   23 2  
    22   13   24 1  
    23   14   16 1  
    24   17   18 1  
    25   17   22 1  
    26   19   20 1  
    27   20   21 1  
    28   24   25 1  
    29    3   28 1  
    30    3   29 1  
    31    4   30 1  
    32    5   31 1  
    33    6   32 1  
    34    7   33 1  
    35    8   34 1  
    36   10   35 1  
    37   10   36 1  
    38   11   37 1  
    39   11   38 1  
    40   14   39 1  
    41   14   40 1  
    42   16   41 1  
    43   16   42 1  
    44   16   43 1  
    45   17   44 1  
    46   18   45 1  
    47   18   46 1  
    48   19   47 1  
    49   19   48 1  
    50   20   49 1  
    51   20   50 1  
    52   21   51 1  
    53   22   52 1  
    54   24   53 1  
    55   25   54 1  
    56   25   55 1  
    57   25   56 1  
    58   27   57 1  
@<TRIPOS>SUBSTRUCTURE
     1 5E8         1

