### 
### Created by X-TOOL on Mon Sep 10 21:13:29 2018
### 

@<TRIPOS>MOLECULE
5dp5_ligand
   74    75     1     0     0
SMALL
GAST_HUCK


@<TRIPOS>ATOM
      1 C2         -7.8730   -7.1970   -1.3800 C.3       1 5E9         0.0735
      2 C3         -9.0960   -6.3860   -1.7790 C.3       1 5E9         0.0009
      3 C4        -10.2770   -6.4130   -0.8240 C.ar      1 5E9        -0.0442
      4 C5        -10.6030   -5.2630   -0.0980 C.ar      1 5E9        -0.0618
      5 C6        -11.6840   -5.2470    0.7730 C.ar      1 5E9        -0.0349
      6 C7        -12.4630   -6.3880    0.9460 C.ar      1 5E9         0.1248
      7 C8        -12.1530   -7.5390    0.1990 C.ar      1 5E9        -0.0349
      8 O1         -2.9930  -11.0650   -3.7790 O.2       1 5E9        -0.3968
      9 N1         -1.6640   -9.3090   -3.0470 N.am      1 5E9        -0.2866
     10 N2         -4.1030   -7.9420    2.0560 N.4       1 5E9         0.2375
     11 N          -6.9590   -8.1440   -3.4490 N.am      1 5E9        -0.2831
     12 C          -5.9320   -7.4660    0.3740 C.2       1 5E9         0.1551
     13 O          -5.4040   -8.3680   -0.2830 O.2       1 5E9        -0.3854
     14 O3         -6.1280   -5.8600   -7.1410 O.2       1 5E9        -0.3704
     15 C16        -7.0330   -5.8790   -6.3190 C.2       1 5E9         0.2338
     16 O2         -7.3590   -4.6450   -5.6590 O.3       1 5E9        -0.2771
     17 C18        -7.3660   -3.5230   -6.5340 C.3       1 5E9         0.0740
     18 C19        -8.5220   -3.6850   -7.5150 C.3       1 5E9        -0.0371
     19 C15        -7.8380   -7.1160   -5.9930 C.3       1 5E9         0.0508
     20 C14        -6.9640   -8.3510   -5.8340 C.3       1 5E9        -0.0115
     21 C10        -6.0480   -8.1250   -4.6300 C.3       1 5E9         0.0465
     22 C11        -4.9580   -9.1520   -4.5250 C.3       1 5E9        -0.0099
     23 C12        -3.9550   -8.9040   -3.3700 C.3       1 5E9         0.0525
     24 C26        -3.2060   -7.5770   -3.4080 C.3       1 5E9        -0.0129
     25 C25        -1.7650   -7.8600   -2.9310 C.3       1 5E9         0.0332
     26 C13        -2.8290   -9.8960   -3.4090 C.2       1 5E9         0.1792
     27 C17        -6.9350   -7.1200   -2.5710 C.2       1 5E9         0.1835
     28 O4         -6.1680   -6.1620   -2.6820 O.2       1 5E9        -0.3964
     29 C21        -7.2210   -6.7480   -0.0400 C.3       1 5E9         0.0481
     30 C20        -5.2110   -7.0140    1.6520 C.3       1 5E9         0.0511
     31 C22        -4.6360   -5.5950    1.4730 C.3       1 5E9         0.0128
     32 C24        -3.7550   -5.4910    0.2270 C.3       1 5E9        -0.0553
     33 C23        -3.8650   -5.1470    2.7060 C.3       1 5E9        -0.0553
     34 C9        -11.0620   -7.5380   -0.6820 C.ar      1 5E9        -0.0618
     35 F1        -13.5300   -6.3730    1.7840 F         1 5E9        -0.1893
     36 H1         -8.1807   -8.2446   -1.2467 H         1 5E9         0.0585
     37 H2         -9.4449   -6.7660   -2.7505 H         1 5E9         0.0447
     38 H3         -8.7796   -5.3381   -1.8874 H         1 5E9         0.0447
     39 H4        -10.0015   -4.3691   -0.2174 H         1 5E9         0.0547
     40 H5        -11.9225   -4.3424    1.3207 H         1 5E9         0.0587
     41 H6        -12.7602   -8.4307    0.3049 H         1 5E9         0.0587
     42 H7         -0.8202   -9.8179   -2.8766 H         1 5E9         0.1851
     43 H8         -4.4710   -8.8728    2.1752 H         1 5E9         0.2015
     44 H9         -3.7001   -7.6263    2.9243 H         1 5E9         0.2015
     45 H10        -3.3937   -7.9503    1.3398 H         1 5E9         0.2015
     46 H11        -7.5842   -8.9117   -3.3088 H         1 5E9         0.1854
     47 H12        -6.4151   -3.4756   -7.0850 H         1 5E9         0.0610
     48 H13        -7.4992   -2.5990   -5.9523 H         1 5E9         0.0610
     49 H14        -8.5438   -2.8255   -8.2011 H         1 5E9         0.0255
     50 H15        -9.4701   -3.7349   -6.9595 H         1 5E9         0.0255
     51 H16        -8.3860   -4.6115   -8.0922 H         1 5E9         0.0255
     52 H17        -8.5569   -7.2943   -6.8063 H         1 5E9         0.0519
     53 H18        -8.3829   -6.9454   -5.0528 H         1 5E9         0.0519
     54 H19        -6.3596   -8.5008   -6.7408 H         1 5E9         0.0313
     55 H20        -7.5946   -9.2360   -5.6633 H         1 5E9         0.0313
     56 H21        -5.5741   -7.1357   -4.7124 H         1 5E9         0.0559
     57 H22        -4.3980   -9.1577   -5.4718 H         1 5E9         0.0315
     58 H23        -5.4255  -10.1355   -4.3696 H         1 5E9         0.0315
     59 H24        -4.5082   -8.9860   -2.4228 H         1 5E9         0.0539
     60 H25        -3.6899   -6.8505   -2.7387 H         1 5E9         0.0312
     61 H26        -3.1934   -7.1792   -4.4335 H         1 5E9         0.0312
     62 H27        -1.0286   -7.3588   -3.5764 H         1 5E9         0.0521
     63 H28        -1.6215   -7.5351   -1.8899 H         1 5E9         0.0521
     64 H29        -7.9606   -6.9042    0.7591 H         1 5E9         0.0525
     65 H30        -6.9925   -5.6753   -0.1237 H         1 5E9         0.0525
     66 H31        -5.9512   -6.9917    2.4654 H         1 5E9         0.1093
     67 H32        -5.4852   -4.9086    1.3403 H         1 5E9         0.0376
     68 H33        -3.3665   -4.4658    0.1372 H         1 5E9         0.0236
     69 H34        -4.3504   -5.7368   -0.6646 H         1 5E9         0.0236
     70 H35        -2.9145   -6.1954    0.3124 H         1 5E9         0.0236
     71 H36        -4.5117   -5.2277    3.5922 H         1 5E9         0.0236
     72 H37        -3.5456   -4.1021    2.5792 H         1 5E9         0.0236
     73 H38        -2.9804   -5.7874    2.8381 H         1 5E9         0.0236
     74 H39       -10.8338   -8.4287   -1.2561 H         1 5E9         0.0547
@<TRIPOS>BOND
     1    1    2 1  
     2   27    1 1  
     3    1   29 1  
     4    2    3 1  
     5    3    4 ar 
     6    3   34 ar 
     7    4    5 ar 
     8    5    6 ar 
     9    7    6 ar 
    10    6   35 1  
    11   34    7 ar 
    12   26    8 2  
    13    9   25 1  
    14   26    9 am 
    15   30   10 1  
    16   21   11 1  
    17   11   27 am 
    18   12   13 2  
    19   29   12 1  
    20   12   30 1  
    21   15   14 2  
    22   15   16 1  
    23   19   15 1  
    24   16   17 1  
    25   17   18 1  
    26   20   19 1  
    27   21   20 1  
    28   22   21 1  
    29   23   22 1  
    30   23   24 1  
    31   23   26 1  
    32   24   25 1  
    33   27   28 2  
    34   30   31 1  
    35   31   32 1  
    36   31   33 1  
    37    1   36 1  
    38    2   37 1  
    39    2   38 1  
    40    4   39 1  
    41    5   40 1  
    42    7   41 1  
    43    9   42 1  
    44   10   43 1  
    45   10   44 1  
    46   10   45 1  
    47   11   46 1  
    48   17   47 1  
    49   17   48 1  
    50   18   49 1  
    51   18   50 1  
    52   18   51 1  
    53   19   52 1  
    54   19   53 1  
    55   20   54 1  
    56   20   55 1  
    57   21   56 1  
    58   22   57 1  
    59   22   58 1  
    60   23   59 1  
    61   24   60 1  
    62   24   61 1  
    63   25   62 1  
    64   25   63 1  
    65   29   64 1  
    66   29   65 1  
    67   30   66 1  
    68   31   67 1  
    69   32   68 1  
    70   32   69 1  
    71   32   70 1  
    72   33   71 1  
    73   33   72 1  
    74   33   73 1  
    75   34   74 1  
@<TRIPOS>SUBSTRUCTURE
     1 5E9         1

