### 
### Created by X-TOOL on Mon Sep 10 21:13:30 2018
### 

@<TRIPOS>MOLECULE
5dp6_ligand
   71    73     1     0     0
SMALL
GAST_HUCK


@<TRIPOS>ATOM
      1 C2        -26.0070   14.0120  -19.7160 C.3       1 5EB         0.1402
      2 C3        -27.5050   14.1520  -19.4970 C.3       1 5EB         0.0214
      3 C4        -28.1600   15.1140  -20.4450 C.ar      1 5EB        -0.0386
      4 C5        -27.5270   15.6300  -21.5310 C.ar      1 5EB        -0.0601
      5 C6        -28.2380   16.5190  -22.3190 C.ar      1 5EB        -0.0686
      6 C7        -29.5490   16.8980  -22.1390 C.ar      1 5EB        -0.0687
      7 N1        -21.8730    9.8760  -17.7400 N.am      1 5EB        -0.2866
      8 N2        -25.7490   12.7450  -20.3750 N.am      1 5EB        -0.2638
      9 C8        -30.2020   16.3700  -21.0590 C.ar      1 5EB        -0.0686
     10 O21       -27.2380   12.8110  -21.9620 O.2       1 5EB        -0.3969
     11 C20       -26.3170   12.2540  -21.3910 C.2       1 5EB         0.1783
     12 C22       -25.7240   10.9260  -21.7440 C.3       1 5EB         0.0376
     13 C23       -26.7420   10.0750  -22.4190 C.3       1 5EB        -0.0332
     14 C27       -26.4020    9.7590  -23.8580 C.3       1 5EB        -0.0390
     15 C21       -24.9450    9.5870  -24.2600 C.3       1 5EB        -0.0498
     16 C24       -25.7200   10.8570  -24.6480 C.3       1 5EB        -0.0498
     17 C9        -29.4970   15.4880  -20.2270 C.ar      1 5EB        -0.0601
     18 C17       -25.2990   13.9200  -18.4290 C.2       1 5EB         0.2040
     19 O4        -25.8970   13.5240  -17.4470 O.2       1 5EB        -0.3943
     20 N         -24.0850   14.2420  -18.4390 N.am      1 5EB        -0.2816
     21 C10       -23.2690   14.1410  -17.2430 C.3       1 5EB         0.0466
     22 C14       -22.7160   15.4900  -16.8900 C.3       1 5EB        -0.0115
     23 C15       -23.7110   16.3520  -16.2290 C.3       1 5EB         0.0508
     24 C16       -24.4170   15.7290  -15.0950 C.2       1 5EB         0.2338
     25 O2        -25.6540   15.1210  -15.3950 O.3       1 5EB        -0.2771
     26 C18       -26.8780   15.7410  -14.9030 C.3       1 5EB         0.0740
     27 C19       -26.7570   16.3440  -13.4950 C.3       1 5EB        -0.0371
     28 O3        -24.0410   15.7620  -13.9510 O.2       1 5EB        -0.3704
     29 C11       -22.1000   13.2560  -17.6460 C.3       1 5EB        -0.0099
     30 C12       -22.5440   11.9940  -18.3520 C.3       1 5EB         0.0525
     31 C26       -23.7280   11.3440  -17.6450 C.3       1 5EB        -0.0129
     32 C25       -23.2330    9.9610  -17.2100 C.3       1 5EB         0.0332
     33 C13       -21.4400   10.9730  -18.3220 C.2       1 5EB         0.1792
     34 O1        -20.3170   11.1770  -18.7570 O.2       1 5EB        -0.3968
     35 H1        -25.6305   14.8567  -20.3116 H         1 5EB         0.0823
     36 H2        -27.6754   14.5051  -18.4693 H         1 5EB         0.0474
     37 H3        -27.9700   13.1637  -19.6270 H         1 5EB         0.0474
     38 H4        -26.5059   15.3565  -21.7709 H         1 5EB         0.0557
     39 H5        -27.7117   16.9589  -23.1584 H         1 5EB         0.0599
     40 H6        -30.0407   17.5825  -22.8207 H         1 5EB         0.0559
     41 H7        -21.3159    9.0489  -17.6658 H         1 5EB         0.1851
     42 H8        -25.0250   12.1860  -19.9709 H         1 5EB         0.1884
     43 H9        -31.2348   16.6260  -20.8522 H         1 5EB         0.0599
     44 H10       -25.3813   10.4250  -20.8266 H         1 5EB         0.0502
     45 H11       -24.8697   11.0771  -22.4203 H         1 5EB         0.0502
     46 H12       -27.7073   10.6019  -22.3965 H         1 5EB         0.0292
     47 H13       -26.8279    9.1285  -21.8652 H         1 5EB         0.0292
     48 H14       -27.1818    9.1295  -24.3114 H         1 5EB         0.0302
     49 H15       -24.6683    8.8525  -25.0307 H         1 5EB         0.0268
     50 H16       -24.1531    9.6351  -23.4981 H         1 5EB         0.0268
     51 H17       -25.4821   11.8163  -24.1652 H         1 5EB         0.0268
     52 H18       -25.9973   11.0336  -25.6977 H         1 5EB         0.0268
     53 H19       -30.0118   15.0719  -19.3685 H         1 5EB         0.0557
     54 H20       -23.6728   14.5743  -19.2873 H         1 5EB         0.1855
     55 H21       -23.8364   13.7160  -16.4019 H         1 5EB         0.0559
     56 H22       -22.3776   15.9849  -17.8122 H         1 5EB         0.0313
     57 H23       -21.8608   15.3542  -16.2117 H         1 5EB         0.0313
     58 H24       -24.4607   16.6452  -16.9786 H         1 5EB         0.0519
     59 H25       -23.1933   17.2488  -15.8579 H         1 5EB         0.0519
     60 H26       -27.6684   14.9763  -14.8839 H         1 5EB         0.0610
     61 H27       -27.1616   16.5442  -15.5989 H         1 5EB         0.0610
     62 H28       -27.7197   16.7885  -13.2026 H         1 5EB         0.0255
     63 H29       -25.9790   17.1216  -13.4947 H         1 5EB         0.0255
     64 H30       -26.4858   15.5536  -12.7797 H         1 5EB         0.0255
     65 H31       -21.5415   12.9756  -16.7407 H         1 5EB         0.0315
     66 H32       -21.4432   13.8249  -18.3206 H         1 5EB         0.0315
     67 H33       -22.8125   12.2363  -19.3908 H         1 5EB         0.0539
     68 H34       -24.5815   11.2486  -18.3323 H         1 5EB         0.0312
     69 H35       -24.0271   11.9386  -16.7692 H         1 5EB         0.0312
     70 H36       -23.2290    9.8767  -16.1133 H         1 5EB         0.0521
     71 H37       -23.8667    9.1694  -17.6363 H         1 5EB         0.0521
@<TRIPOS>BOND
     1    1    2 1  
     2    1    8 1  
     3   18    1 1  
     4    2    3 1  
     5    3    4 ar 
     6    3   17 ar 
     7    4    5 ar 
     8    5    6 ar 
     9    9    6 ar 
    10    7   32 1  
    11   33    7 am 
    12    8   11 am 
    13   17    9 ar 
    14   11   10 2  
    15   11   12 1  
    16   12   13 1  
    17   13   14 1  
    18   14   15 1  
    19   14   16 1  
    20   16   15 1  
    21   18   19 2  
    22   20   18 am 
    23   21   20 1  
    24   21   22 1  
    25   29   21 1  
    26   22   23 1  
    27   23   24 1  
    28   24   25 1  
    29   24   28 2  
    30   25   26 1  
    31   26   27 1  
    32   30   29 1  
    33   30   31 1  
    34   30   33 1  
    35   31   32 1  
    36   33   34 2  
    37    1   35 1  
    38    2   36 1  
    39    2   37 1  
    40    4   38 1  
    41    5   39 1  
    42    6   40 1  
    43    7   41 1  
    44    8   42 1  
    45    9   43 1  
    46   12   44 1  
    47   12   45 1  
    48   13   46 1  
    49   13   47 1  
    50   14   48 1  
    51   15   49 1  
    52   15   50 1  
    53   16   51 1  
    54   16   52 1  
    55   17   53 1  
    56   20   54 1  
    57   21   55 1  
    58   22   56 1  
    59   22   57 1  
    60   23   58 1  
    61   23   59 1  
    62   26   60 1  
    63   26   61 1  
    64   27   62 1  
    65   27   63 1  
    66   27   64 1  
    67   29   65 1  
    68   29   66 1  
    69   30   67 1  
    70   31   68 1  
    71   31   69 1  
    72   32   70 1  
    73   32   71 1  
@<TRIPOS>SUBSTRUCTURE
     1 5EB         1

