### 
### Created by X-TOOL on Mon Sep 10 21:13:29 2018
### 

@<TRIPOS>MOLECULE
5dp7_ligand
   70    71     1     0     0
SMALL
GAST_HUCK


@<TRIPOS>ATOM
      1 C2          7.7680    7.4040   -1.3780 C.3       1 5EC         0.1402
      2 C3          8.5880    6.1510   -1.6220 C.3       1 5EC         0.0214
      3 C4          9.8340    5.9910   -0.8130 C.ar      1 5EC        -0.0386
      4 C5         10.7600    7.0040   -0.8390 C.ar      1 5EC        -0.0601
      5 C6         11.9440    6.8340   -0.0990 C.ar      1 5EC        -0.0686
      6 C7         12.1970    5.6760    0.6450 C.ar      1 5EC        -0.0687
      7 N1          1.6420    9.3050   -3.2610 N.am      1 5EC        -0.2866
      8 C8         11.2690    4.6410    0.6430 C.ar      1 5EC        -0.0686
      9 C20         5.1070    7.6900    1.3650 C.3       1 5EC         0.0397
     10 C22         5.1450    8.7570    2.4830 C.3       1 5EC        -0.0298
     11 C23         5.7690    8.1780    3.7330 C.3       1 5EC        -0.0606
     12 C24         5.8450   10.0830    2.1870 C.3       1 5EC        -0.0606
     13 C           5.8420    8.0210    0.0840 C.2       1 5EC         0.1786
     14 O           5.3910    8.9070   -0.6460 O.2       1 5EC        -0.3969
     15 N5          6.9500    7.2720   -0.1690 N.am      1 5EC        -0.2638
     16 C9         10.0860    4.8080   -0.0860 C.ar      1 5EC        -0.0601
     17 C17         6.9090    7.3850   -2.6370 C.2       1 5EC         0.2040
     18 O4          6.2330    6.3890   -2.8620 O.2       1 5EC        -0.3943
     19 N           6.8700    8.4300   -3.4880 N.am      1 5EC        -0.2816
     20 C10         6.0490    8.3450   -4.7080 C.3       1 5EC         0.0466
     21 C11         4.8550    9.2390   -4.7440 C.3       1 5EC        -0.0099
     22 C12         3.8830    8.9770   -3.5940 C.3       1 5EC         0.0525
     23 C13         2.7430    9.9550   -3.6410 C.2       1 5EC         0.1792
     24 O1          2.8990   11.1880   -3.9290 O.2       1 5EC        -0.3968
     25 C25         1.8340    7.9010   -2.9520 C.3       1 5EC         0.0332
     26 C26         3.2210    7.5990   -3.5490 C.3       1 5EC        -0.0129
     27 C14         7.0630    8.5230   -5.8420 C.3       1 5EC        -0.0115
     28 C15         7.7830    7.2300   -6.2190 C.3       1 5EC         0.0508
     29 C16         6.9820    6.0570   -6.6890 C.2       1 5EC         0.2338
     30 O3          6.0330    6.1290   -7.4300 O.2       1 5EC        -0.3704
     31 O2          7.4170    4.7370   -6.2710 O.3       1 5EC        -0.2771
     32 C18         6.5980    3.9600   -5.4140 C.3       1 5EC         0.0740
     33 C19         6.0040    2.8470   -6.2290 C.3       1 5EC        -0.0371
     34 H1          8.3926    8.3071   -1.3125 H         1 5EC         0.0823
     35 H2          8.8776    6.1446   -2.6832 H         1 5EC         0.0474
     36 H3          7.9425    5.2853   -1.4128 H         1 5EC         0.0474
     37 H4         10.5842    7.9071   -1.4122 H         1 5EC         0.0557
     38 H5         12.6845    7.6256   -0.1052 H         1 5EC         0.0599
     39 H6         13.1117    5.5866    1.2198 H         1 5EC         0.0559
     40 H7          0.7502    9.7526   -3.1941 H         1 5EC         0.1851
     41 H8         11.4572    3.7261    1.1931 H         1 5EC         0.0599
     42 H9          4.0520    7.5140    1.1079 H         1 5EC         0.0505
     43 H10         5.5446    6.7661    1.7710 H         1 5EC         0.0505
     44 H11         4.0958    9.0008    2.7062 H         1 5EC         0.0320
     45 H12         5.7908    8.9452    4.5210 H         1 5EC         0.0234
     46 H13         6.7954    7.8498    3.5123 H         1 5EC         0.0234
     47 H14         5.1746    7.3179    4.0750 H         1 5EC         0.0234
     48 H15         5.4127   10.5314    1.2803 H         1 5EC         0.0234
     49 H16         6.9190    9.9039    2.0311 H         1 5EC         0.0234
     50 H17         5.7070   10.7681    3.0364 H         1 5EC         0.0234
     51 H18         7.2222    6.5909    0.5107 H         1 5EC         0.1884
     52 H19         9.3489    4.0132   -0.0923 H         1 5EC         0.0557
     53 H20         7.3954    9.2580   -3.2921 H         1 5EC         0.1855
     54 H21         5.6502    7.3220   -4.7745 H         1 5EC         0.0559
     55 H22         4.3253    9.0796   -5.6948 H         1 5EC         0.0315
     56 H23         5.1960   10.2831   -4.6847 H         1 5EC         0.0315
     57 H24         4.4451    9.1157   -2.6587 H         1 5EC         0.0539
     58 H25         1.0572    7.2826   -3.4253 H         1 5EC         0.0521
     59 H26         1.8263    7.7311   -1.8652 H         1 5EC         0.0521
     60 H27         3.7868    6.9093   -2.9055 H         1 5EC         0.0312
     61 H28         3.1323    7.1698   -4.5579 H         1 5EC         0.0312
     62 H29         7.8145    9.2612   -5.5253 H         1 5EC         0.0313
     63 H30         6.5319    8.8979   -6.7293 H         1 5EC         0.0313
     64 H31         8.3409    6.9021   -5.3295 H         1 5EC         0.0519
     65 H32         8.4900    7.4792   -7.0240 H         1 5EC         0.0519
     66 H33         5.7961    4.5855   -4.9947 H         1 5EC         0.0610
     67 H34         7.2031    3.5424   -4.5958 H         1 5EC         0.0610
     68 H35         5.3615    2.2256   -5.5878 H         1 5EC         0.0255
     69 H36         6.8112    2.2286   -6.6485 H         1 5EC         0.0255
     70 H37         5.4042    3.2716   -7.0475 H         1 5EC         0.0255
@<TRIPOS>BOND
     1    1    2 1  
     2    1   15 1  
     3   17    1 1  
     4    2    3 1  
     5    3    4 ar 
     6    3   16 ar 
     7    4    5 ar 
     8    5    6 ar 
     9    8    6 ar 
    10   23    7 am 
    11    7   25 1  
    12   16    8 ar 
    13    9   10 1  
    14   13    9 1  
    15   10   11 1  
    16   10   12 1  
    17   13   14 2  
    18   15   13 am 
    19   17   18 2  
    20   19   17 am 
    21   20   19 1  
    22   21   20 1  
    23   20   27 1  
    24   22   21 1  
    25   22   23 1  
    26   22   26 1  
    27   23   24 2  
    28   25   26 1  
    29   27   28 1  
    30   28   29 1  
    31   29   30 2  
    32   29   31 1  
    33   31   32 1  
    34   32   33 1  
    35    1   34 1  
    36    2   35 1  
    37    2   36 1  
    38    4   37 1  
    39    5   38 1  
    40    6   39 1  
    41    7   40 1  
    42    8   41 1  
    43    9   42 1  
    44    9   43 1  
    45   10   44 1  
    46   11   45 1  
    47   11   46 1  
    48   11   47 1  
    49   12   48 1  
    50   12   49 1  
    51   12   50 1  
    52   15   51 1  
    53   16   52 1  
    54   19   53 1  
    55   20   54 1  
    56   21   55 1  
    57   21   56 1  
    58   22   57 1  
    59   25   58 1  
    60   25   59 1  
    61   26   60 1  
    62   26   61 1  
    63   27   62 1  
    64   27   63 1  
    65   28   64 1  
    66   28   65 1  
    67   32   66 1  
    68   32   67 1  
    69   33   68 1  
    70   33   69 1  
    71   33   70 1  
@<TRIPOS>SUBSTRUCTURE
     1 5EC         1

