### 
### Created by X-TOOL on Mon Sep 10 21:13:29 2018
### 

@<TRIPOS>MOLECULE
5dp8_ligand
   75    77     1     0     0
SMALL
GAST_HUCK


@<TRIPOS>ATOM
      1 N1         -1.7550   -8.7560   -2.8270 N.am      1 5ED        -0.2866
      2 C4        -10.4860   -6.7880   -0.4950 C.ar      1 5ED        -0.0385
      3 C5        -10.8600   -8.1150   -0.2550 C.ar      1 5ED        -0.0601
      4 C6        -11.9550   -8.3720    0.5930 C.ar      1 5ED        -0.0686
      5 C7        -12.6670   -7.3270    1.1900 C.ar      1 5ED        -0.0687
      6 C8        -12.2960   -6.0010    0.9320 C.ar      1 5ED        -0.0686
      7 C10        -6.1250   -7.9100   -4.3870 C.3       1 5ED         0.0466
      8 C13        -2.7670   -9.5040   -3.2100 C.2       1 5ED         0.1792
      9 C15        -7.7730   -6.7600   -5.9150 C.3       1 5ED         0.0508
     10 C17        -7.2140   -7.0080   -2.3740 C.2       1 5ED         0.2041
     11 C20        -6.3040   -7.4080    0.5590 C.2       1 5ED         0.2869
     12 C22        -6.1120   -6.8300    1.9350 C.2       1 5ED         0.2847
     13 C24        -4.4090  -10.2350    5.7930 C.3       1 5ED        -0.0499
     14 C26        -3.5260   -7.2620   -3.0220 C.3       1 5ED        -0.0129
     15 C1         -4.8460   -9.0730    4.8960 C.3       1 5ED        -0.0392
     16 C2         -8.0860   -7.2860   -1.2130 C.3       1 5ED         0.1412
     17 C3         -9.3300   -6.4340   -1.4130 C.3       1 5ED         0.0216
     18 C9        -11.2060   -5.7360    0.0930 C.ar      1 5ED        -0.0601
     19 C11        -4.9260   -8.8800   -4.3890 C.3       1 5ED        -0.0099
     20 C12        -4.0320   -8.6950   -3.1680 C.3       1 5ED         0.0525
     21 C14        -6.9760   -8.0650   -5.6730 C.3       1 5ED        -0.0115
     22 C16        -7.0150   -5.5840   -6.5020 C.2       1 5ED         0.2338
     23 C18        -6.7530   -3.2880   -5.6640 C.3       1 5ED         0.0740
     24 C23        -3.6830   -8.2980    4.2570 C.3       1 5ED        -0.0298
     25 C25        -2.1060   -7.3960   -2.5050 C.3       1 5ED         0.0332
     26 O3         -5.9810   -5.6830   -7.1500 O.2       1 5ED        -0.3704
     27 O2         -7.5540   -4.2630   -6.2990 O.3       1 5ED        -0.2771
     28 C19        -6.7940   -3.5980   -4.1780 C.3       1 5ED        -0.0371
     29 O1         -2.6860  -10.6770   -3.5280 O.2       1 5ED        -0.3968
     30 N          -6.9640   -8.0440   -3.1930 N.am      1 5ED        -0.2815
     31 O4         -6.7740   -5.8700   -2.5010 O.2       1 5ED        -0.3943
     32 N2         -7.4830   -6.9830    0.0720 N.am      1 5ED        -0.2521
     33 O21        -5.5230   -8.1390   -0.0870 O.2       1 5ED        -0.3583
     34 O5         -6.9760   -6.0460    2.3140 O.2       1 5ED        -0.3584
     35 N6         -5.1610   -6.9870    2.8550 N.am      1 5ED        -0.2751
     36 C21        -3.9990   -7.8290    2.8300 C.3       1 5ED         0.0321
     37 C27        -5.0820  -10.5200    4.4580 C.3       1 5ED        -0.0499
     38 H1         -0.8191   -9.1026   -2.7644 H         1 5ED         0.1851
     39 H2        -10.3157   -8.9322   -0.7144 H         1 5ED         0.0557
     40 H3        -12.2506   -9.3969    0.7860 H         1 5ED         0.0599
     41 H4        -13.5009   -7.5417    1.8484 H         1 5ED         0.0559
     42 H5        -12.8499   -5.1837    1.3796 H         1 5ED         0.0599
     43 H6         -5.7146   -6.8895   -4.3829 H         1 5ED         0.0559
     44 H7         -8.1840   -6.4387   -4.9466 H         1 5ED         0.0519
     45 H8         -8.5979   -6.9985   -6.6025 H         1 5ED         0.0519
     46 H9         -4.9448  -10.4357    6.7325 H         1 5ED         0.0268
     47 H10        -3.3393  -10.4537    5.9270 H         1 5ED         0.0268
     48 H11        -4.1469   -6.7041   -2.3056 H         1 5ED         0.0312
     49 H12        -3.5362   -6.7477   -3.9943 H         1 5ED         0.0312
     50 H13        -5.6856   -8.4101    5.1520 H         1 5ED         0.0301
     51 H14        -8.3592   -8.3515   -1.2200 H         1 5ED         0.0825
     52 H15        -9.0592   -5.3827   -1.2357 H         1 5ED         0.0474
     53 H16        -9.6668   -6.5556   -2.4531 H         1 5ED         0.0474
     54 H17       -10.9161   -4.7102   -0.1038 H         1 5ED         0.0557
     55 H18        -4.3285   -8.7025   -5.2953 H         1 5ED         0.0315
     56 H19        -5.3058   -9.9123   -4.3965 H         1 5ED         0.0315
     57 H20        -4.6175   -8.9751   -2.2799 H         1 5ED         0.0539
     58 H21        -7.6747   -8.9061   -5.5529 H         1 5ED         0.0313
     59 H22        -6.3149   -8.2570   -6.5310 H         1 5ED         0.0313
     60 H23        -7.1564   -2.2824   -5.8537 H         1 5ED         0.0610
     61 H24        -5.7192   -3.3446   -6.0356 H         1 5ED         0.0610
     62 H25        -2.7992   -8.9521    4.2251 H         1 5ED         0.0287
     63 H26        -3.4644   -7.4162    4.8772 H         1 5ED         0.0287
     64 H27        -1.4351   -6.6867   -3.0117 H         1 5ED         0.0521
     65 H28        -2.0659   -7.2267   -1.4189 H         1 5ED         0.0521
     66 H29        -6.1823   -2.8637   -3.6333 H         1 5ED         0.0255
     67 H30        -6.3961   -4.6085   -4.0031 H         1 5ED         0.0255
     68 H31        -7.8332   -3.5463   -3.8212 H         1 5ED         0.0255
     69 H32        -7.3637   -8.9357   -2.9805 H         1 5ED         0.1855
     70 H33        -8.0116   -6.3818    0.6713 H         1 5ED         0.1899
     71 H34        -5.2733   -6.4383    3.6834 H         1 5ED         0.1865
     72 H35        -4.1918   -8.7027    2.1901 H         1 5ED         0.0522
     73 H36        -3.1439   -7.2637    2.4309 H         1 5ED         0.0522
     74 H37        -6.1037  -10.9268    4.4336 H         1 5ED         0.0268
     75 H38        -4.4982  -10.9449    3.6281 H         1 5ED         0.0268
@<TRIPOS>BOND
     1    8    1 am 
     2   25    1 1  
     3    2    3 ar 
     4   17    2 1  
     5    2   18 ar 
     6    3    4 ar 
     7    4    5 ar 
     8    6    5 ar 
     9   18    6 ar 
    10    7   19 1  
    11    7   21 1  
    12   30    7 1  
    13   20    8 1  
    14    8   29 2  
    15   21    9 1  
    16    9   22 1  
    17   16   10 1  
    18   10   30 am 
    19   10   31 2  
    20   12   11 1  
    21   11   32 am 
    22   11   33 2  
    23   12   34 2  
    24   35   12 am 
    25   15   13 1  
    26   37   13 1  
    27   20   14 1  
    28   14   25 1  
    29   24   15 1  
    30   15   37 1  
    31   16   17 1  
    32   32   16 1  
    33   19   20 1  
    34   22   26 2  
    35   22   27 1  
    36   27   23 1  
    37   23   28 1  
    38   36   24 1  
    39   35   36 1  
    40    1   38 1  
    41    3   39 1  
    42    4   40 1  
    43    5   41 1  
    44    6   42 1  
    45    7   43 1  
    46    9   44 1  
    47    9   45 1  
    48   13   46 1  
    49   13   47 1  
    50   14   48 1  
    51   14   49 1  
    52   15   50 1  
    53   16   51 1  
    54   17   52 1  
    55   17   53 1  
    56   18   54 1  
    57   19   55 1  
    58   19   56 1  
    59   20   57 1  
    60   21   58 1  
    61   21   59 1  
    62   23   60 1  
    63   23   61 1  
    64   24   62 1  
    65   24   63 1  
    66   25   64 1  
    67   25   65 1  
    68   28   66 1  
    69   28   67 1  
    70   28   68 1  
    71   30   69 1  
    72   32   70 1  
    73   35   71 1  
    74   36   72 1  
    75   36   73 1  
    76   37   74 1  
    77   37   75 1  
@<TRIPOS>SUBSTRUCTURE
     1 5ED         1

