### 
### Created by X-TOOL on Mon Sep 10 21:13:30 2018
### 

@<TRIPOS>MOLECULE
5dp9_ligand
   75    77     1     0     0
SMALL
GAST_HUCK


@<TRIPOS>ATOM
      1 C23        -4.0190   -9.0760    4.1520 C.3       1 5EX        -0.0207
      2 C22        -5.9190   -6.9640    1.8950 C.2       1 5EX         0.2847
      3 C21        -4.1380   -8.4650    2.7680 C.3       1 5EX         0.0346
      4 C20        -6.1820   -7.4620    0.5070 C.2       1 5EX         0.2869
      5 C24        -3.8380  -10.5920    4.1800 C.3       1 5EX        -0.0484
      6 C26        -3.3830   -7.4590   -3.0320 C.3       1 5EX        -0.0129
      7 C27        -5.1780  -10.7650    4.8740 C.3       1 5EX        -0.0524
      8 C18        -6.5290   -3.1810   -5.9550 C.3       1 5EX         0.0740
      9 C10        -6.0520   -7.9290   -4.5220 C.3       1 5EX         0.0466
     10 C7        -12.5830   -7.0830    1.0500 C.ar      1 5EX        -0.0687
     11 C5        -10.7890   -7.9960   -0.2880 C.ar      1 5EX        -0.0601
     12 C6        -11.8960   -8.1790    0.5410 C.ar      1 5EX        -0.0686
     13 C2         -7.9250   -7.2900   -1.2790 C.3       1 5EX         0.1412
     14 C3         -9.1790   -6.4480   -1.5220 C.3       1 5EX         0.0216
     15 C4        -10.3650   -6.7080   -0.6140 C.ar      1 5EX        -0.0385
     16 C11        -4.8700   -8.9010   -4.5480 C.3       1 5EX        -0.0099
     17 C12        -4.0300   -8.8200   -3.2690 C.3       1 5EX         0.0525
     18 C13        -2.8690   -9.7510   -3.3330 C.2       1 5EX         0.1792
     19 C14        -6.9780   -8.1360   -5.7470 C.3       1 5EX        -0.0115
     20 C15        -7.7460   -6.8320   -5.9430 C.3       1 5EX         0.0508
     21 C16        -6.9610   -5.6090   -6.3560 C.2       1 5EX         0.2338
     22 C17        -7.0440   -6.9930   -2.4530 C.2       1 5EX         0.2041
     23 O1         -2.9940  -10.8970   -3.7040 O.2       1 5EX        -0.3968
     24 C8        -12.1690   -5.7970    0.7230 C.ar      1 5EX        -0.0686
     25 O2         -7.3380   -4.3400   -5.7710 O.3       1 5EX        -0.2771
     26 C9        -11.0730   -5.6120   -0.1100 C.ar      1 5EX        -0.0601
     27 N1         -1.7540   -9.1430   -2.9340 N.am      1 5EX        -0.2866
     28 C19        -7.4060   -1.9510   -6.0160 C.3       1 5EX        -0.0371
     29 O3         -6.0360   -5.6200   -7.1570 O.2       1 5EX        -0.3704
     30 N2         -7.3410   -7.0100    0.0300 N.am      1 5EX        -0.2521
     31 C25        -1.9630   -7.7630   -2.5600 C.3       1 5EX         0.0332
     32 N          -6.8560   -8.0100   -3.3100 N.am      1 5EX        -0.2815
     33 O4         -6.5500   -5.8840   -2.5600 O.2       1 5EX        -0.3943
     34 O21        -5.4260   -8.1760   -0.1650 O.2       1 5EX        -0.3583
     35 O5         -6.5850   -6.0120    2.2610 O.2       1 5EX        -0.3584
     36 N6         -5.0700   -7.3780    2.8280 N.am      1 5EX        -0.2749
     37 C28        -5.3440   -9.2530    4.8770 C.3       1 5EX        -0.0484
     38 H1         -3.2608   -8.5237    4.7265 H         1 5EX         0.0320
     39 H2         -4.4983   -9.2235    2.0575 H         1 5EX         0.0524
     40 H3         -3.1557   -8.0935    2.4409 H         1 5EX         0.0524
     41 H4         -2.9792  -10.9269    4.7803 H         1 5EX         0.0269
     42 H5         -3.7904  -11.0533    3.1825 H         1 5EX         0.0269
     43 H6         -3.9335   -6.8999   -2.2611 H         1 5EX         0.0312
     44 H7         -3.3622   -6.8750   -3.9639 H         1 5EX         0.0312
     45 H8         -5.1143  -11.2153    5.8756 H         1 5EX         0.0265
     46 H9         -5.9306  -11.3018    4.2778 H         1 5EX         0.0265
     47 H10        -5.9647   -3.2745   -6.8946 H         1 5EX         0.0610
     48 H11        -5.8269   -3.0879   -5.1133 H         1 5EX         0.0610
     49 H12        -5.6353   -6.9125   -4.5767 H         1 5EX         0.0559
     50 H13       -13.4383   -7.2306    1.6994 H         1 5EX         0.0559
     51 H14       -10.2577   -8.8560   -0.6793 H         1 5EX         0.0557
     52 H15       -12.2225   -9.1823    0.7898 H         1 5EX         0.0599
     53 H16        -8.1897   -8.3575   -1.2983 H         1 5EX         0.0825
     54 H17        -9.5061   -6.6295   -2.5564 H         1 5EX         0.0474
     55 H18        -8.8973   -5.3910   -1.4066 H         1 5EX         0.0474
     56 H19        -4.2298   -8.6582   -5.4089 H         1 5EX         0.0315
     57 H20        -5.2555   -9.9257   -4.6550 H         1 5EX         0.0315
     58 H21        -4.6769   -9.0751   -2.4167 H         1 5EX         0.0539
     59 H22        -7.6780   -8.9631   -5.5574 H         1 5EX         0.0313
     60 H23        -6.3785   -8.3607   -6.6415 H         1 5EX         0.0313
     61 H24        -8.2427   -6.5970   -4.9901 H         1 5EX         0.0519
     62 H25        -8.5057   -7.0116   -6.7179 H         1 5EX         0.0519
     63 H26       -12.7011   -4.9391    1.1178 H         1 5EX         0.0599
     64 H27       -10.7629   -4.6070   -0.3724 H         1 5EX         0.0557
     65 H28        -0.8628   -9.5951   -2.8969 H         1 5EX         0.1851
     66 H29        -6.7776   -1.0594   -6.1580 H         1 5EX         0.0255
     67 H30        -7.9703   -1.8560   -5.0766 H         1 5EX         0.0255
     68 H31        -8.1081   -2.0426   -6.8578 H         1 5EX         0.0255
     69 H32        -7.8690   -6.4136    0.6346 H         1 5EX         0.1899
     70 H33        -1.8784   -7.6368   -1.4706 H         1 5EX         0.0521
     71 H34        -1.2360   -7.1081   -3.0626 H         1 5EX         0.0521
     72 H35        -7.2982   -8.8824   -3.1018 H         1 5EX         0.1855
     73 H36        -5.0825   -6.8636    3.6855 H         1 5EX         0.1865
     74 H37        -6.2146   -8.9002    4.3047 H         1 5EX         0.0269
     75 H38        -5.3628   -8.8098    5.8836 H         1 5EX         0.0269
@<TRIPOS>BOND
     1    3    1 1  
     2    1    5 1  
     3    1   37 1  
     4    4    2 1  
     5    2   35 2  
     6    2   36 am 
     7   36    3 1  
     8   30    4 am 
     9    4   34 2  
    10    5    7 1  
    11   17    6 1  
    12    6   31 1  
    13   37    7 1  
    14   25    8 1  
    15    8   28 1  
    16    9   16 1  
    17    9   19 1  
    18   32    9 1  
    19   12   10 ar 
    20   10   24 ar 
    21   11   12 ar 
    22   15   11 ar 
    23   13   14 1  
    24   22   13 1  
    25   13   30 1  
    26   14   15 1  
    27   15   26 ar 
    28   16   17 1  
    29   17   18 1  
    30   18   23 2  
    31   18   27 am 
    32   19   20 1  
    33   20   21 1  
    34   21   25 1  
    35   21   29 2  
    36   22   32 am 
    37   22   33 2  
    38   24   26 ar 
    39   27   31 1  
    40    1   38 1  
    41    3   39 1  
    42    3   40 1  
    43    5   41 1  
    44    5   42 1  
    45    6   43 1  
    46    6   44 1  
    47    7   45 1  
    48    7   46 1  
    49    8   47 1  
    50    8   48 1  
    51    9   49 1  
    52   10   50 1  
    53   11   51 1  
    54   12   52 1  
    55   13   53 1  
    56   14   54 1  
    57   14   55 1  
    58   16   56 1  
    59   16   57 1  
    60   17   58 1  
    61   19   59 1  
    62   19   60 1  
    63   20   61 1  
    64   20   62 1  
    65   24   63 1  
    66   26   64 1  
    67   27   65 1  
    68   28   66 1  
    69   28   67 1  
    70   28   68 1  
    71   30   69 1  
    72   31   70 1  
    73   31   71 1  
    74   32   72 1  
    75   36   73 1  
    76   37   74 1  
    77   37   75 1  
@<TRIPOS>SUBSTRUCTURE
     1 5EX         1

