### 
### Created by X-TOOL on Mon Sep 10 21:13:30 2018
### 

@<TRIPOS>MOLECULE
5dpa_ligand
   61    62     1     0     0
SMALL
GAST_HUCK


@<TRIPOS>ATOM
      1 N1         -1.8840   -8.6800   -3.1740 N.am      1 5F2        -0.2866
      2 C2         -8.1520   -7.3340   -1.3310 C.3       1 5F2         0.1402
      3 C3         -9.4530   -6.6050   -1.5470 C.3       1 5F2         0.0214
      4 C4        -10.5070   -7.0160   -0.5590 C.ar      1 5F2        -0.0386
      5 C5        -10.7480   -8.3640   -0.2530 C.ar      1 5F2        -0.0601
      6 C6        -11.7760   -8.7100    0.6340 C.ar      1 5F2        -0.0686
      7 C7        -12.5470   -7.7150    1.2260 C.ar      1 5F2        -0.0687
      8 C8        -12.3050   -6.3630    0.9220 C.ar      1 5F2        -0.0686
      9 C9        -11.2910   -6.0120    0.0180 C.ar      1 5F2        -0.0601
     10 C19        -6.4980   -2.6090   -4.6150 C.3       1 5F2        -0.0371
     11 C20        -6.4450   -7.3630    0.4190 C.2       1 5F2         0.1752
     12 C22        -6.0250   -6.7880    1.7460 C.3       1 5F2         0.0258
     13 O3         -6.1420   -5.6080   -7.3240 O.2       1 5F2        -0.3704
     14 C16        -7.0100   -5.6000   -6.4430 C.2       1 5F2         0.2338
     15 O2         -7.4420   -4.3310   -5.9000 O.3       1 5F2        -0.2771
     16 C18        -6.6450   -3.1640   -6.0150 C.3       1 5F2         0.0740
     17 C15        -7.7480   -6.8140   -5.8820 C.3       1 5F2         0.0508
     18 C14        -6.9270   -8.0840   -5.6910 C.3       1 5F2        -0.0115
     19 C10        -6.0060   -7.9980   -4.4380 C.3       1 5F2         0.0466
     20 C11        -4.9140   -9.0740   -4.5690 C.3       1 5F2        -0.0099
     21 C12        -4.1100   -9.4130   -3.3060 C.3       1 5F2         0.0525
     22 C26        -3.9860   -8.2540   -2.3090 C.3       1 5F2        -0.0129
     23 C25        -2.6260   -7.6180   -2.5490 C.3       1 5F2         0.0332
     24 C13        -2.6530   -9.6750   -3.6010 C.2       1 5F2         0.1792
     25 O1         -2.2450  -10.6720   -4.1580 O.2       1 5F2        -0.3968
     26 N          -6.8760   -8.1080   -3.2710 N.am      1 5F2        -0.2816
     27 C17        -7.2370   -7.0640   -2.4850 C.2       1 5F2         0.2040
     28 O4         -6.8470   -5.9080   -2.6070 O.2       1 5F2        -0.3943
     29 N2         -7.6020   -6.8960   -0.0540 N.am      1 5F2        -0.2641
     30 O21        -5.7790   -8.1830   -0.1850 O.2       1 5F2        -0.3972
     31 H1         -0.8893   -8.6701   -3.2766 H         1 5F2         0.1851
     32 H2         -8.3412   -8.4165   -1.2820 H         1 5F2         0.0823
     33 H3         -9.8160   -6.8222   -2.5624 H         1 5F2         0.0474
     34 H4         -9.2744   -5.5244   -1.4447 H         1 5F2         0.0474
     35 H5        -10.1381   -9.1387   -0.7034 H         1 5F2         0.0557
     36 H6        -11.9704   -9.7525    0.8588 H         1 5F2         0.0599
     37 H7        -13.3344   -7.9815    1.9217 H         1 5F2         0.0559
     38 H8        -12.9043   -5.5893    1.3880 H         1 5F2         0.0599
     39 H9        -11.1168   -4.9715   -0.2310 H         1 5F2         0.0557
     40 H10        -5.8844   -1.6965   -4.6449 H         1 5F2         0.0255
     41 H11        -6.0107   -3.3576   -3.9731 H         1 5F2         0.0255
     42 H12        -7.4920   -2.3693   -4.2093 H         1 5F2         0.0255
     43 H13        -5.0656   -7.2316    2.0507 H         1 5F2         0.0467
     44 H14        -6.7905   -7.0147    2.5027 H         1 5F2         0.0467
     45 H15        -5.9120   -5.6977    1.6539 H         1 5F2         0.0467
     46 H16        -5.6581   -3.4165   -6.4300 H         1 5F2         0.0610
     47 H17        -7.1393   -2.4281   -6.6663 H         1 5F2         0.0610
     48 H18        -8.5729   -7.0504   -6.5702 H         1 5F2         0.0519
     49 H19        -8.1582   -6.5313   -4.9013 H         1 5F2         0.0519
     50 H20        -6.3012   -8.2402   -6.5821 H         1 5F2         0.0313
     51 H21        -7.6125   -8.9358   -5.5705 H         1 5F2         0.0313
     52 H22        -5.5111   -7.0161   -4.4062 H         1 5F2         0.0559
     53 H23        -4.2011   -8.7310   -5.3333 H         1 5F2         0.0315
     54 H24        -5.4004   -9.9997   -4.9103 H         1 5F2         0.0315
     55 H25        -4.5762  -10.2862   -2.8263 H         1 5F2         0.0539
     56 H26        -4.0517   -8.6316   -1.2780 H         1 5F2         0.0312
     57 H27        -4.7849   -7.5178   -2.4815 H         1 5F2         0.0312
     58 H28        -2.7081   -6.7465   -3.2151 H         1 5F2         0.0521
     59 H29        -2.1587   -7.3124   -1.6013 H         1 5F2         0.0521
     60 H30        -7.2292   -9.0135   -3.0357 H         1 5F2         0.1855
     61 H31        -8.1086   -6.2233    0.4854 H         1 5F2         0.1884
@<TRIPOS>BOND
     1    1   23 1  
     2   24    1 am 
     3    2    3 1  
     4   27    2 1  
     5    2   29 1  
     6    3    4 1  
     7    4    5 ar 
     8    4    9 ar 
     9    5    6 ar 
    10    6    7 ar 
    11    8    7 ar 
    12    9    8 ar 
    13   16   10 1  
    14   11   12 1  
    15   29   11 am 
    16   11   30 2  
    17   14   13 2  
    18   14   15 1  
    19   17   14 1  
    20   15   16 1  
    21   18   17 1  
    22   19   18 1  
    23   19   20 1  
    24   26   19 1  
    25   20   21 1  
    26   21   22 1  
    27   21   24 1  
    28   22   23 1  
    29   24   25 2  
    30   26   27 am 
    31   27   28 2  
    32    1   31 1  
    33    2   32 1  
    34    3   33 1  
    35    3   34 1  
    36    5   35 1  
    37    6   36 1  
    38    7   37 1  
    39    8   38 1  
    40    9   39 1  
    41   10   40 1  
    42   10   41 1  
    43   10   42 1  
    44   12   43 1  
    45   12   44 1  
    46   12   45 1  
    47   16   46 1  
    48   16   47 1  
    49   17   48 1  
    50   17   49 1  
    51   18   50 1  
    52   18   51 1  
    53   19   52 1  
    54   20   53 1  
    55   20   54 1  
    56   21   55 1  
    57   22   56 1  
    58   22   57 1  
    59   23   58 1  
    60   23   59 1  
    61   26   60 1  
    62   29   61 1  
@<TRIPOS>SUBSTRUCTURE
     1 5F2         1

