### 
### Created by X-TOOL on Mon Sep 10 21:13:31 2018
### 

@<TRIPOS>MOLECULE
5dpx_ligand
   22    23     1     0     0
SMALL
GAST_HUCK


@<TRIPOS>ATOM
      1 S6         11.9500   32.0510   33.2380 S.3       1 L3B        -0.0525
      2 C1         12.8070   30.9100   32.1210 C.2       1 L3B         0.2026
      3 N5         13.9140   31.2470   31.3430 N.2       1 L3B        -0.2824
      4 C4         14.2840   30.1500   30.6390 C.2       1 L3B         0.0864
      5 N3         13.4150   29.1080   30.9680 N.2       1 L3B        -0.1988
      6 N2         12.5100   29.5870   31.8870 N.pl3     1 L3B        -0.1821
      7 C7         15.4540   30.1110   29.6650 C.ar      1 L3B         0.0012
      8 C12        15.2350   30.3710   28.3930 C.ar      1 L3B        -0.0589
      9 C11        16.3930   30.3530   27.4000 C.ar      1 L3B        -0.0679
     10 C10        17.6100   30.0780   27.8180 C.ar      1 L3B        -0.0683
     11 C9         17.8670   29.7820   29.2930 C.ar      1 L3B        -0.0593
     12 C8         16.8700   29.8000   30.1520 C.ar      1 L3B        -0.0354
     13 C13        17.1560   29.4950   31.6220 C.3       1 L3B        -0.0296
     14 H1         11.1848   31.5706   33.6849 H         1 L3B         0.1334
     15 H2         11.7460   29.0506   32.3224 H         1 L3B         0.2600
     16 H3         14.2316   30.5979   28.0513 H         1 L3B         0.0605
     17 H4         16.2137   30.5663   26.3524 H         1 L3B         0.0561
     18 H5         18.4327   30.0616   27.1124 H         1 L3B         0.0601
     19 H6         18.8713   29.5568   29.6333 H         1 L3B         0.0556
     20 H7         16.2201   29.5523   32.1972 H         1 L3B         0.0397
     21 H8         17.8739   30.2294   32.0159 H         1 L3B         0.0397
     22 H9         17.5797   28.4838   31.7110 H         1 L3B         0.0397
@<TRIPOS>BOND
     1    1    2 1  
     2    2    3 2  
     3    2    6 1  
     4    3    4 1  
     5    4    5 2  
     6    4    7 1  
     7    5    6 1  
     8    7    8 ar 
     9    7   12 ar 
    10    8    9 ar 
    11    9   10 ar 
    12   10   11 ar 
    13   11   12 ar 
    14   12   13 1  
    15    1   14 1  
    16    6   15 1  
    17    8   16 1  
    18    9   17 1  
    19   10   18 1  
    20   11   19 1  
    21   13   20 1  
    22   13   21 1  
    23   13   22 1  
@<TRIPOS>SUBSTRUCTURE
     1 L3B         1

