### 
### Created by X-TOOL on Mon Sep 10 21:13:23 2018
### 

@<TRIPOS>MOLECULE
5dq8_ligand
   29    30     1     0     0
SMALL
GAST_HUCK


@<TRIPOS>ATOM
      1 C1         45.6700   41.7520  -14.7990 C.ar      1 FLF         0.0318
      2 O1         47.4980   40.4290  -13.9040 O.co2     1 FLF        -0.5647
      3 C2         45.2500   40.5460  -15.3050 C.ar      1 FLF        -0.0579
      4 C3         44.0340   40.4730  -15.9710 C.ar      1 FLF        -0.0704
      5 O2         47.5760   42.5920  -13.6990 O.co2     1 FLF        -0.5647
      6 C4         43.2440   41.5990  -16.1290 C.ar      1 FLF        -0.0696
      7 C5         43.6680   42.8170  -15.6230 C.ar      1 FLF        -0.0360
      8 C6         44.8940   42.8500  -14.9480 C.ar      1 FLF         0.0733
      9 C7         46.9930   41.5630  -14.1080 C.2       1 FLF         0.0568
     10 N          45.4570   43.9820  -14.3550 N.pl3     1 FLF        -0.2670
     11 C1'        45.0050   45.2400  -14.6940 C.ar      1 FLF         0.0885
     12 C2'        45.9310   46.0420  -15.2850 C.ar      1 FLF        -0.0104
     13 C3'        45.5560   47.3070  -15.6510 C.ar      1 FLF         0.0370
     14 C4'        44.2660   47.7790  -15.4170 C.ar      1 FLF        -0.0423
     15 C5'        43.3300   46.9490  -14.8150 C.ar      1 FLF        -0.0405
     16 C6'        43.7090   45.6620  -14.4460 C.ar      1 FLF        -0.0099
     17 C7'        46.5770   48.1930  -16.2740 C.3       1 FLF         0.3736
     18 F1         47.7750   47.9500  -15.7050 F         1 FLF        -0.2207
     19 F2         46.7680   47.9740  -17.5840 F         1 FLF        -0.2207
     20 F3         46.0290   49.3950  -16.0030 F         1 FLF        -0.2207
     21 H1         45.8623   39.6595  -15.1854 H         1 FLF         0.0619
     22 H2         43.6991   39.5232  -16.3720 H         1 FLF         0.0521
     23 H3         42.2950   41.5277  -16.6479 H         1 FLF         0.0607
     24 H4         43.0711   43.7135  -15.7455 H         1 FLF         0.0537
     25 H5         46.2121   43.8771  -13.6624 H         1 FLF         0.2099
     26 H6         46.9404   45.6886  -15.4618 H         1 FLF         0.0744
     27 H7         43.9948   48.7887  -15.7034 H         1 FLF         0.0764
     28 H8         42.3196   47.2981  -14.6352 H         1 FLF         0.0671
     29 H9         42.9979   44.9968  -13.9697 H         1 FLF         0.0783
@<TRIPOS>BOND
     1    1    3 ar 
     2    1    8 ar 
     3    1    9 1  
     4    9    2 ar 
     5    3    4 ar 
     6    4    6 ar 
     7    9    5 ar 
     8    6    7 ar 
     9    7    8 ar 
    10    8   10 1  
    11   10   11 1  
    12   11   12 ar 
    13   11   16 ar 
    14   12   13 ar 
    15   13   14 ar 
    16   13   17 1  
    17   14   15 ar 
    18   15   16 ar 
    19   17   18 1  
    20   17   19 1  
    21   17   20 1  
    22    3   21 1  
    23    4   22 1  
    24    6   23 1  
    25    7   24 1  
    26   10   25 1  
    27   12   26 1  
    28   14   27 1  
    29   15   28 1  
    30   16   29 1  
@<TRIPOS>SUBSTRUCTURE
     1 FLF         1

