### 
### Created by X-TOOL on Mon Sep 10 21:13:28 2018
### 

@<TRIPOS>MOLECULE
5dqc_ligand
   99   101     1     0     0
SMALL
GAST_HUCK


@<TRIPOS>ATOM
      1 C01         6.1420  -20.5630   33.5730 C.3       1 5E7         0.0445
      2 N02         5.4970  -20.2490   32.2770 N.am      1 5E7        -0.1796
      3 S03         6.2780  -20.7790   30.8570 S.o2      1 5E7         0.0593
      4 O04         7.0320  -21.9160   31.2210 O.2       1 5E7        -0.1500
      5 C05         7.3530  -19.5030   30.3170 C.3       1 5E7         0.0790
      6 O06         5.3380  -20.9810   29.8210 O.2       1 5E7        -0.1500
      7 C07         4.2350  -19.5170   32.2380 C.ar      1 5E7         0.0754
      8 C08         3.2940  -19.5830   33.3010 C.ar      1 5E7        -0.0214
      9 C09         2.0770  -18.8910   33.2610 C.ar      1 5E7         0.0397
     10 C10         1.0580  -18.9070   34.3710 C.2       1 5E7         0.2025
     11 N11        -0.3060  -18.7980   34.1340 N.am      1 5E7        -0.2786
     12 C12        -1.4530  -18.7430   35.0500 C.3       1 5E7         0.0818
     13 C13        -2.5130  -17.6820   34.6060 C.3       1 5E7         0.0065
     14 C14        -1.9070  -16.4590   33.8830 C.ar      1 5E7        -0.0408
     15 C15        -2.3550  -15.9480   32.6550 C.ar      1 5E7        -0.0603
     16 C16        -1.7540  -14.8420   32.0430 C.ar      1 5E7        -0.0686
     17 C17        -0.6760  -14.2120   32.6290 C.ar      1 5E7        -0.0687
     18 C18        -0.1910  -14.6890   33.8370 C.ar      1 5E7        -0.0686
     19 C19        -0.8090  -15.7880   34.4280 C.ar      1 5E7        -0.0603
     20 C20        -2.0370  -20.2070   35.1920 C.3       1 5E7         0.1193
     21 O21        -3.1320  -20.1490   36.0520 O.3       1 5E7        -0.3840
     22 C22        -0.9350  -21.1170   35.8430 C.3       1 5E7        -0.0025
     23 N23        -1.3420  -22.5090   36.1880 N.4       1 5E7         0.2499
     24 C24        -0.8660  -22.9870   37.5170 C.3       1 5E7         0.0928
     25 C25         0.6400  -23.4170   37.4360 C.3       1 5E7         0.1121
     26 O26         0.8290  -24.4300   38.3890 O.3       1 5E7        -0.3840
     27 C27         1.0550  -23.9250   36.0570 C.3       1 5E7        -0.0314
     28 C28        -0.9790  -22.0060   38.7350 C.2       1 5E7         0.2271
     29 N29        -2.1460  -21.7690   39.4570 N.am      1 5E7        -0.2820
     30 C30        -2.1950  -20.8350   40.6080 C.3       1 5E7         0.0334
     31 C31        -3.5610  -20.7250   41.3330 C.3       1 5E7        -0.0265
     32 C32        -4.3310  -19.4920   40.8640 C.3       1 5E7        -0.0608
     33 C33        -4.4220  -21.9630   41.1090 C.3       1 5E7        -0.0608
     34 O34         0.0500  -21.4120   39.0810 O.2       1 5E7        -0.3908
     35 O35         1.4270  -18.9970   35.5610 O.2       1 5E7        -0.3847
     36 C36         1.8210  -18.1200   32.1130 C.ar      1 5E7        -0.0393
     37 C37         2.6980  -17.9920   31.0190 C.ar      1 5E7         0.0398
     38 C38         2.3240  -17.1470   29.8010 C.2       1 5E7         0.2041
     39 N39         1.0100  -17.0080   29.3600 N.am      1 5E7        -0.2723
     40 C40         0.4500  -16.2830   28.2100 C.3       1 5E7         0.0723
     41 C41        -0.7310  -15.4260   28.6750 C.3       1 5E7        -0.0320
     42 C42        -0.0320  -17.2990   27.1650 C.ar      1 5E7        -0.0183
     43 C43         0.4810  -17.3040   25.8620 C.ar      1 5E7        -0.0582
     44 C44         0.0520  -18.2380   24.9120 C.ar      1 5E7        -0.0685
     45 C45        -0.8890  -19.2030   25.2450 C.ar      1 5E7        -0.0687
     46 C46        -1.4000  -19.2220   26.5340 C.ar      1 5E7        -0.0685
     47 C47        -0.9640  -18.2850   27.4680 C.ar      1 5E7        -0.0582
     48 O48         3.2020  -16.5400   29.1560 O.2       1 5E7        -0.3845
     49 C49         3.8910  -18.7220   31.1130 C.ar      1 5E7        -0.0214
     50 H1          5.5295  -20.1620   34.3940 H         1 5E7         0.0517
     51 H2          7.1422  -20.1064   33.6050 H         1 5E7         0.0517
     52 H3          6.2332  -21.6537   33.6825 H         1 5E7         0.0517
     53 H4          7.8695  -19.8224   29.3998 H         1 5E7         0.0487
     54 H5          8.0950  -19.2923   31.1012 H         1 5E7         0.0487
     55 H6          6.7688  -18.5940   30.1111 H         1 5E7         0.0487
     56 H7          3.5255  -20.1880   34.1702 H         1 5E7         0.0566
     57 H8         -0.5514  -18.7480   33.1659 H         1 5E7         0.1851
     58 H9         -1.0844  -18.4325   36.0388 H         1 5E7         0.0606
     59 H10        -3.0444  -17.3271   35.5014 H         1 5E7         0.0449
     60 H11        -3.2265  -18.1688   33.9249 H         1 5E7         0.0449
     61 H12        -3.1949  -16.4261   32.1639 H         1 5E7         0.0557
     62 H13        -2.1399  -14.4766   31.0982 H         1 5E7         0.0599
     63 H14        -0.2142  -13.3554   32.1514 H         1 5E7         0.0559
     64 H15         0.6576  -14.2130   34.3149 H         1 5E7         0.0599
     65 H16        -0.4129  -16.1460   35.3714 H         1 5E7         0.0557
     66 H17        -2.3353  -20.6039   34.2104 H         1 5E7         0.0672
     67 H18        -3.7882  -19.5662   35.6884 H         1 5E7         0.2101
     68 H19        -0.6010  -20.6270   36.7694 H         1 5E7         0.0841
     69 H20        -0.0935  -21.1798   35.1374 H         1 5E7         0.0841
     70 H21        -0.9744  -23.1275   35.4821 H         1 5E7         0.2037
     71 H22        -2.3490  -22.5523   36.1813 H         1 5E7         0.2037
     72 H23        -1.4707  -23.8731   37.7601 H         1 5E7         0.1125
     73 H24         1.2698  -22.5512   37.6885 H         1 5E7         0.0674
     74 H25         1.7343  -24.7171   38.3690 H         1 5E7         0.2102
     75 H26         2.1181  -24.2070   36.0748 H         1 5E7         0.0258
     76 H27         0.8987  -23.1314   35.3115 H         1 5E7         0.0258
     77 H28         0.4473  -24.8026   35.7913 H         1 5E7         0.0258
     78 H29        -2.9827  -22.2467   39.1892 H         1 5E7         0.1853
     79 H30        -1.9267  -19.8334   40.2410 H         1 5E7         0.0522
     80 H31        -1.4486  -21.1679   41.3442 H         1 5E7         0.0522
     81 H32        -3.3670  -20.6276   42.4113 H         1 5E7         0.0315
     82 H33        -5.2940  -19.4381   41.3928 H         1 5E7         0.0233
     83 H34        -4.5108  -19.5619   39.7811 H         1 5E7         0.0233
     84 H35        -3.7428  -18.5881   41.0804 H         1 5E7         0.0233
     85 H36        -3.8743  -22.8561   41.4444 H         1 5E7         0.0233
     86 H37        -4.6569  -22.0575   40.0385 H         1 5E7         0.0233
     87 H38        -5.3559  -21.8688   41.6824 H         1 5E7         0.0233
     88 H39         0.8793  -17.5850   32.0671 H         1 5E7         0.0576
     89 H40         0.3318  -17.4823   29.9214 H         1 5E7         0.1875
     90 H41         1.2225  -15.6366   27.7680 H         1 5E7         0.0716
     91 H42        -1.1509  -14.8830   27.8154 H         1 5E7         0.0274
     92 H43        -0.3859  -14.7052   29.4309 H         1 5E7         0.0274
     93 H44        -1.5046  -16.0741   29.1126 H         1 5E7         0.0274
     94 H45         1.2267  -16.5684   25.5830 H         1 5E7         0.0557
     95 H46         0.4580  -18.2077   23.9074 H         1 5E7         0.0599
     96 H47        -1.2184  -19.9288   24.5103 H         1 5E7         0.0559
     97 H48        -2.1378  -19.9650   26.8144 H         1 5E7         0.0599
     98 H49        -1.3683  -18.3264   28.4729 H         1 5E7         0.0557
     99 H50         4.5873  -18.6772   30.2834 H         1 5E7         0.0566
@<TRIPOS>BOND
     1    1    2 1  
     2    2    3 am 
     3    2    7 1  
     4    3    4 2  
     5    3    5 1  
     6    3    6 2  
     7    7    8 ar 
     8    7   49 ar 
     9    8    9 ar 
    10    9   10 1  
    11    9   36 ar 
    12   10   11 am 
    13   10   35 2  
    14   11   12 1  
    15   12   13 1  
    16   12   20 1  
    17   13   14 1  
    18   14   15 ar 
    19   14   19 ar 
    20   15   16 ar 
    21   16   17 ar 
    22   17   18 ar 
    23   18   19 ar 
    24   20   21 1  
    25   20   22 1  
    26   22   23 1  
    27   23   24 1  
    28   24   25 1  
    29   24   28 1  
    30   25   26 1  
    31   25   27 1  
    32   28   29 am 
    33   28   34 2  
    34   29   30 1  
    35   30   31 1  
    36   31   32 1  
    37   31   33 1  
    38   36   37 ar 
    39   37   38 1  
    40   37   49 ar 
    41   38   39 am 
    42   38   48 2  
    43   39   40 1  
    44   40   41 1  
    45   40   42 1  
    46   42   43 ar 
    47   42   47 ar 
    48   43   44 ar 
    49   44   45 ar 
    50   45   46 ar 
    51   46   47 ar 
    52    1   50 1  
    53    1   51 1  
    54    1   52 1  
    55    5   53 1  
    56    5   54 1  
    57    5   55 1  
    58    8   56 1  
    59   11   57 1  
    60   12   58 1  
    61   13   59 1  
    62   13   60 1  
    63   15   61 1  
    64   16   62 1  
    65   17   63 1  
    66   18   64 1  
    67   19   65 1  
    68   20   66 1  
    69   21   67 1  
    70   22   68 1  
    71   22   69 1  
    72   23   70 1  
    73   23   71 1  
    74   24   72 1  
    75   25   73 1  
    76   26   74 1  
    77   27   75 1  
    78   27   76 1  
    79   27   77 1  
    80   29   78 1  
    81   30   79 1  
    82   30   80 1  
    83   31   81 1  
    84   32   82 1  
    85   32   83 1  
    86   32   84 1  
    87   33   85 1  
    88   33   86 1  
    89   33   87 1  
    90   36   88 1  
    91   39   89 1  
    92   40   90 1  
    93   41   91 1  
    94   41   92 1  
    95   41   93 1  
    96   43   94 1  
    97   44   95 1  
    98   45   96 1  
    99   46   97 1  
   100   47   98 1  
   101   49   99 1  
@<TRIPOS>SUBSTRUCTURE
     1 5E7         1

