### 
### Created by X-TOOL on Mon Sep 10 21:13:23 2018
### 

@<TRIPOS>MOLECULE
5dqe_ligand
   26    27     1     0     0
SMALL
GAST_HUCK


@<TRIPOS>ATOM
      1 OAD        47.5940   42.9870  -13.1300 O.co2     1 5E4        -0.5647
      2 CAP        47.1610   41.9880  -13.7520 C.2       1 5E4         0.0568
      3 OAQ        47.8020   40.9100  -13.7000 O.co2     1 5E4        -0.5647
      4 CAI        45.8640   42.1100  -14.5500 C.ar      1 5E4         0.0318
      5 CAH        45.2030   41.0460  -14.9760 C.ar      1 5E4        -0.0579
      6 CAA        43.9010   41.2200  -15.7610 C.ar      1 5E4        -0.0704
      7 CAB        43.4590   42.4340  -16.0260 C.ar      1 5E4        -0.0696
      8 CAC        44.2370   43.6630  -15.5400 C.ar      1 5E4        -0.0359
      9 CAJ        45.3540   43.5120  -14.8580 C.ar      1 5E4         0.0731
     10 NAK        46.1480   44.6230  -14.3710 N.pl3     1 5E4        -0.2718
     11 CAL        46.1290   45.9700  -14.9280 C.ar      1 5E4         0.0619
     12 CAM        44.9620   46.6470  -14.8740 C.ar      1 5E4        -0.0299
     13 CAN        44.8860   47.9240  -15.3660 C.ar      1 5E4         0.0028
     14 BR         43.1330   48.7280  -15.2730 Br        1 5E4        -0.0531
     15 CAG        45.9940   48.5820  -15.8760 C.ar      1 5E4        -0.0644
     16 CAF        47.1980   47.9110  -15.9240 C.ar      1 5E4        -0.0694
     17 CAE        47.2650   46.6090  -15.4320 C.ar      1 5E4        -0.0368
     18 H1         45.5833   40.0522  -14.7692 H         1 5E4         0.0619
     19 H2         43.3459   40.3516  -16.0969 H         1 5E4         0.0521
     20 H3         42.5421   42.5636  -16.5896 H         1 5E4         0.0607
     21 H4         43.8670   44.6583  -15.7581 H         1 5E4         0.0537
     22 H5         46.7727   44.4473  -13.5711 H         1 5E4         0.2095
     23 H6         44.0846   46.1802  -14.4412 H         1 5E4         0.0557
     24 H7         45.9159   49.6036  -16.2301 H         1 5E4         0.0540
     25 H8         48.0784   48.3890  -16.3380 H         1 5E4         0.0592
     26 H9         48.2131   46.0836  -15.4404 H         1 5E4         0.0554
@<TRIPOS>BOND
     1    1    2 ar 
     2    2    3 ar 
     3    2    4 1  
     4    4    5 ar 
     5    4    9 ar 
     6    5    6 ar 
     7    6    7 ar 
     8    7    8 ar 
     9    8    9 ar 
    10    9   10 1  
    11   10   11 1  
    12   11   12 ar 
    13   11   17 ar 
    14   12   13 ar 
    15   13   14 1  
    16   13   15 ar 
    17   15   16 ar 
    18   16   17 ar 
    19    5   18 1  
    20    6   19 1  
    21    7   20 1  
    22    8   21 1  
    23   10   22 1  
    24   12   23 1  
    25   15   24 1  
    26   16   25 1  
    27   17   26 1  
@<TRIPOS>SUBSTRUCTURE
     1 5E4         1

