### 
### Created by X-TOOL on Mon Sep 10 21:13:24 2018
### 

@<TRIPOS>MOLECULE
5dqf_ligand
   53    55     1     0     0
SMALL
GAST_HUCK


@<TRIPOS>ATOM
      1 OAC       -22.4100   15.3190  -15.5660 O.co2     1 CZE        -0.5666
      2 CBA       -22.8430   15.3300  -16.7380 C.2       1 CZE         0.0605
      3 OAD       -23.7330   16.0940  -17.1760 O.co2     1 CZE        -0.5666
      4 CAZ       -22.2100   14.3460  -17.7050 C.3       1 CZE         0.1002
      5 OAB       -23.1530   14.1460  -18.7880 O.3       1 CZE        -0.3605
      6 CAO       -24.2240   13.1980  -18.6040 C.3       1 CZE         0.0897
      7 CAL       -25.4400   13.6810  -19.3670 C.3       1 CZE        -0.0074
      8 NAF       -26.6450   12.8810  -19.0130 N.4       1 CZE         0.2443
      9 CAJ       -27.8030   13.3230  -19.7860 C.3       1 CZE         0.0096
     10 CAH       -29.0570   12.5370  -19.3800 C.3       1 CZE         0.0126
     11 CAI       -26.9620   13.0210  -17.5770 C.3       1 CZE         0.0096
     12 CAG       -28.2620   12.3860  -17.1710 C.3       1 CZE         0.0126
     13 NAE       -29.3200   12.8810  -18.0020 N.4       1 CZE         0.2682
     14 CAK       -30.6280   12.1620  -17.5870 C.3       1 CZE         0.0466
     15 CAM       -31.8820   12.6980  -18.2670 C.ar      1 CZE         0.0161
     16 CAP       -32.7870   11.8150  -18.8660 C.ar      1 CZE        -0.0523
     17 CAT       -33.9430   12.3120  -19.4740 C.ar      1 CZE        -0.0540
     18 CAX       -34.1920   13.6900  -19.4810 C.ar      1 CZE         0.0332
     19 CLAA      -35.5890   14.3480  -20.2070 Cl        1 CZE        -0.0769
     20 CAU       -33.2940   14.5660  -18.8850 C.ar      1 CZE        -0.0540
     21 CAQ       -32.1490   14.0710  -18.2790 C.ar      1 CZE        -0.0523
     22 CAN       -30.8690   12.1550  -16.0720 C.ar      1 CZE         0.0159
     23 CAR       -30.8350   13.3390  -15.3210 C.ar      1 CZE        -0.0529
     24 CAV       -31.0400   13.3290  -13.9390 C.ar      1 CZE        -0.0680
     25 CAY       -31.2950   12.1290  -13.2830 C.ar      1 CZE        -0.0685
     26 CAW       -31.3320   10.9480  -14.0260 C.ar      1 CZE        -0.0680
     27 CAS       -31.1210   10.9540  -15.4050 C.ar      1 CZE        -0.0529
     28 H1        -22.0120   13.3912  -17.1960 H         1 CZE         0.0730
     29 H2        -21.2671   14.7553  -18.0966 H         1 CZE         0.0730
     30 H3        -24.4668   13.1176  -17.5342 H         1 CZE         0.0615
     31 H4        -23.9156   12.2133  -18.9851 H         1 CZE         0.0615
     32 H5        -25.2490   13.5852  -20.4460 H         1 CZE         0.0837
     33 H6        -25.6239   14.7369  -19.1195 H         1 CZE         0.0837
     34 H7        -26.4609   11.9114  -19.2180 H         1 CZE         0.2038
     35 H8        -27.6061   13.1614  -20.8561 H         1 CZE         0.0868
     36 H9        -27.9727   14.3941  -19.6020 H         1 CZE         0.0868
     37 H10       -28.8770   11.4560  -19.4754 H         1 CZE         0.0868
     38 H11       -29.9089   12.8242  -20.0139 H         1 CZE         0.0868
     39 H12       -27.0116   14.0934  -17.3371 H         1 CZE         0.0868
     40 H13       -26.1529   12.5526  -16.9973 H         1 CZE         0.0868
     41 H14       -28.4767   12.6312  -16.1204 H         1 CZE         0.0868
     42 H15       -28.1874   11.2945  -17.2849 H         1 CZE         0.0868
     43 H16       -29.4107   13.8795  -17.8982 H         1 CZE         0.2071
     44 H17       -30.5123   11.1147  -17.9030 H         1 CZE         0.1180
     45 H18       -32.5921   10.7487  -18.8585 H         1 CZE         0.0563
     46 H19       -34.6464   11.6313  -19.9398 H         1 CZE         0.0606
     47 H20       -33.4874   15.6326  -18.8935 H         1 CZE         0.0606
     48 H21       -31.4527   14.7562  -17.8091 H         1 CZE         0.0563
     49 H22       -30.6458   14.2810  -15.8230 H         1 CZE         0.0563
     50 H23       -31.0004   14.2558  -13.3782 H         1 CZE         0.0600
     51 H24       -31.4623   12.1114  -12.2121 H         1 CZE         0.0561
     52 H25       -31.5284   10.0085  -13.5221 H         1 CZE         0.0600
     53 H26       -31.1527   10.0237  -15.9605 H         1 CZE         0.0563
@<TRIPOS>BOND
     1    1    2 ar 
     2    2    3 ar 
     3    2    4 1  
     4    4    5 1  
     5    5    6 1  
     6    6    7 1  
     7    7    8 1  
     8    8    9 1  
     9    8   11 1  
    10    9   10 1  
    11   10   13 1  
    12   11   12 1  
    13   12   13 1  
    14   13   14 1  
    15   14   15 1  
    16   14   22 1  
    17   15   16 ar 
    18   15   21 ar 
    19   16   17 ar 
    20   17   18 ar 
    21   18   19 1  
    22   18   20 ar 
    23   20   21 ar 
    24   22   23 ar 
    25   22   27 ar 
    26   23   24 ar 
    27   24   25 ar 
    28   25   26 ar 
    29   26   27 ar 
    30    4   28 1  
    31    4   29 1  
    32    6   30 1  
    33    6   31 1  
    34    7   32 1  
    35    7   33 1  
    36    8   34 1  
    37    9   35 1  
    38    9   36 1  
    39   10   37 1  
    40   10   38 1  
    41   11   39 1  
    42   11   40 1  
    43   12   41 1  
    44   12   42 1  
    45   13   43 1  
    46   14   44 1  
    47   16   45 1  
    48   17   46 1  
    49   20   47 1  
    50   21   48 1  
    51   23   49 1  
    52   24   50 1  
    53   25   51 1  
    54   26   52 1  
    55   27   53 1  
@<TRIPOS>SUBSTRUCTURE
     1 CZE         1

