### 
### Created by X-TOOL on Mon Sep 10 21:13:27 2018
### 

@<TRIPOS>MOLECULE
5drc_ligand
   27    28     1     0     0
SMALL
GAST_HUCK


@<TRIPOS>ATOM
      1 C10        34.2460   76.4970   63.5650 C.2       1 5ER         0.0488
      2 C13        31.2890   75.0610   61.8890 C.ar      1 5ER        -0.0417
      3 C15        31.1530   76.6580   60.0450 C.ar      1 5ER        -0.0783
      4 C17        32.9650   76.9330   61.7150 C.ar      1 5ER        -0.0094
      5 O01        37.8070   79.8700   65.2750 O.co2     1 5ER        -0.5662
      6 C02        38.0310   80.1350   64.0550 C.2       1 5ER         0.0656
      7 O03        39.1850   80.3620   63.5700 O.co2     1 5ER        -0.5662
      8 C04        36.8250   80.1620   63.0660 C.3       1 5ER         0.1215
      9 O05        36.9160   80.9280   61.9260 O.3       1 5ER        -0.3754
     10 C06        35.7070   79.3910   63.2540 C.3       1 5ER         0.0540
     11 C07        35.0680   78.5790   62.2090 C.2       1 5ER         0.1108
     12 O08        35.3150   78.8460   61.0050 O.2       1 5ER        -0.3977
     13 C09        34.1360   77.3960   62.4870 C.2       1 5ER         0.0337
     14 N11        33.2230   75.5240   63.5010 N.pl3     1 5ER        -0.2694
     15 C12        32.4270   75.7650   62.3710 C.ar      1 5ER         0.0694
     16 C14        30.6470   75.5140   60.7220 C.ar      1 5ER        -0.0756
     17 C16        32.2880   77.3420   60.5420 C.ar      1 5ER        -0.0730
     18 H1         35.0110   76.5447   64.3386 H         1 5ER         0.1071
     19 H2         30.9212   74.1868   62.4140 H         1 5ER         0.0549
     20 H3         30.6660   77.0084   59.1422 H         1 5ER         0.0520
     21 H4         36.3664   80.9923   63.6230 H         1 5ER         0.0788
     22 H5         37.6491   80.6277   61.4017 H         1 5ER         0.2126
     23 H6         34.9280   80.0820   63.6085 H         1 5ER         0.0522
     24 H7         35.9659   78.6865   64.0582 H         1 5ER         0.0522
     25 H8         33.0838   74.7592   64.1768 H         1 5ER         0.2322
     26 H9         29.7741   74.9956   60.3420 H         1 5ER         0.0533
     27 H10        32.6516   78.2104   60.0046 H         1 5ER         0.0538
@<TRIPOS>BOND
     1   13    1 2  
     2    1   14 1  
     3   15    2 ar 
     4    2   16 ar 
     5    3   16 ar 
     6   17    3 ar 
     7   13    4 1  
     8    4   15 ar 
     9    4   17 ar 
    10    6    5 ar 
    11    6    7 ar 
    12    8    6 1  
    13    8    9 1  
    14   10    8 1  
    15   11   10 1  
    16   11   12 2  
    17   11   13 1  
    18   14   15 1  
    19    1   18 1  
    20    2   19 1  
    21    3   20 1  
    22    8   21 1  
    23    9   22 1  
    24   10   23 1  
    25   10   24 1  
    26   14   25 1  
    27   16   26 1  
    28   17   27 1  
@<TRIPOS>SUBSTRUCTURE
     1 5ER         1

