### 
### Created by X-TOOL on Mon Sep 10 21:13:27 2018
### 

@<TRIPOS>MOLECULE
5dri_ligand
   25    26     1     0     0
SMALL
GAST_HUCK


@<TRIPOS>ATOM
      1 C10        33.9710   77.3580   63.3060 C.ar      1 5EQ        -0.0580
      2 C15        30.4840   76.4260   61.1950 C.2       1 5EQ        -0.0619
      3 C17        32.6470   78.0930   61.6970 C.ar      1 5EQ        -0.0548
      4 O01        38.7860   80.8230   63.3780 O.co2     1 5EQ        -0.5463
      5 C02        37.7160   80.8120   63.9900 C.2       1 5EQ         0.1273
      6 O03        37.5430   80.7200   65.1900 O.co2     1 5EQ        -0.5463
      7 C04        36.3530   80.9290   63.0750 C.2       1 5EQ         0.1886
      8 O05        36.3750   81.8250   62.1450 O.2       1 5EQ        -0.3543
      9 C06        35.1490   79.9450   63.1990 C.3       1 5EQ         0.1036
     10 C07        34.6580   79.4390   62.3070 C.2       1 5EQ         0.1428
     11 O08        34.8410   79.7780   61.2110 O.2       1 5EQ        -0.3797
     12 C09        33.7200   78.2190   62.4750 C.ar      1 5EQ         0.0181
     13 C11        33.1290   76.1910   63.4900 C.ar      1 5EQ        -0.0382
     14 C12        32.0110   76.0500   62.6950 C.ar      1 5EQ         0.0681
     15 N13        31.0160   75.0490   62.6360 N.pl3     1 5EQ        -0.2776
     16 C14        30.1420   75.3830   61.6960 C.2       1 5EQ         0.0227
     17 C16        31.7410   76.8680   61.8720 C.ar      1 5EQ        -0.0209
     18 H1         34.8527   77.4705   63.9264 H         1 5EQ         0.0575
     19 H2         29.9686   76.9517   60.3925 H         1 5EQ         0.0291
     20 H3         32.4171   78.8451   60.9509 H         1 5EQ         0.0605
     21 H4         34.3499   80.5094   63.7019 H         1 5EQ         0.0714
     22 H5         35.4919   79.1313   63.8550 H         1 5EQ         0.0714
     23 H6         33.3737   75.4449   64.2373 H         1 5EQ         0.0555
     24 H7         30.9761   74.2036   63.2231 H         1 5EQ         0.2281
     25 H8         29.2586   74.8087   61.4209 H         1 5EQ         0.0936
@<TRIPOS>BOND
     1   12    1 ar 
     2    1   13 ar 
     3    2   16 2  
     4   17    2 1  
     5   12    3 ar 
     6    3   17 ar 
     7    5    4 ar 
     8    5    6 ar 
     9    7    5 1  
    10    7    8 2  
    11    9    7 1  
    12   10    9 1  
    13   10   11 2  
    14   10   12 1  
    15   13   14 ar 
    16   14   15 1  
    17   14   17 ar 
    18   15   16 1  
    19    1   18 1  
    20    2   19 1  
    21    3   20 1  
    22    9   21 1  
    23    9   22 1  
    24   13   23 1  
    25   15   24 1  
    26   16   25 1  
@<TRIPOS>SUBSTRUCTURE
     1 5EQ         1

