### 
### Created by X-TOOL on Mon Sep 10 21:13:26 2018
### 

@<TRIPOS>MOLECULE
5dro_ligand
   47    48     1     0     0
SMALL
GAST_HUCK


@<TRIPOS>ATOM
      1 C10       -30.0170    6.2110   19.3970 C.ar      1 ZH2        -0.0417
      2 C13       -32.0540    9.3920   19.8060 C.1       1 ZH2        -0.0524
      3 C15       -33.5070   11.5660   19.1080 C.1       1 ZH2        -0.0146
      4 C17       -35.2660   13.5150   18.3250 C.ar      1 ZH2         0.0145
      5 C20       -37.0670   15.4700   17.5480 C.ar      1 ZH2         0.0378
      6 C22       -35.8010   15.4620   17.0090 C.ar      1 ZH2        -0.0416
      7 C24       -31.2910    7.5980   21.4360 C.ar      1 ZH2        -0.0418
      8 C26       -29.3400    1.2490   20.3640 C.3       1 ZH2         0.0923
      9 C28       -30.4420    1.3480   19.5030 C.3       1 ZH2        -0.0346
     10 O01       -27.7930    1.9270   18.0570 O.2       1 ZH2        -0.3943
     11 C02       -27.5360    1.9370   19.2540 C.2       1 ZH2         0.2270
     12 N03       -26.2220    1.6770   19.6660 N.am      1 ZH2        -0.1622
     13 O04       -25.2750    1.4120   18.7570 O.3       1 ZH2        -0.2717
     14 C05       -28.4980    2.2120   20.2140 C.3       1 ZH2         0.1576
     15 N06       -29.1300    3.3950   19.9620 N.am      1 ZH2        -0.2628
     16 C07       -29.2460    4.4060   21.0050 C.2       1 ZH2         0.2064
     17 O08       -28.7940    4.2040   22.1020 O.2       1 ZH2        -0.3851
     18 C09       -29.9800    5.7260   20.6980 C.ar      1 ZH2         0.0490
     19 C11       -30.6930    7.4000   19.1190 C.ar      1 ZH2        -0.0418
     20 C12       -31.3220    8.0890   20.1300 C.ar      1 ZH2         0.0281
     21 C14       -32.6450   10.4020   19.5190 C.1       1 ZH2        -0.0115
     22 C16       -34.2770   12.4510   18.7490 C.1       1 ZH2        -0.0616
     23 C18       -36.5310   13.5230   18.8640 C.ar      1 ZH2        -0.0563
     24 C19       -37.4370   14.4930   18.4840 C.ar      1 ZH2        -0.0416
     25 N21       -37.9800   16.4520   17.1630 N.pl3     1 ZH2        -0.3355
     26 C23       -34.8970   14.4940   17.3880 C.ar      1 ZH2        -0.0563
     27 C25       -30.6200    6.4140   21.7140 C.ar      1 ZH2        -0.0417
     28 O27       -28.7470    0.0690   20.1970 O.3       1 ZH2        -0.3874
     29 H1        -29.5224    5.6677   18.6000 H         1 ZH2         0.0666
     30 H2        -35.5149   16.2174   16.2861 H         1 ZH2         0.0523
     31 H3        -31.7895    8.1395   22.2318 H         1 ZH2         0.0636
     32 H4        -29.7169    1.2986   21.3962 H         1 ZH2         0.0639
     33 H5        -31.1215    0.5010   19.6784 H         1 ZH2         0.0257
     34 H6        -30.0948    1.3295   18.4594 H         1 ZH2         0.0257
     35 H7        -30.9743    2.2911   19.6957 H         1 ZH2         0.0257
     36 H8        -25.9915    1.6894   20.6390 H         1 ZH2         0.2217
     37 H9        -24.4476    1.2600   19.1984 H         1 ZH2         0.2490
     38 H10       -27.9695    2.3255   21.1720 H         1 ZH2         0.0825
     39 H11       -29.5159    3.5691   19.0560 H         1 ZH2         0.1876
     40 H12       -30.7224    7.7812   18.1047 H         1 ZH2         0.0636
     41 H13       -36.8169   12.7678   19.5872 H         1 ZH2         0.0603
     42 H14       -38.4342   14.4996   18.9090 H         1 ZH2         0.0523
     43 H15       -37.7063   17.1685   16.4755 H         1 ZH2         0.1731
     44 H16       -38.9278   16.4605   17.5662 H         1 ZH2         0.1731
     45 H17       -33.9000   14.4879   16.9626 H         1 ZH2         0.0603
     46 H18       -30.5976    6.0288   22.7270 H         1 ZH2         0.0666
     47 H19       -28.3803    0.0212   19.3219 H         1 ZH2         0.2101
@<TRIPOS>BOND
     1   18    1 ar 
     2    1   19 ar 
     3   20    2 1  
     4    2   21 3  
     5   21    3 1  
     6    3   22 3  
     7   22    4 1  
     8    4   23 ar 
     9    4   26 ar 
    10    6    5 ar 
    11    5   24 ar 
    12    5   25 1  
    13   26    6 ar 
    14    7   20 ar 
    15   27    7 ar 
    16    8    9 1  
    17   14    8 1  
    18    8   28 1  
    19   11   10 2  
    20   11   12 am 
    21   14   11 1  
    22   12   13 1  
    23   15   14 1  
    24   16   15 am 
    25   16   17 2  
    26   18   16 1  
    27   18   27 ar 
    28   19   20 ar 
    29   23   24 ar 
    30    1   29 1  
    31    6   30 1  
    32    7   31 1  
    33    8   32 1  
    34    9   33 1  
    35    9   34 1  
    36    9   35 1  
    37   12   36 1  
    38   13   37 1  
    39   14   38 1  
    40   15   39 1  
    41   19   40 1  
    42   23   41 1  
    43   24   42 1  
    44   25   43 1  
    45   25   44 1  
    46   26   45 1  
    47   27   46 1  
    48   28   47 1  
@<TRIPOS>SUBSTRUCTURE
     1 ZH2         1

