### 
### Created by X-TOOL on Mon Sep 10 21:13:27 2018
### 

@<TRIPOS>MOLECULE
5drq_ligand
   52    53     1     0     0
SMALL
GAST_HUCK


@<TRIPOS>ATOM
      1 C10        25.3220   13.6740    6.1090 C.ar      1 5EM        -0.0417
      2 C13        27.7280   13.9730    4.5590 C.ar      1 5EM        -0.0418
      3 C15        26.9340   16.2540    3.8220 C.1       1 5EM        -0.0524
      4 C17        27.3450   18.5250    2.4740 C.1       1 5EM        -0.0146
      5 C20        27.3140   21.8670    1.0640 C.ar      1 5EM        -0.0563
      6 C21        27.7660   23.0070    0.3150 C.ar      1 5EM        -0.0416
      7 C22        29.0300   22.9560   -0.3540 C.ar      1 5EM         0.0378
      8 C24        29.8900   21.7530   -0.2950 C.ar      1 5EM        -0.0416
      9 C26        24.5150   10.4800    9.8750 C.3       1 5EM         0.0214
     10 C28        23.7190   11.7160   10.2090 C.3       1 5EM        -0.0147
     11 O01        22.1350   10.3360    7.9510 O.2       1 5EM        -0.3942
     12 C02        23.1690    9.6400    7.9200 C.2       1 5EM         0.2303
     13 N03        23.0790    8.3180    7.4690 N.am      1 5EM        -0.1621
     14 O04        21.8540    7.8990    7.1540 O.3       1 5EM        -0.2717
     15 C05        24.5160   10.1610    8.3720 C.3       1 5EM         0.1770
     16 N06        24.8000   11.3390    7.5900 N.am      1 5EM        -0.2602
     17 C07        26.0690   11.4280    6.9330 C.2       1 5EM         0.2065
     18 O08        26.9760   10.6540    7.2080 O.2       1 5EM        -0.3851
     19 C09        26.3000   12.6530    6.0990 C.ar      1 5EM         0.0490
     20 C11        25.5410   14.9020    5.3500 C.ar      1 5EM        -0.0418
     21 C12        26.7270   14.9910    4.5750 C.ar      1 5EM         0.0281
     22 C14        27.5030   12.7710    5.3310 C.ar      1 5EM        -0.0417
     23 C16        27.0850   17.2840    3.2110 C.1       1 5EM        -0.0115
     24 C18        27.6810   19.5010    1.8660 C.1       1 5EM        -0.0616
     25 C19        28.1590   20.6910    1.1020 C.ar      1 5EM         0.0145
     26 N23        29.4780   24.0830   -1.0920 N.pl3     1 5EM        -0.3355
     27 C25        29.4460   20.6160    0.4370 C.ar      1 5EM        -0.0563
     28 N27        25.8870   10.6370   10.3090 N.4       1 5EM         0.2259
     29 C29        23.9130    9.2870   10.5670 C.3       1 5EM        -0.0147
     30 H1         24.4097   13.5451    6.6801 H         1 5EM         0.0666
     31 H2         28.6365   14.0983    3.9810 H         1 5EM         0.0636
     32 H3         26.3649   21.8865    1.5873 H         1 5EM         0.0603
     33 H4         27.1536   23.8996    0.2571 H         1 5EM         0.0523
     34 H5         30.8472   21.7380   -0.8035 H         1 5EM         0.0523
     35 H6         23.7547   11.8930   11.2941 H         1 5EM         0.0289
     36 H7         22.6743   11.5754    9.8946 H         1 5EM         0.0289
     37 H8         24.1472   12.5814    9.6821 H         1 5EM         0.0289
     38 H9         23.8815    7.7267    7.3885 H         1 5EM         0.2217
     39 H10        21.8949    6.9963    6.8608 H         1 5EM         0.2490
     40 H11        25.2853    9.3994    8.1766 H         1 5EM         0.0860
     41 H12        24.1278   12.0749    7.5087 H         1 5EM         0.1878
     42 H13        24.8248   15.7152    5.3773 H         1 5EM         0.0636
     43 H14        28.2344   11.9709    5.3284 H         1 5EM         0.0666
     44 H15        28.8936   24.9295   -1.1448 H         1 5EM         0.1731
     45 H16        30.3875   24.0542   -1.5746 H         1 5EM         0.1731
     46 H17        30.0524   19.7194    0.4959 H         1 5EM         0.0603
     47 H18        25.9056   10.8471   11.2947 H         1 5EM         0.2002
     48 H19        26.3174   11.3909    9.7966 H         1 5EM         0.2002
     49 H20        26.3934    9.7824   10.1380 H         1 5EM         0.2002
     50 H21        22.8698    9.1621   10.2414 H         1 5EM         0.0289
     51 H22        23.9412    9.4417   11.6557 H         1 5EM         0.0289
     52 H23        24.4879    8.3852   10.3098 H         1 5EM         0.0289
@<TRIPOS>BOND
     1    1   19 ar 
     2   20    1 ar 
     3   21    2 ar 
     4    2   22 ar 
     5    3   21 1  
     6   23    3 3  
     7    4   23 1  
     8   24    4 3  
     9    5    6 ar 
    10   25    5 ar 
    11    6    7 ar 
    12    7    8 ar 
    13    7   26 1  
    14    8   27 ar 
    15    9   10 1  
    16   15    9 1  
    17    9   28 1  
    18    9   29 1  
    19   12   11 2  
    20   12   13 am 
    21   15   12 1  
    22   13   14 1  
    23   16   15 1  
    24   17   16 am 
    25   17   18 2  
    26   19   17 1  
    27   22   19 ar 
    28   21   20 ar 
    29   24   25 1  
    30   25   27 ar 
    31    1   30 1  
    32    2   31 1  
    33    5   32 1  
    34    6   33 1  
    35    8   34 1  
    36   10   35 1  
    37   10   36 1  
    38   10   37 1  
    39   13   38 1  
    40   14   39 1  
    41   15   40 1  
    42   16   41 1  
    43   20   42 1  
    44   22   43 1  
    45   26   44 1  
    46   26   45 1  
    47   27   46 1  
    48   28   47 1  
    49   28   48 1  
    50   28   49 1  
    51   29   50 1  
    52   29   51 1  
    53   29   52 1  
@<TRIPOS>SUBSTRUCTURE
     1 5EM         1

