### 
### Created by X-TOOL on Mon Sep 10 21:13:26 2018
### 

@<TRIPOS>MOLECULE
5drs_ligand
   46    48     1     0     0
SMALL
GAST_HUCK


@<TRIPOS>ATOM
      1 O19        20.9090    8.9020   11.0370 O.3       1 5EF        -0.3934
      2 C17        19.3310    7.6020   12.3000 C.3       1 5EF         0.0913
      3 C6         17.4140    4.4410   15.6930 C.ar      1 5EF         0.1773
      4 F11        18.1630    3.4370   16.1890 F         1 5EF        -0.1943
      5 C5         16.0240    4.2830   15.7330 C.ar      1 5EF         0.1616
      6 F12        19.4310    5.5580   15.1420 F         1 5EF        -0.1890
      7 F13        14.0760    5.3480   15.1260 F         1 5EF        -0.1949
      8 O16        19.3860    8.3590   14.7200 O.2       1 5EF        -0.1719
      9 S14        18.3510    7.9020   13.8040 S.o2      1 5EF        -0.0053
     10 O15        17.4070    8.9730   13.3510 O.2       1 5EF        -0.1719
     11 C18        19.6190    8.9180   11.5880 C.3       1 5EF         0.0637
     12 C8         17.3870    6.5980   14.5090 C.ar      1 5EF         0.1356
     13 C7         18.0730    5.4980   15.0910 C.ar      1 5EF         0.1761
     14 C9         15.9490    6.5030   14.4820 C.ar      1 5EF         0.0952
     15 C10        15.3710    5.3800   15.1470 C.ar      1 5EF         0.1708
     16 S1         15.3090    2.8580   16.5970 S.o2      1 5EF         0.0636
     17 O3         13.7650    2.8330   16.7420 O.2       1 5EF        -0.1519
     18 N4         15.6800    1.4970   15.9050 N.am      1 5EF        -0.2621
     19 O2         15.7570    2.8960   17.9850 O.2       1 5EF        -0.1519
     20 N20        15.1050    7.4750   14.0340 N.pl3     1 5EF        -0.3112
     21 C21        14.5720    7.4910   12.7210 C.3       1 5EF         0.0667
     22 C25        13.8860    8.7700   12.2060 C.3       1 5EF        -0.0132
     23 C24        14.8830    9.3660   11.2430 C.3       1 5EF        -0.0179
     24 C23        15.5050    8.1410   10.7400 C.ar      1 5EF        -0.0387
     25 C29        16.2600    7.9790    9.5560 C.ar      1 5EF        -0.0668
     26 C28        16.8080    6.6900    9.3330 C.ar      1 5EF        -0.0755
     27 C27        16.6540    5.5770   10.1970 C.ar      1 5EF        -0.0754
     28 C26        15.9290    5.7480   11.3300 C.ar      1 5EF        -0.0647
     29 C22        15.3940    7.0380   11.5970 C.ar      1 5EF        -0.0168
     30 H1         21.0744    9.7275   10.5969 H         1 5EF         0.2095
     31 H2         18.7682    6.9398   11.6257 H         1 5EF         0.0524
     32 H3         20.2818    7.1224   12.5756 H         1 5EF         0.0524
     33 H4         18.8828    9.0640   10.7838 H         1 5EF         0.0573
     34 H5         19.5429    9.7449   12.3094 H         1 5EF         0.0573
     35 H6         15.3458    0.6349   16.2860 H         1 5EF         0.1633
     36 H7         16.2503    1.4929   15.0835 H         1 5EF         0.1633
     37 H8         14.8424    8.2332   14.6798 H         1 5EF         0.1760
     38 H9         13.7643    6.7478   12.7937 H         1 5EF         0.0695
     39 H10        13.6824    9.4638   13.0350 H         1 5EF         0.0328
     40 H11        12.9446    8.5271   11.6915 H         1 5EF         0.0328
     41 H12        15.6099   10.0135   11.7551 H         1 5EF         0.0413
     42 H13        14.3884    9.9330   10.4406 H         1 5EF         0.0413
     43 H14        16.4116    8.7941    8.8577 H         1 5EF         0.0537
     44 H15        17.3906    6.5445    8.4305 H         1 5EF         0.0541
     45 H16        17.1019    4.6189    9.9594 H         1 5EF         0.0541
     46 H17        15.7618    4.9236   12.0137 H         1 5EF         0.0538
@<TRIPOS>BOND
     1   11    1 1  
     2    9    2 1  
     3    2   11 1  
     4    3    4 1  
     5    3    5 ar 
     6   13    3 ar 
     7    5   15 ar 
     8    5   16 1  
     9   13    6 1  
    10   15    7 1  
    11    9    8 2  
    12    9   10 2  
    13   12    9 1  
    14   12   13 ar 
    15   12   14 ar 
    16   14   15 ar 
    17   14   20 1  
    18   16   17 2  
    19   16   18 am 
    20   16   19 2  
    21   20   21 1  
    22   21   22 1  
    23   21   29 1  
    24   22   23 1  
    25   23   24 1  
    26   24   25 ar 
    27   24   29 ar 
    28   25   26 ar 
    29   26   27 ar 
    30   27   28 ar 
    31   28   29 ar 
    32    1   30 1  
    33    2   31 1  
    34    2   32 1  
    35   11   33 1  
    36   11   34 1  
    37   18   35 1  
    38   18   36 1  
    39   20   37 1  
    40   21   38 1  
    41   22   39 1  
    42   22   40 1  
    43   23   41 1  
    44   23   42 1  
    45   25   43 1  
    46   26   44 1  
    47   27   45 1  
    48   28   46 1  
@<TRIPOS>SUBSTRUCTURE
     1 5EF         1

