### 
### Created by X-TOOL on Mon Sep 10 21:13:27 2018
### 

@<TRIPOS>MOLECULE
5drt_ligand
   44    46     1     0     0
SMALL
GAST_HUCK


@<TRIPOS>ATOM
      1 C2        -39.0980    6.7000   15.6520 C.2       1 5EG         0.2306
      2 C3        -39.7090    7.7160   14.7190 C.3       1 5EG         0.1725
      3 O1        -39.2570    6.7810   16.8560 O.2       1 5EG        -0.3918
      4 C11       -36.6340   10.5290   14.5850 C.ar      1 5EG         0.1093
      5 C12       -35.6240   10.6480   15.5700 C.ar      1 5EG        -0.0321
      6 C13       -34.2770   10.8320   15.1750 C.ar      1 5EG        -0.0704
      7 C14       -33.9080   10.8520   13.8120 C.ar      1 5EG        -0.0723
      8 C15       -34.8990   10.7290   12.8270 C.ar      1 5EG        -0.0566
      9 C16       -36.2380   10.5690   13.2320 C.ar      1 5EG         0.0681
     10 C20       -37.1020    6.0440   13.0950 C.2       1 5EG         0.3093
     11 C23       -35.8040    6.2680   11.0010 C.ar      1 5EG         0.0671
     12 C24       -35.1230    5.3140   10.2290 C.ar      1 5EG        -0.0408
     13 C25       -34.0280    5.6680    9.4350 C.ar      1 5EG        -0.0618
     14 C26       -33.6080    6.9960    9.4490 C.ar      1 5EG         0.0238
     15 C28       -34.2490    7.9440   10.2490 C.ar      1 5EG        -0.0618
     16 C29       -35.3550    7.5900   11.0280 C.ar      1 5EG        -0.0408
     17 N4        -40.4990    8.7300   15.4110 N.pl3     1 5EG        -0.1161
     18 N5        -41.8410    8.6550   15.5720 N.2       1 5EG        -0.0680
     19 N6        -42.2200    9.7530   16.2540 N.2       1 5EG        -0.1528
     20 N7        -41.0660   10.5370   16.5170 N.2       1 5EG        -0.2199
     21 C8        -40.1260    9.8600   15.9860 C.2       1 5EG         0.1990
     22 C9        -38.7020   10.3900   16.1100 C.3       1 5EG         0.1570
     23 O10       -38.0240   10.3750   14.8300 O.3       1 5EG        -0.2952
     24 CL1       -37.4800   10.3990   12.0290 Cl        1 5EG        -0.0788
     25 N18       -38.4120    5.6540   15.1730 N.am      1 5EG        -0.1794
     26 N19       -38.1280    5.4450   13.7610 N.am      1 5EG        -0.1631
     27 O21       -36.4070    6.8390   13.7130 O.2       1 5EG        -0.3889
     28 N22       -36.8790    5.7840   11.7860 N.am      1 5EG        -0.2177
     29 CL2       -32.2440    7.4870    8.4930 Cl        1 5EG        -0.0850
     30 H1        -40.3621    7.1893   14.0077 H         1 5EG         0.0893
     31 H2        -38.8989    8.2184   14.1702 H         1 5EG         0.0893
     32 H3        -35.8809   10.5984   16.6219 H         1 5EG         0.0542
     33 H4        -33.5136   10.9601   15.9339 H         1 5EG         0.0591
     34 H5        -32.8673   10.9615   13.5293 H         1 5EG         0.0523
     35 H6        -34.6392   10.7566   11.7750 H         1 5EG         0.0595
     36 H7        -35.4528    4.2816   10.2488 H         1 5EG         0.0502
     37 H8        -33.5200    4.9295    8.8254 H         1 5EG         0.0583
     38 H9        -33.8855    8.9651   10.2664 H         1 5EG         0.0583
     39 H10       -35.8555    8.3295   11.6426 H         1 5EG         0.0502
     40 H11       -38.1449    9.7594   16.8185 H         1 5EG         0.0886
     41 H12       -38.7352   11.4231   16.4863 H         1 5EG         0.0886
     42 H13       -38.0744    4.9754   15.8253 H         1 5EG         0.2164
     43 H14       -38.7218    4.8243   13.2490 H         1 5EG         0.2167
     44 H15       -37.5397    5.1904   11.3266 H         1 5EG         0.2259
@<TRIPOS>BOND
     1    1    2 1  
     2    1    3 2  
     3   25    1 am 
     4    2   17 1  
     5    4    5 ar 
     6    4    9 ar 
     7   23    4 1  
     8    5    6 ar 
     9    6    7 ar 
    10    8    7 ar 
    11    9    8 ar 
    12    9   24 1  
    13   26   10 am 
    14   10   27 2  
    15   10   28 am 
    16   11   12 ar 
    17   11   16 ar 
    18   28   11 1  
    19   12   13 ar 
    20   13   14 ar 
    21   15   14 ar 
    22   14   29 1  
    23   16   15 ar 
    24   17   18 1  
    25   17   21 1  
    26   18   19 2  
    27   20   19 1  
    28   21   20 2  
    29   21   22 1  
    30   22   23 1  
    31   25   26 1  
    32    2   30 1  
    33    2   31 1  
    34    5   32 1  
    35    6   33 1  
    36    7   34 1  
    37    8   35 1  
    38   12   36 1  
    39   13   37 1  
    40   15   38 1  
    41   16   39 1  
    42   22   40 1  
    43   22   41 1  
    44   25   42 1  
    45   26   43 1  
    46   28   44 1  
@<TRIPOS>SUBSTRUCTURE
     1 5EG         1

