### 
### Created by X-TOOL on Mon Sep 10 21:13:27 2018
### 

@<TRIPOS>MOLECULE
5dry_ligand
   54    58     1     0     0
SMALL
GAST_HUCK


@<TRIPOS>ATOM
      1 C2         39.1710   -6.4360   14.7720 C.2       1 5EK         0.2307
      2 C3         39.9470   -7.2690   13.7930 C.3       1 5EK         0.1719
      3 O1         39.2920   -6.5680   15.9840 O.2       1 5EK        -0.3918
      4 C11        37.0900   -5.8590   12.2190 C.2       1 5EK         0.3077
      5 C14        35.8140   -6.0110   10.1010 C.ar      1 5EK         0.0547
      6 C15        35.2910   -7.3110   10.1600 C.ar      1 5EK        -0.0212
      7 C16        34.1940   -7.5920    9.3060 C.ar      1 5EK         0.0683
      8 C17        33.6690   -6.6170    8.4710 C.ar      1 5EK        -0.0352
      9 C18        34.1800   -5.3220    8.4020 C.ar      1 5EK        -0.0818
     10 C19        35.2500   -5.0410    9.2520 C.ar      1 5EK        -0.0531
     11 C20        32.5610   -7.3230    7.7460 C.2       1 5EK        -0.0690
     12 C21        32.5480   -8.5700    8.2100 C.2       1 5EK         0.0325
     13 C23        33.6460   -9.9220    9.7890 C.ar      1 5EK         0.1022
     14 C24        38.4760   -9.7470   15.0160 C.ar      1 5EK         0.0543
     15 C25        37.9560   -9.7140   16.3300 C.ar      1 5EK        -0.0436
     16 C26        36.5780   -9.8900   16.5730 C.ar      1 5EK        -0.0568
     17 C27        35.6910  -10.0900   15.4990 C.ar      1 5EK        -0.0576
     18 C28        36.1780  -10.1270   14.1810 C.ar      1 5EK        -0.0430
     19 C29        37.5590   -9.9470   13.9410 C.ar      1 5EK         0.0586
     20 N4         40.5480   -8.4060   14.4540 N.pl3     1 5EK        -0.1180
     21 N5         41.8850   -8.5510   14.6230 N.2       1 5EK        -0.0588
     22 N6         42.0730   -9.7470   15.2140 N.2       1 5EK        -0.1381
     23 N7         40.7920  -10.3470   15.4080 N.2       1 5EK        -0.2070
     24 C8         39.9770   -9.5090   14.8930 C.2       1 5EK         0.1913
     25 N9         38.3420   -5.5070   14.3030 N.am      1 5EK        -0.1795
     26 N10        38.1060   -5.2800   12.8940 N.am      1 5EK        -0.1633
     27 O12        36.4000   -6.6830   12.8220 O.2       1 5EK        -0.3894
     28 N13        36.8790   -5.5490   10.9120 N.am      1 5EK        -0.2230
     29 N22        33.5050   -8.7450    9.1010 N.pl3     1 5EK        -0.2293
     30 CL3        38.0480  -10.0090   12.2650 Cl        1 5EK        -0.0651
     31 C31        34.7770  -10.7710    9.7810 C.ar      1 5EK         0.0708
     32 C32        34.8610  -11.9520   10.5140 C.ar      1 5EK        -0.0539
     33 C33        33.7770  -12.2620   11.3110 C.ar      1 5EK        -0.0699
     34 C34        32.6390  -11.4340   11.3600 C.ar      1 5EK        -0.0677
     35 C35        32.5630  -10.2610   10.6180 C.ar      1 5EK        -0.0297
     36 CL6        36.1640  -10.4500    8.8210 Cl        1 5EK        -0.0759
     37 H1         40.7391   -6.6529   13.3426 H         1 5EK         0.0894
     38 H2         39.2679   -7.6267   13.0050 H         1 5EK         0.0894
     39 H3         35.7038   -8.0620   10.8238 H         1 5EK         0.0409
     40 H4         33.7706   -4.5779    7.7284 H         1 5EK         0.0523
     41 H5         35.6621   -4.0384    9.2586 H         1 5EK         0.0444
     42 H6         31.8999   -6.8996    6.9913 H         1 5EK         0.0283
     43 H7         31.8443   -9.3400    7.8973 H         1 5EK         0.0886
     44 H8         38.6277   -9.5507   17.1650 H         1 5EK         0.0662
     45 H9         36.2013   -9.8712   17.5893 H         1 5EK         0.0629
     46 H10        34.6311  -10.2157   15.6883 H         1 5EK         0.0648
     47 H11        35.4980  -10.2927   13.3532 H         1 5EK         0.0633
     48 H12        37.8547   -4.9335   14.9615 H         1 5EK         0.2164
     49 H13        38.7220   -4.6677   12.3984 H         1 5EK         0.2166
     50 H14        37.5404   -4.9348   10.4815 H         1 5EK         0.2240
     51 H15        35.7323  -12.5947   10.4616 H         1 5EK         0.0601
     52 H16        33.8025  -13.1633   11.9127 H         1 5EK         0.0544
     53 H17        31.8039  -11.7176   11.9902 H         1 5EK         0.0597
     54 H18        31.6889   -9.6227   10.6774 H         1 5EK         0.0568
@<TRIPOS>BOND
     1    1    2 1  
     2    1    3 2  
     3   25    1 am 
     4    2   20 1  
     5   26    4 am 
     6    4   27 2  
     7    4   28 am 
     8    5    6 ar 
     9    5   10 ar 
    10   28    5 1  
    11    6    7 ar 
    12    7    8 ar 
    13    7   29 1  
    14    9    8 ar 
    15    8   11 1  
    16   10    9 ar 
    17   11   12 2  
    18   29   12 1  
    19   29   13 1  
    20   13   31 ar 
    21   13   35 ar 
    22   14   15 ar 
    23   14   19 ar 
    24   24   14 1  
    25   15   16 ar 
    26   16   17 ar 
    27   18   17 ar 
    28   19   18 ar 
    29   19   30 1  
    30   20   21 1  
    31   20   24 1  
    32   21   22 2  
    33   23   22 1  
    34   24   23 2  
    35   25   26 1  
    36   31   32 ar 
    37   31   36 1  
    38   32   33 ar 
    39   33   34 ar 
    40   34   35 ar 
    41    2   37 1  
    42    2   38 1  
    43    6   39 1  
    44    9   40 1  
    45   10   41 1  
    46   11   42 1  
    47   12   43 1  
    48   15   44 1  
    49   16   45 1  
    50   17   46 1  
    51   18   47 1  
    52   25   48 1  
    53   26   49 1  
    54   28   50 1  
    55   32   51 1  
    56   33   52 1  
    57   34   53 1  
    58   35   54 1  
@<TRIPOS>SUBSTRUCTURE
     1 5EK         1

