### 
### Created by X-TOOL on Mon Sep 10 21:13:27 2018
### 

@<TRIPOS>MOLECULE
5dsx_ligand
   59    63     1     0     0
SMALL
GAST_HUCK


@<TRIPOS>ATOM
      1 C1         37.3050   -6.1080   12.0800 C.ar      1 5EW         0.1920
      2 C3         35.6020   -5.9670   10.2740 C.ar      1 5EW         0.0500
      3 C12        33.3650   -9.8650   10.2540 C.ar      1 5EW         0.1219
      4 C13        32.3460  -10.1000   11.1770 C.ar      1 5EW        -0.0209
      5 C14        32.4370  -11.1730   12.0600 C.ar      1 5EW        -0.0228
      6 C15        33.5520  -12.0180   12.0300 C.ar      1 5EW        -0.0073
      7 C17        34.4660  -10.7340   10.2760 C.ar      1 5EW         0.1387
      8 C20        39.0440   -6.0290   13.7060 C.ar      1 5EW        -0.0002
      9 C21        38.7990   -7.3490   14.0760 C.ar      1 5EW        -0.0063
     10 C22        37.7370   -8.0210   13.4430 C.ar      1 5EW         0.1138
     11 C24        31.3300   -9.7320    8.0260 C.3       1 5EW        -0.0061
     12 C25        31.3100  -11.4000   13.0290 C.2       1 5EW         0.0357
     13 C26        31.5180  -10.9360   14.4180 C.2       1 5EW         0.2060
     14 C28        29.3260  -11.7070   14.9560 C.2       1 5EW         0.0705
     15 C29        29.1180  -12.1590   13.7030 C.2       1 5EW        -0.0287
     16 C30        30.1510  -12.0010   12.6620 C.2       1 5EW        -0.0446
     17 N2         36.6000   -5.4740   11.0790 N.pl3     1 5EW        -0.2514
     18 C4         35.0410   -7.2750   10.3780 C.ar      1 5EW        -0.0206
     19 C5         33.9510   -7.6150    9.5460 C.ar      1 5EW         0.0693
     20 C6         33.4840   -6.6980    8.6070 C.ar      1 5EW        -0.0424
     21 C7         34.0590   -5.4240    8.4410 C.ar      1 5EW        -0.0841
     22 C8         35.0840   -5.0590    9.3160 C.ar      1 5EW        -0.0545
     23 C9         32.3440   -7.4180    7.9490 C.2       1 5EW        -0.0693
     24 C10        32.2980   -8.6460    8.4830 C.2       1 5EW         0.0525
     25 N11        33.2480   -8.7800    9.4160 N.pl3     1 5EW        -0.2175
     26 N16        34.5350  -11.7660   11.1490 N.ar      1 5EW        -0.3010
     27 CL         35.8110  -10.5390    9.1760 Cl        1 5EW        -0.0529
     28 N19        38.3040   -5.4580   12.7300 N.ar      1 5EW        -0.2703
     29 N23        37.0330   -7.3690   12.4670 N.ar      1 5EW        -0.2391
     30 N27        30.5000  -11.1100   15.3220 N.am      1 5EW        -0.2082
     31 O31        32.6070  -10.4310   14.7050 O.2       1 5EW        -0.4179
     32 C32        30.6720  -10.6620   16.7190 C.3       1 5EW         0.0601
     33 C33        29.8410  -12.5130   11.2640 C.3       1 5EW        -0.0284
     34 N34        37.4710   -9.3370   13.7090 N.pl3     1 5EW        -0.3066
     35 C35        36.2820  -10.0560   13.2820 C.3       1 5EW         0.0177
     36 H1         31.4818   -9.4463   11.2070 H         1 5EW         0.0580
     37 H2         33.6217  -12.8622   12.7064 H         1 5EW         0.0660
     38 H3         39.8252   -5.4618   14.1989 H         1 5EW         0.0846
     39 H4         39.4060   -7.8423   14.8265 H         1 5EW         0.0570
     40 H5         30.6658   -9.3274    7.2481 H         1 5EW         0.0427
     41 H6         30.7282  -10.0707    8.8822 H         1 5EW         0.0427
     42 H7         31.8977  -10.5812    7.6180 H         1 5EW         0.0427
     43 H8         28.5365  -11.8207   15.6974 H         1 5EW         0.1276
     44 H9         28.1760  -12.6466   13.4565 H         1 5EW         0.0375
     45 H10        36.8583   -4.4912   10.9109 H         1 5EW         0.2154
     46 H11        35.4436   -7.9942   11.0821 H         1 5EW         0.0446
     47 H12        33.7185   -4.7510    7.6624 H         1 5EW         0.0498
     48 H13        35.4938   -4.0569    9.2616 H         1 5EW         0.0458
     49 H14        31.6805   -7.0187    7.1834 H         1 5EW         0.0167
     50 H15        31.6665  -10.2074   16.8384 H         1 5EW         0.0609
     51 H16        30.5798  -11.5250   17.3948 H         1 5EW         0.0609
     52 H17        29.8979   -9.9199   16.9641 H         1 5EW         0.0609
     53 H18        30.7017  -12.3247   10.6054 H         1 5EW         0.0430
     54 H19        28.9566  -11.9909   10.8700 H         1 5EW         0.0430
     55 H20        29.6406  -13.5938   11.3054 H         1 5EW         0.0430
     56 H21        38.1697   -9.8601   14.2559 H         1 5EW         0.1839
     57 H22        36.3352  -11.0959   13.6367 H         1 5EW         0.0487
     58 H23        36.2220  -10.0458   12.1837 H         1 5EW         0.0487
     59 H24        35.3891   -9.5705   13.7026 H         1 5EW         0.0487
@<TRIPOS>BOND
     1   17    1 1  
     2    1   28 ar 
     3    1   29 ar 
     4    2   17 1  
     5   18    2 ar 
     6   22    2 ar 
     7    3    4 ar 
     8    3    7 ar 
     9   25    3 1  
    10    4    5 ar 
    11    5    6 ar 
    12    5   12 1  
    13   26    6 ar 
    14    7   26 ar 
    15    7   27 1  
    16    8    9 ar 
    17   28    8 ar 
    18   10    9 ar 
    19   29   10 ar 
    20   10   34 1  
    21   24   11 1  
    22   12   13 1  
    23   12   16 2  
    24   13   30 am 
    25   13   31 2  
    26   15   14 2  
    27   30   14 1  
    28   16   15 1  
    29   16   33 1  
    30   19   18 ar 
    31   20   19 ar 
    32   19   25 1  
    33   20   21 ar 
    34   23   20 1  
    35   21   22 ar 
    36   23   24 2  
    37   24   25 1  
    38   30   32 1  
    39   34   35 1  
    40    4   36 1  
    41    6   37 1  
    42    8   38 1  
    43    9   39 1  
    44   11   40 1  
    45   11   41 1  
    46   11   42 1  
    47   14   43 1  
    48   15   44 1  
    49   17   45 1  
    50   18   46 1  
    51   21   47 1  
    52   22   48 1  
    53   23   49 1  
    54   32   50 1  
    55   32   51 1  
    56   32   52 1  
    57   33   53 1  
    58   33   54 1  
    59   33   55 1  
    60   34   56 1  
    61   35   57 1  
    62   35   58 1  
    63   35   59 1  
@<TRIPOS>SUBSTRUCTURE
     1 5EW         1

