### 
### Created by X-TOOL on Mon Sep 10 21:13:28 2018
### 

@<TRIPOS>MOLECULE
5dt2_ligand
   55    59     1     0     0
SMALL
GAST_HUCK


@<TRIPOS>ATOM
      1 C1         33.2520   -6.8210    8.1640 C.ar      1 5EV        -0.0435
      2 C2         33.9840   -7.8090    8.8230 C.ar      1 5EV         0.0667
      3 C3         35.1210   -7.4800    9.5950 C.ar      1 5EV        -0.0213
      4 C11        33.9080  -10.2120    9.1180 C.ar      1 5EV         0.1239
      5 C13        36.9550   -6.2090   11.6600 C.ar      1 5EV         0.1920
      6 C14        35.1020  -10.8080    8.6590 C.ar      1 5EV        -0.0374
      7 C15        35.5560  -12.0300    9.1910 C.ar      1 5EV        -0.0783
      8 C16        34.7930  -12.6710   10.1800 C.ar      1 5EV        -0.0782
      9 C17        33.5900  -12.1000   10.6210 C.ar      1 5EV        -0.0337
     10 C18        33.1640  -10.8620   10.1090 C.ar      1 5EV         0.1483
     11 C20        38.4560   -6.1170   13.4990 C.ar      1 5EV        -0.0002
     12 C21        38.0030   -7.3660   13.9480 C.ar      1 5EV        -0.0063
     13 C22        37.0060   -8.0310   13.2040 C.ar      1 5EV         0.1138
     14 C25        31.1380  -10.6990   11.4940 C.ar      1 5EV         0.1142
     15 C26        31.4050  -10.4360   12.8510 C.ar      1 5EV        -0.0289
     16 C27        30.4980  -10.8740   13.8360 C.ar      1 5EV        -0.0698
     17 C28        29.3380  -11.5710   13.4560 C.ar      1 5EV        -0.0724
     18 C29        29.0670  -11.8150   12.1000 C.ar      1 5EV        -0.0698
     19 C30        29.9650  -11.3760   11.1180 C.ar      1 5EV        -0.0289
     20 C4         35.4420   -6.1020    9.7380 C.ar      1 5EV         0.0496
     21 C5         34.7490   -5.1430    8.9790 C.ar      1 5EV        -0.0549
     22 C6         33.6600   -5.4850    8.1540 C.ar      1 5EV        -0.0845
     23 C7         32.2040   -7.5930    7.4260 C.2       1 5EV        -0.0705
     24 C8         32.3970   -8.8800    7.7550 C.2       1 5EV         0.0497
     25 N9         33.4370   -9.0180    8.5740 N.pl3     1 5EV        -0.2237
     26 C10        31.5330   -9.9970    7.2230 C.3       1 5EV        -0.0067
     27 N12        36.4720   -5.6540   10.5070 N.pl3     1 5EV        -0.2516
     28 N19        37.9290   -5.5840   12.3760 N.ar      1 5EV        -0.2704
     29 N23        36.5200   -7.4160   12.0860 N.ar      1 5EV        -0.2392
     30 O24        31.9790  -10.2240   10.4890 O.3       1 5EV        -0.2593
     31 N31        36.5190   -9.2600   13.5670 N.pl3     1 5EV        -0.3066
     32 C32        35.7190  -10.1680   12.7420 C.3       1 5EV         0.0177
     33 H1         35.7260   -8.2494   10.0609 H         1 5EV         0.0444
     34 H2         35.6792  -10.3168    7.8840 H         1 5EV         0.0537
     35 H3         36.4828  -12.4703    8.8414 H         1 5EV         0.0507
     36 H4         35.1341  -13.6087   10.6035 H         1 5EV         0.0518
     37 H5         32.9865  -12.6154   11.3594 H         1 5EV         0.0527
     38 H6         39.2230   -5.5839   14.0491 H         1 5EV         0.0846
     39 H7         38.4107   -7.8112   14.8483 H         1 5EV         0.0570
     40 H8         32.3029   -9.8998   13.1362 H         1 5EV         0.0551
     41 H9         30.6940  -10.6742   14.8833 H         1 5EV         0.0590
     42 H10        28.6481  -11.9224   14.2147 H         1 5EV         0.0527
     43 H11        28.1643  -12.3423   11.8133 H         1 5EV         0.0590
     44 H12        29.7554  -11.5582   10.0702 H         1 5EV         0.0551
     45 H13        35.0629   -4.1067    9.0304 H         1 5EV         0.0456
     46 H14        33.1609   -4.7449    7.5390 H         1 5EV         0.0497
     47 H15        31.4416   -7.1930    6.7592 H         1 5EV         0.0160
     48 H16        30.7528   -9.5780    6.5706 H         1 5EV         0.0426
     49 H17        31.0620  -10.5283    8.0632 H         1 5EV         0.0426
     50 H18        32.1543  -10.6989    6.6474 H         1 5EV         0.0426
     51 H19        36.9425   -4.7971   10.1828 H         1 5EV         0.2154
     52 H20        36.7391   -9.5787   14.5214 H         1 5EV         0.1839
     53 H21        35.4835  -11.0752   13.3179 H         1 5EV         0.0487
     54 H22        36.2880  -10.4427   11.8416 H         1 5EV         0.0487
     55 H23        34.7846   -9.6682   12.4470 H         1 5EV         0.0487
@<TRIPOS>BOND
     1    2    1 ar 
     2    1   22 ar 
     3    1   23 1  
     4    3    2 ar 
     5    2   25 1  
     6   20    3 ar 
     7    4    6 ar 
     8    4   10 ar 
     9   25    4 1  
    10   27    5 1  
    11    5   28 ar 
    12    5   29 ar 
    13    6    7 ar 
    14    7    8 ar 
    15    9    8 ar 
    16   10    9 ar 
    17   10   30 1  
    18   11   12 ar 
    19   28   11 ar 
    20   13   12 ar 
    21   29   13 ar 
    22   13   31 1  
    23   14   15 ar 
    24   14   19 ar 
    25   30   14 1  
    26   15   16 ar 
    27   16   17 ar 
    28   18   17 ar 
    29   19   18 ar 
    30   20   21 ar 
    31   20   27 1  
    32   21   22 ar 
    33   23   24 2  
    34   24   25 1  
    35   24   26 1  
    36   31   32 1  
    37    3   33 1  
    38    6   34 1  
    39    7   35 1  
    40    8   36 1  
    41    9   37 1  
    42   11   38 1  
    43   12   39 1  
    44   15   40 1  
    45   16   41 1  
    46   17   42 1  
    47   18   43 1  
    48   19   44 1  
    49   21   45 1  
    50   22   46 1  
    51   23   47 1  
    52   26   48 1  
    53   26   49 1  
    54   26   50 1  
    55   27   51 1  
    56   31   52 1  
    57   32   53 1  
    58   32   54 1  
    59   32   55 1  
@<TRIPOS>SUBSTRUCTURE
     1 5EV         1

